REMARK  3 active torsions:
REMARK  status: ('A' for Active; 'I' for Inactive)
REMARK    1  A    between atoms: C_7  and  C_1 
REMARK    2  A    between atoms: N_5  and  C_9 
REMARK    3  A    between atoms: C_14  and  C_7 
ROOT
ATOM      1  C   UNL d   1      -0.672  -0.025   0.000  0.00  0.00     0.139 A 
ATOM      2  C   UNL d   1      -1.942  -0.430   0.000  0.00  0.00     0.064 A 
ATOM      3  C   UNL d   1      -1.161  -0.693   0.000  0.00  0.00     0.220 A 
ATOM      4  C   UNL d   1      -1.942   0.397   0.000  0.00  0.00     0.106 A 
ATOM      5  O   UNL d   1      -1.152   0.647   0.000  0.00  0.00    -0.304 OA
ATOM      6  C   UNL d   1      -2.651   0.802   0.000  0.00  0.00     0.067 A 
ATOM      7  C   UNL d   1      -2.655  -0.843   0.000  0.00  0.00     0.009 A 
ATOM      8  O   UNL d   1      -0.902  -1.478   0.000  0.00  0.00    -0.284 OA
ATOM      9  C   UNL d   1      -3.365   0.388   0.000  0.00  0.00     0.198 A 
ATOM     10  C   UNL d   1      -3.365  -0.430   0.000  0.00  0.00     0.042 A 
ATOM     11  O   UNL d   1      -4.079   0.802   0.000  0.00  0.00    -0.286 OA
ENDROOT
BRANCH   1  12
ATOM     12  C   UNL d   1       0.154  -0.025   0.000  0.00  0.00     0.028 C 
BRANCH  12  13
ATOM     13  C   UNL d   1       0.576   0.689   0.000  0.00  0.00     0.002 A 
ATOM     14  C   UNL d   1       0.163   1.399   0.000  0.00  0.00     0.002 A 
ATOM     15  C   UNL d   1       0.568   2.113   0.000  0.00  0.00     0.024 A 
ATOM     16  C   UNL d   1       1.403   2.117   0.000  0.00  0.00     0.127 A 
ATOM     17  C   UNL d   1       1.816   1.399   0.000  0.00  0.00     0.024 A 
ATOM     18  C   UNL d   1       1.395   0.685   0.000  0.00  0.00     0.002 A 
BRANCH  16  19
ATOM     19  N   UNL d   1       1.808   2.839   0.000  0.00  0.00    -0.114 N 
ATOM     20  O   UNL d   1       2.635   2.839   0.000  0.00  0.00    -0.532 OA
ATOM     21  O   UNL d   1       1.403   3.553   0.000  0.00  0.00    -0.532 OA
ENDBRANCH  16  19
ENDBRANCH  12  13
ENDBRANCH   1  12
TORSDOF 3
