REMARK  4 active torsions:
REMARK  status: ('A' for Active; 'I' for Inactive)
REMARK    1  A    between atoms: C_6  and  C_1 
REMARK    2  A    between atoms: O_15  and  C_6 
REMARK    3  A    between atoms: C_7  and  C_8 
REMARK    4  A    between atoms: C_16  and  O_15 
ROOT
ATOM      1  C   UNL d   1       1.402   1.132   0.000  0.00  0.00     0.145 A 
ATOM      2  N   UNL d   1       0.741   0.649   0.000  0.00  0.00    -0.240 NA
ATOM      3  C   UNL d   1       1.153   1.918   0.000  0.00  0.00     0.026 A 
ATOM      4  C   UNL d   1       0.329   1.922   0.000  0.00  0.00     0.019 A 
ATOM      5  C   UNL d   1       0.067   1.132   0.000  0.00  0.00     0.082 A 
ATOM      6  C   UNL d   1      -1.036   2.367   0.000  0.00  0.00     0.065 A 
ATOM      7  C   UNL d   1      -0.225   2.542   0.000  0.00  0.00     0.008 A 
ATOM      8  C   UNL d   1      -0.736   0.961   0.000  0.00  0.00     0.019 A 
ATOM      9  C   UNL d   1      -1.294   1.581   0.000  0.00  0.00     0.008 A 
ENDROOT
BRANCH   1  10
ATOM     10  C   UNL d   1       2.188   0.882   0.000  0.00  0.00     0.318 C 
ATOM     11  O   UNL d   1       2.800   1.431   0.000  0.00  0.00    -0.257 OA
BRANCH  10  12
ATOM     12  O   UNL d   1       2.363   0.071   0.000  0.00  0.00    -0.270 OA
BRANCH  12  13
ATOM     13  C   UNL d   1       1.752  -0.478   0.000  0.00  0.00     0.126 C 
ATOM     14  C   UNL d   1       1.914  -1.286   0.000  0.00  0.00     0.029 C 
ENDBRANCH  12  13
ENDBRANCH  10  12
ENDBRANCH   1  10
BRANCH   6  15
ATOM     15  C   UNL d   1      -1.585   2.979   0.000  0.00  0.00     0.211 C 
ATOM     16  O   UNL d   1      -2.392   2.808   0.000  0.00  0.00    -0.644 OA
ATOM     17  O   UNL d   1      -1.331   3.765   0.000  0.00  0.00    -0.644 OA
ENDBRANCH   6  15
TORSDOF 4
