REMARK  0 active torsions:
REMARK  status: ('A' for Active; 'I' for Inactive)
ROOT
ATOM      1  N   UNL d   1       5.979  -6.850   0.000  0.00  0.00    -0.169 NA
ATOM      2  C   UNL d   1       6.679  -6.417   0.000  0.00  0.00     0.199 A 
ATOM      3  C   UNL d   1       6.679  -5.592   0.000  0.00  0.00     0.130 A 
ATOM      4  N   UNL d   1       5.254  -5.604   0.000  0.00  0.00    -0.151 NA
ATOM      5  C   UNL d   1       5.967  -5.192   0.000  0.00  0.00     0.292 A 
ATOM      6  C   UNL d   1       5.254  -6.429   0.000  0.00  0.00     0.373 A 
ATOM      7  O   UNL d   1       5.963  -4.362   0.000  0.00  0.00    -0.264 OA
ATOM      8  O   UNL d   1       4.542  -6.854   0.000  0.00  0.00    -0.242 OA
ATOM      9  N   UNL d   1       7.404  -6.829   0.000  0.00  0.00    -0.126 N 
ATOM     10 BR   UNL d   1       7.392  -5.175   0.000  0.00  0.00    -0.041 Br
ENDROOT
TORSDOF 0
