REMARK  1 active torsions:
REMARK  status: ('A' for Active; 'I' for Inactive)
REMARK    1  A    between atoms: C_5  and  C_1 
ROOT
ATOM      1  C   UNL d   1       1.465  -0.167   0.000  0.00  0.00     0.169 A 
ATOM      2  N   UNL d   1       2.127  -0.649   0.000  0.00  0.00    -0.142 NA
ATOM      3  C   UNL d   1       0.803  -0.649   0.000  0.00  0.00     0.048 A 
ATOM      4  N   UNL d   1       1.877  -1.436   0.000  0.00  0.00    -0.148 NA
ATOM      5  C   UNL d   1       1.053  -1.436   0.000  0.00  0.00     0.105 A 
ATOM      6  C   UNL d   1       0.566  -2.102   0.000  0.00  0.00     0.023 C 
ENDROOT
BRANCH   1   7
ATOM      7  C   UNL d   1       1.465   0.662   0.000  0.00  0.00     0.231 C 
ATOM      8  O   UNL d   1       0.749   1.070   0.000  0.00  0.00    -0.643 OA
ATOM      9  O   UNL d   1       2.177   1.074   0.000  0.00  0.00    -0.643 OA
ENDBRANCH   1   7
TORSDOF 1
