REMARK  1 active torsions:
REMARK  status: ('A' for Active; 'I' for Inactive)
REMARK    1  A    between atoms: C_6  and  N_1 
ROOT
ATOM      1  C   UNL d   1      -1.687   0.435   0.000  0.00  0.00     0.086 A 
ATOM      2  C   UNL d   1      -2.396   0.025   0.000  0.00  0.00     0.023 A 
ATOM      3  C   UNL d   1      -0.970   0.025   0.000  0.00  0.00     0.023 A 
ATOM      4  C   UNL d   1      -1.687  -1.210   0.000  0.00  0.00     0.196 A 
ATOM      5  C   UNL d   1      -0.970  -0.800   0.000  0.00  0.00     0.044 A 
ATOM      6  C   UNL d   1      -2.396  -0.800   0.000  0.00  0.00     0.044 A 
ATOM      7  O   UNL d   1      -1.687  -2.031   0.000  0.00  0.00    -0.287 OA
ENDROOT
BRANCH   1   8
ATOM      8  N   UNL d   1      -1.691   1.252   0.000  0.00  0.00    -0.189 N 
ATOM      9  N   UNL d   1      -2.359   1.737   0.000  0.00  0.00    -0.038 NA
ATOM     10  N   UNL d   1      -2.102   2.521   0.000  0.00  0.00    -0.022 NA
ATOM     11  N   UNL d   1      -1.289   2.521   0.000  0.00  0.00    -0.104 NA
ATOM     12  C   UNL d   1      -1.028   1.737   0.000  0.00  0.00     0.226 A 
ENDBRANCH   1   8
TORSDOF 1
