REMARK  5 active torsions:
REMARK  status: ('A' for Active; 'I' for Inactive)
REMARK    1  A    between atoms: C_10  and  C_3 
REMARK    2  A    between atoms: C_11  and  N_5 
REMARK    3  A    between atoms: O_17  and  C_10 
REMARK    4  A    between atoms: C_22  and  O_17 
REMARK    5  A    between atoms: O_21  and  C_18 
ROOT
ATOM      1  C   UNL d   1       3.158 -25.338   0.000  0.00  0.00     0.086 A 
ATOM      2  C   UNL d   1       2.891 -24.562   0.000  0.00  0.00     0.038 A 
ATOM      3  C   UNL d   1       2.082 -24.386   0.000  0.00  0.00     0.165 A 
ATOM      4  C   UNL d   1       2.608 -25.959   0.000  0.00  0.00     0.282 A 
ATOM      5  N   UNL d   1       1.802 -25.797   0.000  0.00  0.00    -0.194 N 
ATOM      6  N   UNL d   1       1.540 -25.012   0.000  0.00  0.00    -0.157 NA
ATOM      7  C   UNL d   1       3.985 -25.325   0.000  0.00  0.00     0.137 A 
ATOM      8  C   UNL d   1       3.546 -24.061   0.000  0.00  0.00     0.039 A 
ATOM      9  S   UNL d   1       4.222 -24.537   0.000  0.00  0.00    -0.066 SA
ATOM     10  O   UNL d   1       2.866 -26.739   0.000  0.00  0.00    -0.265 OA
ATOM     11  N   UNL d   1       4.481 -25.988   0.000  0.00  0.00    -0.141 N 
ENDROOT
BRANCH   5  12
ATOM     12  C   UNL d   1       1.256 -26.414   0.000  0.00  0.00     0.086 A 
ATOM     13  C   UNL d   1       0.442 -26.251   0.000  0.00  0.00     0.021 A 
ATOM     14  C   UNL d   1      -0.100 -26.873   0.000  0.00  0.00     0.026 A 
ATOM     15  C   UNL d   1       0.163 -27.653   0.000  0.00  0.00     0.094 A 
ATOM     16  C   UNL d   1       0.976 -27.816   0.000  0.00  0.00     0.026 A 
ATOM     17  C   UNL d   1       1.519 -27.190   0.000  0.00  0.00     0.021 A 
BRANCH  15  18
ATOM     18  O   UNL d   1      -0.384 -28.267   0.000  0.00  0.00    -0.328 OA
ATOM     19  C   UNL d   1      -0.121 -29.055   0.000  0.00  0.00     0.181 C 
ENDBRANCH  15  18
ENDBRANCH   5  12
BRANCH   3  20
ATOM     20  C   UNL d   1       1.819 -23.606   0.000  0.00  0.00     0.320 C 
ATOM     21  O   UNL d   1       1.006 -23.443   0.000  0.00  0.00    -0.257 OA
BRANCH  20  22
ATOM     22  O   UNL d   1       2.366 -22.985   0.000  0.00  0.00    -0.270 OA
BRANCH  22  23
ATOM     23  C   UNL d   1       3.171 -23.147   0.000  0.00  0.00     0.126 C 
ATOM     24  C   UNL d   1       3.722 -22.534   0.000  0.00  0.00     0.029 C 
ENDBRANCH  22  23
ENDBRANCH  20  22
ENDBRANCH   3  20
TORSDOF 5
