REMARK  1 active torsions:
REMARK  status: ('A' for Active; 'I' for Inactive)
REMARK    1  A    between atoms: C_6  and  N_1 
ROOT
ATOM      1  N   UNL d   1       4.849  -1.562   0.000  0.00  0.00    -0.210 N 
ATOM      2  C   UNL d   1       5.670  -1.612   0.000  0.00  0.00     0.196 A 
ATOM      3  N   UNL d   1       4.640  -0.758   0.000  0.00  0.00    -0.161 NA
ATOM      4  C   UNL d   1       5.971  -0.846   0.000  0.00  0.00     0.127 A 
ATOM      5  C   UNL d   1       5.343  -0.318   0.000  0.00  0.00     0.134 A 
ATOM      6  C   UNL d   1       6.775  -0.641   0.000  0.00  0.00     0.106 C 
ATOM      7  N   UNL d   1       7.579  -0.431   0.000  0.00  0.00    -0.191 NA
ATOM      8  N   UNL d   1       6.118  -2.328   0.000  0.00  0.00    -0.126 N 
ENDROOT
BRANCH   1   9
ATOM      9  C   UNL d   1       4.288  -2.173   0.000  0.00  0.00     0.085 A 
ATOM     10  C   UNL d   1       4.548  -2.956   0.000  0.00  0.00     0.019 A 
ATOM     11  C   UNL d   1       3.986  -3.572   0.000  0.00  0.00     0.002 A 
ATOM     12  C   UNL d   1       4.238  -4.372   0.000  0.00  0.00     0.000 C 
ATOM     13  C   UNL d   1       3.183  -3.396   0.000  0.00  0.00     0.000 A 
ATOM     14  C   UNL d   1       2.927  -2.613   0.000  0.00  0.00     0.002 A 
ATOM     15  C   UNL d   1       3.484  -1.997   0.000  0.00  0.00     0.019 A 
ENDBRANCH   1   9
TORSDOF 1
