REMARK  4 active torsions:
REMARK  status: ('A' for Active; 'I' for Inactive)
REMARK    1  A    between atoms: C_10  and  C_3 
REMARK    2  A    between atoms: C_12  and  N_6 
REMARK    3  A    between atoms: O_15  and  C_10 
REMARK    4  A    between atoms: C_18  and  O_15 
ROOT
ATOM      1  C   UNL d   1      12.842 -14.392   0.000  0.00  0.00     0.086 A 
ATOM      2  C   UNL d   1      12.838 -13.567   0.000  0.00  0.00     0.038 A 
ATOM      3  C   UNL d   1      12.125 -13.154   0.000  0.00  0.00     0.165 A 
ATOM      4  C   UNL d   1      12.125 -14.804   0.000  0.00  0.00     0.282 A 
ATOM      5  N   UNL d   1      11.417 -13.567   0.000  0.00  0.00    -0.157 NA
ATOM      6  N   UNL d   1      11.417 -14.392   0.000  0.00  0.00    -0.194 N 
ATOM      7  C   UNL d   1      13.629 -14.642   0.000  0.00  0.00     0.137 A 
ATOM      8  C   UNL d   1      13.617 -13.304   0.000  0.00  0.00     0.039 A 
ATOM      9  S   UNL d   1      14.113 -13.975   0.000  0.00  0.00    -0.066 SA
ATOM     10  O   UNL d   1      12.125 -15.629   0.000  0.00  0.00    -0.265 OA
ATOM     11  N   UNL d   1      13.887 -15.429   0.000  0.00  0.00    -0.141 N 
ENDROOT
BRANCH   6  12
ATOM     12  C   UNL d   1      10.700 -14.804   0.000  0.00  0.00     0.086 A 
ATOM     13  C   UNL d   1       9.988 -14.392   0.000  0.00  0.00     0.019 A 
ATOM     14  C   UNL d   1       9.275 -14.804   0.000  0.00  0.00     0.002 A 
ATOM     15  C   UNL d   1       9.275 -15.629   0.000  0.00  0.00     0.000 A 
ATOM     16  C   UNL d   1       9.992 -16.042   0.000  0.00  0.00     0.002 A 
ATOM     17  C   UNL d   1      10.704 -15.629   0.000  0.00  0.00     0.019 A 
ENDBRANCH   6  12
BRANCH   3  18
ATOM     18  C   UNL d   1      12.125 -12.329   0.000  0.00  0.00     0.320 C 
ATOM     19  O   UNL d   1      11.412 -11.917   0.000  0.00  0.00    -0.257 OA
BRANCH  18  20
ATOM     20  O   UNL d   1      12.842 -11.917   0.000  0.00  0.00    -0.270 OA
BRANCH  20  21
ATOM     21  C   UNL d   1      13.554 -12.329   0.000  0.00  0.00     0.126 C 
ATOM     22  C   UNL d   1      14.267 -11.917   0.000  0.00  0.00     0.029 C 
ENDBRANCH  20  21
ENDBRANCH  18  20
ENDBRANCH   3  18
TORSDOF 4
