REMARK  1 active torsions:
REMARK  status: ('A' for Active; 'I' for Inactive)
REMARK    1  A    between atoms: C_9  and  C_4 
ROOT
ATOM      1  S   UNL d   1       5.975 -15.229   0.000  0.00  0.00    -0.085 SA
ATOM      2  N   UNL d   1       5.950 -17.042   0.000  0.00  0.00    -0.207 NA
ATOM      3  C   UNL d   1       5.154 -16.892   0.000  0.00  0.00     0.280 A 
ATOM      4  C   UNL d   1       5.175 -15.363   0.000  0.00  0.00     0.034 A 
ATOM      5  C   UNL d   1       4.792 -16.117   0.000  0.00  0.00     0.069 A 
ATOM      6  C   UNL d   1       6.467 -15.717   0.000  0.00  0.00     0.047 A 
ATOM      7  C   UNL d   1       6.467 -16.542   0.000  0.00  0.00     0.091 A 
ATOM      8  O   UNL d   1       4.650 -17.542   0.000  0.00  0.00    -0.265 OA
ATOM      9  C   UNL d   1       7.179 -15.304   0.000  0.00  0.00     0.008 A 
ATOM     10  C   UNL d   1       7.179 -16.954   0.000  0.00  0.00     0.020 A 
ATOM     11  C   UNL d   1       7.900 -16.542   0.000  0.00  0.00     0.002 A 
ATOM     12  C   UNL d   1       7.900 -15.717   0.000  0.00  0.00     0.001 A 
ENDROOT
BRANCH   4  13
ATOM     13  C   UNL d   1       4.688 -14.692   0.000  0.00  0.00     0.006 A 
ATOM     14  C   UNL d   1       5.017 -13.942   0.000  0.00  0.00     0.001 A 
ATOM     15  C   UNL d   1       4.537 -13.279   0.000  0.00  0.00     0.000 A 
ATOM     16  C   UNL d   1       3.717 -13.367   0.000  0.00  0.00     0.000 A 
ATOM     17  C   UNL d   1       3.379 -14.129   0.000  0.00  0.00     0.000 A 
ATOM     18  C   UNL d   1       3.867 -14.792   0.000  0.00  0.00     0.001 A 
ENDBRANCH   4  13
TORSDOF 1
