REMARK  0 active torsions:
REMARK  status: ('A' for Active; 'I' for Inactive)
ROOT
ATOM      1  C   UNL d   1       2.295  -1.226   0.000  0.00  0.00     0.061 A 
ATOM      2  C   UNL d   1       3.010  -1.638   0.000  0.00  0.00     0.279 A 
ATOM      3  C   UNL d   1       2.295  -0.403   0.000  0.00  0.00     0.045 A 
ATOM      4  N   UNL d   1       3.720  -1.226   0.000  0.00  0.00    -0.206 NA
ATOM      5  C   UNL d   1       1.575   0.008   0.000  0.00  0.00     0.196 A 
ATOM      6  O   UNL d   1       3.010  -2.461   0.000  0.00  0.00    -0.265 OA
ATOM      7  C   UNL d   1       3.716  -0.399   0.000  0.00  0.00     0.102 A 
ATOM      8  O   UNL d   1       1.575   0.831   0.000  0.00  0.00    -0.287 OA
ATOM      9  C   UNL d   1       2.997   0.008   0.000  0.00  0.00     0.024 A 
ATOM     10  C   UNL d   1       1.575  -1.646   0.000  0.00  0.00     0.005 A 
ATOM     11  C   UNL d   1       0.865  -1.235   0.000  0.00  0.00     0.003 A 
ATOM     12  C   UNL d   1       0.865  -0.411   0.000  0.00  0.00     0.042 A 
ENDROOT
TORSDOF 0
