REMARK  1 active torsions:
REMARK  status: ('A' for Active; 'I' for Inactive)
REMARK    1  A    between atoms: C_7  and  C_2 
ROOT
ATOM      1  C   UNL d   1       0.554  -0.026   0.000  0.00  0.00     0.070 A 
ATOM      2  C   UNL d   1       1.170  -0.543   0.000  0.00  0.00     0.170 A 
ATOM      3  C   UNL d   1      -0.161  -0.444   0.000  0.00  0.00     0.108 A 
ATOM      4  N   UNL d   1       0.851  -1.324   0.000  0.00  0.00    -0.142 NA
ATOM      5  N   UNL d   1       0.026  -1.247   0.000  0.00  0.00    -0.148 NA
ATOM      6  C   UNL d   1      -0.876  -0.026   0.000  0.00  0.00     0.042 A 
ATOM      7  C   UNL d   1       0.554   0.799   0.000  0.00  0.00     0.126 A 
ATOM      8  O   UNL d   1      -0.161   1.217   0.000  0.00  0.00    -0.305 OA
ATOM      9  C   UNL d   1      -0.876   0.799   0.000  0.00  0.00     0.102 A 
ATOM     10  C   UNL d   1      -1.591  -0.444   0.000  0.00  0.00     0.004 A 
ATOM     11  C   UNL d   1      -1.591   1.217   0.000  0.00  0.00     0.025 A 
ATOM     12  C   UNL d   1      -2.295  -0.026   0.000  0.00  0.00     0.000 A 
ATOM     13  C   UNL d   1      -2.295   0.799   0.000  0.00  0.00     0.002 A 
ENDROOT
BRANCH   2  14
ATOM     14  C   UNL d   1       1.951  -0.312   0.000  0.00  0.00     0.231 C 
ATOM     15  O   UNL d   1       2.545  -0.873   0.000  0.00  0.00    -0.643 OA
ATOM     16  O   UNL d   1       2.145   0.491   0.000  0.00  0.00    -0.643 OA
ENDBRANCH   2  14
TORSDOF 1
