REMARK  1 active torsions:
REMARK  status: ('A' for Active; 'I' for Inactive)
REMARK    1  A    between atoms: C_9  and  C_3 
ROOT
ATOM      1  N   UNL d   1       1.667  -2.867   0.000  0.00  0.00    -0.145 NA
ATOM      2  N   UNL d   1       2.379  -2.454   0.000  0.00  0.00    -0.106 NA
ATOM      3  C   UNL d   1       0.950  -2.454   0.000  0.00  0.00     0.103 A 
ATOM      4  C   UNL d   1       2.379  -1.629   0.000  0.00  0.00     0.297 A 
ATOM      5  C   UNL d   1       0.942  -1.629   0.000  0.00  0.00     0.026 A 
ATOM      6  C   UNL d   1       1.663  -1.217   0.000  0.00  0.00     0.066 A 
ATOM      7  O   UNL d   1       3.092  -1.217   0.000  0.00  0.00    -0.264 OA
ENDROOT
BRANCH   3   8
ATOM      8  C   UNL d   1       0.237  -2.867   0.000  0.00  0.00     0.022 A 
ATOM      9  C   UNL d   1      -0.483  -2.454   0.000  0.00  0.00     0.022 A 
ATOM     10  C   UNL d   1      -1.196  -2.867   0.000  0.00  0.00     0.099 A 
ATOM     11  N   UNL d   1      -1.196  -3.692   0.000  0.00  0.00    -0.242 NA
ATOM     12  C   UNL d   1      -0.471  -4.104   0.000  0.00  0.00     0.099 A 
ATOM     13  C   UNL d   1       0.242  -3.692   0.000  0.00  0.00     0.022 A 
ENDBRANCH   3   8
TORSDOF 1
