REMARK  2 active torsions:
REMARK  status: ('A' for Active; 'I' for Inactive)
REMARK    1  A    between atoms: C_6  and  N_2 
REMARK    2  A    between atoms: C_4  and  C_6 
ROOT
ATOM      1  C   UNL d   1       3.629  -1.142   0.000  0.00  0.00     0.206 A 
ATOM      2  N   UNL d   1       2.967  -1.629   0.000  0.00  0.00    -0.277 N 
ATOM      3  N   UNL d   1       4.300  -1.629   0.000  0.00  0.00    -0.215 NA
ATOM      4  C   UNL d   1       4.042  -2.417   0.000  0.00  0.00     0.120 A 
ATOM      5  C   UNL d   1       3.217  -2.417   0.000  0.00  0.00     0.103 A 
ATOM      6  S   UNL d   1       3.629  -0.317   0.000  0.00  0.00    -0.038 SA
ENDROOT
BRANCH   2   7
ATOM      7  C   UNL d   1       2.179  -1.375   0.000  0.00  0.00     0.107 C 
BRANCH   7   8
ATOM      8  C   UNL d   1       1.567  -1.929   0.000  0.00  0.00     0.118 A 
ATOM      9  O   UNL d   1       1.654  -2.754   0.000  0.00  0.00    -0.304 OA
ATOM     10  C   UNL d   1       0.904  -3.087   0.000  0.00  0.00     0.123 A 
ATOM     11  C   UNL d   1       0.350  -2.475   0.000  0.00  0.00     0.029 A 
ATOM     12  C   UNL d   1       0.762  -1.762   0.000  0.00  0.00     0.028 A 
ENDBRANCH   7   8
ENDBRANCH   2   7
TORSDOF 2
