REMARK  5 active torsions:
REMARK  status: ('A' for Active; 'I' for Inactive)
REMARK    1  A    between atoms: C_6  and  C_1 
REMARK    2  A    between atoms: C_7  and  C_4 
REMARK    3  A    between atoms: O_14  and  C_6 
REMARK    4  A    between atoms: O_15  and  C_9 
REMARK    5  A    between atoms: O_16  and  C_10 
ROOT
ATOM      1  C   UNL d   1       1.671  -2.449   0.000  0.00  0.00     0.027 A 
ATOM      2  C   UNL d   1       0.952  -2.860   0.000  0.00  0.00     0.028 A 
ATOM      3  C   UNL d   1       0.241  -2.449   0.000  0.00  0.00     0.116 A 
ATOM      4  C   UNL d   1       0.241  -1.621   0.000  0.00  0.00     0.116 A 
ATOM      5  C   UNL d   1       1.671  -1.621   0.000  0.00  0.00     0.004 A 
ATOM      6  C   UNL d   1       0.952  -1.210   0.000  0.00  0.00     0.026 A 
ENDROOT
BRANCH   1   7
ATOM      7  C   UNL d   1       2.386  -2.860   0.000  0.00  0.00     0.127 A 
ATOM      8  C   UNL d   1       3.134  -2.519   0.000  0.00  0.00     0.054 A 
ATOM      9  C   UNL d   1       3.691  -3.130   0.000  0.00  0.00     0.173 A 
ATOM     10  N   UNL d   1       3.280  -3.845   0.000  0.00  0.00    -0.121 NA
ATOM     11  O   UNL d   1       2.473  -3.671   0.000  0.00  0.00    -0.211 OA
BRANCH   9  12
ATOM     12  C   UNL d   1       4.506  -3.043   0.000  0.00  0.00     0.316 C 
ATOM     13  O   UNL d   1       4.843  -2.286   0.000  0.00  0.00    -0.257 OA
BRANCH  12  14
ATOM     14  O   UNL d   1       4.992  -3.708   0.000  0.00  0.00    -0.294 OA
ATOM     15  C   UNL d   1       4.656  -4.456   0.000  0.00  0.00     0.185 C 
ENDBRANCH  12  14
ENDBRANCH   9  12
ENDBRANCH   1   7
BRANCH   3  16
ATOM     16  O   UNL d   1      -0.470  -2.860   0.000  0.00  0.00    -0.326 OA
ATOM     17  C   UNL d   1      -1.181  -2.449   0.000  0.00  0.00     0.181 C 
ENDBRANCH   3  16
BRANCH   4  18
ATOM     18  O   UNL d   1      -0.470  -1.214   0.000  0.00  0.00    -0.326 OA
ATOM     19  C   UNL d   1      -0.470  -0.391   0.000  0.00  0.00     0.181 C 
ENDBRANCH   4  18
TORSDOF 5
