REMARK  4 active torsions:
REMARK  status: ('A' for Active; 'I' for Inactive)
REMARK    1  A    between atoms: C_6  and  C_1 
REMARK    2  A    between atoms: C_7  and  C_4 
REMARK    3  A    between atoms: O_10  and  C_6 
REMARK    4  A    between atoms: O_12  and  C_11 
ROOT
ATOM      1  C   UNL d   1       6.638  -3.129   0.000  0.00  0.00     0.173 A 
ATOM      2  N   UNL d   1       6.892  -3.917   0.000  0.00  0.00    -0.121 NA
ATOM      3  C   UNL d   1       5.812  -3.129   0.000  0.00  0.00     0.054 A 
ATOM      4  C   UNL d   1       5.554  -3.917   0.000  0.00  0.00     0.127 A 
ATOM      5  O   UNL d   1       6.225  -4.400   0.000  0.00  0.00    -0.211 OA
ENDROOT
BRANCH   4   6
ATOM      6  C   UNL d   1       4.767  -4.167   0.000  0.00  0.00     0.027 A 
ATOM      7  C   UNL d   1       4.604  -4.975   0.000  0.00  0.00     0.026 A 
ATOM      8  C   UNL d   1       3.825  -5.229   0.000  0.00  0.00     0.094 A 
ATOM      9  C   UNL d   1       3.204  -4.679   0.000  0.00  0.00     0.024 A 
ATOM     10  C   UNL d   1       3.375  -3.875   0.000  0.00  0.00     0.002 A 
ATOM     11  C   UNL d   1       4.154  -3.617   0.000  0.00  0.00     0.002 A 
BRANCH   8  12
ATOM     12  O   UNL d   1       3.654  -6.042   0.000  0.00  0.00    -0.328 OA
ATOM     13  C   UNL d   1       2.867  -6.300   0.000  0.00  0.00     0.181 C 
ENDBRANCH   8  12
ENDBRANCH   4   6
BRANCH   1  14
ATOM     14  C   UNL d   1       7.117  -2.454   0.000  0.00  0.00     0.316 C 
ATOM     15  O   UNL d   1       6.779  -1.704   0.000  0.00  0.00    -0.257 OA
BRANCH  14  16
ATOM     16  O   UNL d   1       7.942  -2.542   0.000  0.00  0.00    -0.294 OA
ATOM     17  C   UNL d   1       8.275  -3.300   0.000  0.00  0.00     0.185 C 
ENDBRANCH  14  16
ENDBRANCH   1  14
TORSDOF 4
