REMARK  4 active torsions:
REMARK  status: ('A' for Active; 'I' for Inactive)
REMARK    1  A    between atoms: C_10  and  C_3 
REMARK    2  A    between atoms: C_11  and  N_5 
REMARK    3  A    between atoms: O_17  and  C_10 
REMARK    4  A    between atoms: C_21  and  O_17 
ROOT
ATOM      1  C   UNL d   1       5.828  -2.020   0.000  0.00  0.00     0.086 A 
ATOM      2  C   UNL d   1       5.117  -1.609   0.000  0.00  0.00     0.038 A 
ATOM      3  C   UNL d   1       4.402  -2.020   0.000  0.00  0.00     0.165 A 
ATOM      4  C   UNL d   1       5.828  -2.848   0.000  0.00  0.00     0.282 A 
ATOM      5  N   UNL d   1       5.117  -3.259   0.000  0.00  0.00    -0.194 N 
ATOM      6  N   UNL d   1       4.402  -2.848   0.000  0.00  0.00    -0.157 NA
ATOM      7  C   UNL d   1       6.439  -1.463   0.000  0.00  0.00     0.137 A 
ATOM      8  C   UNL d   1       5.292  -0.802   0.000  0.00  0.00     0.039 A 
ATOM      9  S   UNL d   1       6.102  -0.715   0.000  0.00  0.00    -0.066 SA
ATOM     10  O   UNL d   1       6.547  -3.267   0.000  0.00  0.00    -0.265 OA
ATOM     11  N   UNL d   1       7.258  -1.613   0.000  0.00  0.00    -0.141 N 
ENDROOT
BRANCH   5  12
ATOM     12  C   UNL d   1       5.117  -4.082   0.000  0.00  0.00     0.086 A 
ATOM     13  C   UNL d   1       4.402  -4.494   0.000  0.00  0.00     0.019 A 
ATOM     14  C   UNL d   1       4.402  -5.325   0.000  0.00  0.00     0.002 A 
ATOM     15  C   UNL d   1       5.117  -5.737   0.000  0.00  0.00     0.000 A 
ATOM     16  C   UNL d   1       5.828  -5.325   0.000  0.00  0.00     0.002 A 
ATOM     17  C   UNL d   1       5.117  -6.560   0.000  0.00  0.00     0.000 C 
ATOM     18  C   UNL d   1       5.828  -4.494   0.000  0.00  0.00     0.019 A 
ENDBRANCH   5  12
BRANCH   3  19
ATOM     19  C   UNL d   1       3.683  -1.601   0.000  0.00  0.00     0.320 C 
ATOM     20  O   UNL d   1       2.972  -2.012   0.000  0.00  0.00    -0.257 OA
BRANCH  19  21
ATOM     21  O   UNL d   1       3.683  -0.773   0.000  0.00  0.00    -0.270 OA
BRANCH  21  22
ATOM     22  C   UNL d   1       2.972  -0.362   0.000  0.00  0.00     0.126 C 
ATOM     23  C   UNL d   1       2.972   0.470   0.000  0.00  0.00     0.029 C 
ENDBRANCH  21  22
ENDBRANCH  19  21
ENDBRANCH   3  19
TORSDOF 4
