REMARK  2 active torsions:
REMARK  status: ('A' for Active; 'I' for Inactive)
REMARK    1  A    between atoms: CA_3  and  C_1 
REMARK    2  A    between atoms: C_2  and  CA_3 
ROOT
ATOM      1  C   UNL d   1       4.042  -3.879   0.000  0.00  0.00     0.026 A 
ATOM      2  C   UNL d   1       3.325  -3.467   0.000  0.00  0.00     0.009 A 
ATOM      3  C   UNL d   1       2.612  -3.879   0.000  0.00  0.00     0.035 A 
ATOM      4 BR   UNL d   1       1.900  -3.467   0.000  0.00  0.00    -0.049 Br
ATOM      5  C   UNL d   1       4.042  -4.704   0.000  0.00  0.00     0.002 A 
ATOM      6  C   UNL d   1       3.325  -5.117   0.000  0.00  0.00     0.001 A 
ATOM      7  C   UNL d   1       2.612  -4.704   0.000  0.00  0.00     0.007 A 
ENDROOT
BRANCH   1   8
ATOM      8  CA  UNL d   1       4.754  -3.462   0.000  0.00  0.00     0.167 C 
ATOM      9  N   UNL d   1       5.467  -3.867   0.000  0.00  0.00    -0.142 N 
BRANCH   8  10
ATOM     10  C   UNL d   1       4.750  -2.638   0.000  0.00  0.00     0.231 C 
ATOM     11  O   UNL d   1       4.029  -2.225   0.000  0.00  0.00    -0.643 OA
ATOM     12  OXT UNL d   1       5.463  -2.217   0.000  0.00  0.00    -0.643 OA
ENDBRANCH   8  10
ENDBRANCH   1   8
TORSDOF 2
