REMARK  2 active torsions:
REMARK  status: ('A' for Active; 'I' for Inactive)
REMARK    1  A    between atoms: C_5  and  N_2 
REMARK    2  A    between atoms: C_4  and  C_5 
ROOT
ATOM      1  C   UNL d   1       0.216  -0.903   0.000  0.00  0.00     0.206 A 
ATOM      2  N   UNL d   1      -0.557  -0.603   0.000  0.00  0.00    -0.279 N 
ATOM      3  N   UNL d   1       0.741  -0.254   0.000  0.00  0.00    -0.215 NA
ATOM      4  C   UNL d   1       0.287   0.433   0.000  0.00  0.00     0.120 A 
ATOM      5  C   UNL d   1      -0.512   0.221   0.000  0.00  0.00     0.103 A 
ATOM      6  S   UNL d   1       0.429  -1.702   0.000  0.00  0.00    -0.038 SA
ENDROOT
BRANCH   2   7
ATOM      7  C   UNL d   1      -1.256  -1.053   0.000  0.00  0.00     0.089 C 
BRANCH   7   8
ATOM      8  C   UNL d   1      -1.984  -0.678   0.000  0.00  0.00     0.047 A 
ATOM      9  S   UNL d   1      -2.717  -1.048   0.000  0.00  0.00    -0.085 SA
ATOM     10  C   UNL d   1      -3.303  -0.466   0.000  0.00  0.00     0.035 A 
ATOM     11  C   UNL d   1      -2.921   0.270   0.000  0.00  0.00     0.007 A 
ATOM     12  C   UNL d   1      -2.109   0.137   0.000  0.00  0.00     0.009 A 
ENDBRANCH   7   8
ENDBRANCH   2   7
TORSDOF 2
