REMARK  1 active torsions:
REMARK  status: ('A' for Active; 'I' for Inactive)
REMARK    1  A    between atoms: N_4  and  C_1 
ROOT
ATOM      1  C   UNL d   1       6.529  -2.754   0.000  0.00  0.00     0.735 A 
ATOM      2  N   UNL d   1       6.042  -2.087   0.000  0.00  0.00    -0.059 NA
ATOM      3  N   UNL d   1       6.042  -3.425   0.000  0.00  0.00    -0.059 NA
ATOM      4  C   UNL d   1       5.254  -2.342   0.000  0.00  0.00     0.118 A 
ATOM      5  C   UNL d   1       5.254  -3.167   0.000  0.00  0.00     0.118 A 
ATOM      6  C   UNL d   1       4.542  -1.929   0.000  0.00  0.00     0.021 A 
ATOM      7  C   UNL d   1       4.542  -3.587   0.000  0.00  0.00     0.021 A 
ATOM      8  C   UNL d   1       3.829  -3.175   0.000  0.00  0.00     0.002 A 
ATOM      9  C   UNL d   1       3.829  -2.350   0.000  0.00  0.00     0.002 A 
ENDROOT
BRANCH   1  10
ATOM     10  N   UNL d   1       7.354  -2.763   0.000  0.00  0.00    -0.134 N 
ATOM     11  C   UNL d   1       7.767  -3.479   0.000  0.00  0.00     0.119 A 
ATOM     12  C   UNL d   1       8.588  -3.479   0.000  0.00  0.00     0.119 A 
ATOM     13  N   UNL d   1       9.004  -2.767   0.000  0.00  0.00    -0.239 NA
ATOM     14  C   UNL d   1       8.592  -2.050   0.000  0.00  0.00     0.119 A 
ATOM     15  C   UNL d   1       7.763  -2.042   0.000  0.00  0.00     0.119 A 
ENDBRANCH   1  10
TORSDOF 1
