REMARK  2 active torsions:
REMARK  status: ('A' for Active; 'I' for Inactive)
REMARK    1  A    between atoms: CA_2  and  C_1 
REMARK    2  A    between atoms: C_3  and  CA_2 
ROOT
ATOM      1  C   UNL d   1       4.975  -1.217   0.000  0.00  0.00     0.025 A 
ATOM      2  C   UNL d   1       4.254  -0.804   0.000  0.00  0.00     0.003 A 
ATOM      3  C   UNL d   1       4.975  -2.050   0.000  0.00  0.00     0.003 A 
ATOM      4  C   UNL d   1       3.542  -2.050   0.000  0.00  0.00     0.058 A 
ATOM      5  C   UNL d   1       3.542  -1.225   0.000  0.00  0.00     0.011 A 
ATOM      6  C   UNL d   1       4.254  -2.462   0.000  0.00  0.00     0.011 A 
ATOM      7 CL   UNL d   1       2.829  -2.462   0.000  0.00  0.00    -0.082 Cl
ENDROOT
BRANCH   1   8
ATOM      8  CA  UNL d   1       5.688  -0.804   0.000  0.00  0.00     0.167 C 
ATOM      9  N   UNL d   1       6.404  -1.212   0.000  0.00  0.00    -0.142 N 
BRANCH   8  10
ATOM     10  C   UNL d   1       5.679   0.021   0.000  0.00  0.00     0.231 C 
ATOM     11  O   UNL d   1       4.967   0.433   0.000  0.00  0.00    -0.643 OA
ATOM     12  OXT UNL d   1       6.392   0.438   0.000  0.00  0.00    -0.643 OA
ENDBRANCH   8  10
ENDBRANCH   1   8
TORSDOF 2
