REMARK  3 active torsions:
REMARK  status: ('A' for Active; 'I' for Inactive)
REMARK    1  A    between atoms: N_5  and  C_1 
REMARK    2  A    between atoms: C_7  and  N_2 
REMARK    3  A    between atoms: C_9  and  C_7 
ROOT
ATOM      1  C   UNL d   1       6.522  -1.440   0.000  0.00  0.00     0.720 A 
ATOM      2  N   UNL d   1       6.035  -2.110   0.000  0.00  0.00    -0.139 N 
ATOM      3  N   UNL d   1       6.035  -0.774   0.000  0.00  0.00    -0.060 NA
ATOM      4  C   UNL d   1       5.248  -1.852   0.000  0.00  0.00     0.100 A 
ATOM      5  C   UNL d   1       5.248  -1.028   0.000  0.00  0.00     0.116 A 
ATOM      6  C   UNL d   1       4.536  -2.272   0.000  0.00  0.00     0.020 A 
ATOM      7  C   UNL d   1       4.536  -0.616   0.000  0.00  0.00     0.021 A 
ATOM      8  C   UNL d   1       3.825  -1.860   0.000  0.00  0.00     0.002 A 
ATOM      9  C   UNL d   1       3.825  -1.036   0.000  0.00  0.00     0.002 A 
ENDROOT
BRANCH   2  10
ATOM     10  C   UNL d   1       6.293  -2.897   0.000  0.00  0.00     0.098 C 
BRANCH  10  11
ATOM     11  C   UNL d   1       5.735  -3.508   0.000  0.00  0.00     0.018 A 
ATOM     12  C   UNL d   1       4.936  -3.334   0.000  0.00  0.00     0.002 A 
ATOM     13  C   UNL d   1       4.382  -3.945   0.000  0.00  0.00     0.000 A 
ATOM     14  C   UNL d   1       4.636  -4.732   0.000  0.00  0.00     0.000 A 
ATOM     15  C   UNL d   1       5.448  -4.899   0.000  0.00  0.00     0.000 A 
ATOM     16  C   UNL d   1       5.997  -4.287   0.000  0.00  0.00     0.002 A 
ENDBRANCH  10  11
ENDBRANCH   2  10
BRANCH   1  17
ATOM     17  N   UNL d   1       7.346  -1.448   0.000  0.00  0.00    -0.136 N 
ATOM     18  C   UNL d   1       7.758  -2.164   0.000  0.00  0.00     0.119 A 
ATOM     19  C   UNL d   1       8.578  -2.164   0.000  0.00  0.00     0.119 A 
ATOM     20  N   UNL d   1       8.994  -1.452   0.000  0.00  0.00    -0.239 NA
ATOM     21  C   UNL d   1       8.582  -0.737   0.000  0.00  0.00     0.119 A 
ATOM     22  C   UNL d   1       7.753  -0.728   0.000  0.00  0.00     0.119 A 
ENDBRANCH   1  17
TORSDOF 3
