REMARK  1 active torsions:
REMARK  status: ('A' for Active; 'I' for Inactive)
REMARK    1  A    between atoms: N_11  and  C_7 
ROOT
ATOM      1  C   UNL d   1       2.176  -1.435   0.000  0.00  0.00     0.201 A 
ATOM      2  C   UNL d   1       1.689  -0.766   0.000  0.00  0.00     0.141 A 
ATOM      3  N   UNL d   1       2.995  -1.348   0.000  0.00  0.00    -0.036 NA
ATOM      4  C   UNL d   1       0.903  -1.015   0.000  0.00  0.00     0.040 A 
ATOM      5  N   UNL d   1       1.689  -2.101   0.000  0.00  0.00    -0.225 NA
ATOM      6  N   UNL d   1       2.022  -0.004   0.000  0.00  0.00    -0.129 NA
ATOM      7  C   UNL d   1       3.333  -0.591   0.000  0.00  0.00     0.788 A 
ATOM      8  C   UNL d   1       0.903  -1.839   0.000  0.00  0.00     0.085 A 
ATOM      9  N   UNL d   1       2.846   0.075   0.000  0.00  0.00     0.048 NA
ATOM     10  C   UNL d   1       0.191  -0.603   0.000  0.00  0.00     0.003 A 
ATOM     11  C   UNL d   1       0.191  -2.259   0.000  0.00  0.00     0.019 A 
ATOM     12  C   UNL d   1      -0.520  -1.015   0.000  0.00  0.00     0.000 A 
ATOM     13  C   UNL d   1      -0.520  -1.847   0.000  0.00  0.00     0.002 A 
ATOM     14  C   UNL d   1      -1.244  -0.603   0.000  0.00  0.00     0.000 C 
ENDROOT
BRANCH   7  15
ATOM     15  N   UNL d   1       4.156  -0.512   0.000  0.00  0.00     0.069 NA
ATOM     16  N   UNL d   1       4.705  -1.127   0.000  0.00  0.00    -0.006 N 
ENDBRANCH   7  15
TORSDOF 1
