REMARK  8 active torsions:
REMARK  status: ('A' for Active; 'I' for Inactive)
REMARK    1  A    between atoms: C_2  and  N_1 
REMARK    2  A    between atoms: O_17  and  C_3 
REMARK    3  A    between atoms: O_18  and  C_4 
REMARK    4  A    between atoms: O_19  and  C_5 
REMARK    5  A    between atoms: O_21  and  C_6 
REMARK    6  A    between atoms: C_9  and  C_11 
REMARK    7  A    between atoms: C_12  and  C_9 
REMARK    8  A    between atoms: C_11  and  C_15 
ROOT
ATOM      1  C   UNL d   1       7.767  -5.617   0.000  0.00  0.00     0.000 C 
ENDROOT
BRANCH   1   2
ATOM      2  C   UNL d   1       7.763  -6.442   0.000  0.00  0.00     0.000 C 
BRANCH   2   3
ATOM      3  C   UNL d   1       7.042  -6.854   0.000  0.00  0.00     0.002 A 
ATOM      4  C   UNL d   1       7.042  -7.667   0.000  0.00  0.00     0.026 A 
ATOM      5  C   UNL d   1       6.329  -8.079   0.000  0.00  0.00     0.149 A 
ATOM      6  C   UNL d   1       5.612  -7.667   0.000  0.00  0.00     0.116 A 
ATOM      7  C   UNL d   1       5.617  -6.842   0.000  0.00  0.00     0.026 A 
ATOM      8  C   UNL d   1       6.329  -6.429   0.000  0.00  0.00     0.002 A 
BRANCH   5   9
ATOM      9  N   UNL d   1       6.329  -8.904   0.000  0.00  0.00    -0.112 N 
ATOM     10  O   UNL d   1       5.612  -9.317   0.000  0.00  0.00    -0.532 OA
ATOM     11  O   UNL d   1       7.042  -9.325   0.000  0.00  0.00    -0.532 OA
ENDBRANCH   5   9
BRANCH   6  12
ATOM     12  O   UNL d   1       4.892  -8.075   0.000  0.00  0.00    -0.326 OA
ATOM     13  C   UNL d   1       4.179  -7.654   0.000  0.00  0.00     0.181 C 
ENDBRANCH   6  12
ENDBRANCH   2   3
ENDBRANCH   1   2
BRANCH   1  14
ATOM     14  C   UNL d   1       7.050  -5.204   0.000  0.00  0.00     0.004 A 
ATOM     15  C   UNL d   1       7.050  -4.379   0.000  0.00  0.00     0.026 A 
ATOM     16  C   UNL d   1       6.329  -3.967   0.000  0.00  0.00     0.118 A 
ATOM     17  C   UNL d   1       5.617  -4.379   0.000  0.00  0.00     0.138 A 
ATOM     18  C   UNL d   1       5.617  -5.204   0.000  0.00  0.00     0.118 A 
ATOM     19  C   UNL d   1       6.329  -5.617   0.000  0.00  0.00     0.026 A 
BRANCH  16  20
ATOM     20  O   UNL d   1       6.329  -3.142   0.000  0.00  0.00    -0.326 OA
ATOM     21  C   UNL d   1       7.042  -2.729   0.000  0.00  0.00     0.181 C 
ENDBRANCH  16  20
BRANCH  17  22
ATOM     22  O   UNL d   1       4.904  -3.967   0.000  0.00  0.00    -0.324 OA
ATOM     23  C   UNL d   1       4.192  -4.379   0.000  0.00  0.00     0.182 C 
ENDBRANCH  17  22
BRANCH  18  24
ATOM     24  O   UNL d   1       4.904  -5.617   0.000  0.00  0.00    -0.326 OA
ATOM     25  C   UNL d   1       4.192  -5.204   0.000  0.00  0.00     0.181 C 
ENDBRANCH  18  24
ENDBRANCH   1  14
TORSDOF 8
