REMARK  1 active torsions:
REMARK  status: ('A' for Active; 'I' for Inactive)
REMARK    1  A    between atoms: O_8  and  C_4 
ROOT
ATOM      1  C   UNL d   1       5.041  -1.443   0.000  0.00  0.00     0.021 A 
ATOM      2  C   UNL d   1       5.041  -2.268   0.000  0.00  0.00     0.024 A 
ATOM      3  C   UNL d   1       5.750  -1.020   0.000  0.00  0.00     0.103 A 
ATOM      4  C   UNL d   1       5.750  -2.678   0.000  0.00  0.00     0.094 A 
ATOM      5  C   UNL d   1       6.467  -1.430   0.000  0.00  0.00     0.023 A 
ATOM      6  C   UNL d   1       6.467  -2.255   0.000  0.00  0.00     0.026 A 
ATOM      7  N   UNL d   1       5.737  -0.191   0.000  0.00  0.00    -0.148 N 
ATOM      8  C   UNL d   1       4.328  -1.032   0.000  0.00  0.00     0.002 A 
ATOM      9  C   UNL d   1       4.328  -2.678   0.000  0.00  0.00     0.002 A 
ATOM     10  C   UNL d   1       3.611  -1.443   0.000  0.00  0.00     0.000 A 
ATOM     11  C   UNL d   1       3.611  -2.268   0.000  0.00  0.00     0.000 A 
ENDROOT
BRANCH   4  12
ATOM     12  O   UNL d   1       5.750  -3.507   0.000  0.00  0.00    -0.328 OA
ATOM     13  C   UNL d   1       5.041  -3.918   0.000  0.00  0.00     0.181 C 
ENDBRANCH   4  12
TORSDOF 1
