REMARK  1 active torsions:
REMARK  status: ('A' for Active; 'I' for Inactive)
REMARK    1  A    between atoms: C_4  and  C_1 
ROOT
ATOM      1  C   UNL d   1       2.559   0.159   0.000  0.00  0.00     0.112 A 
ATOM      2  N   UNL d   1       2.071  -0.514   0.000  0.00  0.00    -0.238 NA
ATOM      3  S   UNL d   1       2.071   0.835   0.000  0.00  0.00    -0.066 SA
ATOM      4  C   UNL d   1       1.282  -0.255   0.000  0.00  0.00     0.088 A 
ATOM      5  C   UNL d   1       1.282   0.576   0.000  0.00  0.00     0.049 A 
ATOM      6  C   UNL d   1       0.568  -0.668   0.000  0.00  0.00     0.020 A 
ATOM      7  C   UNL d   1       0.568   0.990   0.000  0.00  0.00     0.008 A 
ATOM      8  C   UNL d   1      -0.146   0.576   0.000  0.00  0.00     0.001 A 
ATOM      9  C   UNL d   1      -0.146  -0.255   0.000  0.00  0.00     0.002 A 
ENDROOT
BRANCH   1  10
ATOM     10  C   UNL d   1       3.386   0.163   0.000  0.00  0.00     0.043 A 
ATOM     11  C   UNL d   1       3.800  -0.555   0.000  0.00  0.00     0.105 A 
ATOM     12  N   UNL d   1       3.386  -1.269   0.000  0.00  0.00    -0.148 N 
ATOM     13  C   UNL d   1       4.626  -0.551   0.000  0.00  0.00     0.021 A 
ATOM     14  C   UNL d   1       5.040   0.163   0.000  0.00  0.00     0.002 A 
ATOM     15  C   UNL d   1       4.614   0.877   0.000  0.00  0.00     0.000 A 
ATOM     16  C   UNL d   1       3.800   0.877   0.000  0.00  0.00     0.004 A 
ENDBRANCH   1  10
TORSDOF 1
