REMARK  1 active torsions:
REMARK  status: ('A' for Active; 'I' for Inactive)
REMARK    1  A    between atoms: N_3  and  C_1 
ROOT
ATOM      1  C   UNL d   1       2.825  -1.577   0.000  0.00  0.00     0.158 A 
ATOM      2  C   UNL d   1       2.825  -0.749   0.000  0.00  0.00     0.103 A 
ATOM      3  C   UNL d   1       3.537  -0.329   0.000  0.00  0.00     0.104 C 
ATOM      4  N   UNL d   1       4.248   0.083   0.000  0.00  0.00    -0.191 NA
ATOM      5  N   UNL d   1       2.110  -1.989   0.000  0.00  0.00    -0.226 NA
ATOM      6  C   UNL d   1       2.110  -0.337   0.000  0.00  0.00     0.015 A 
ATOM      7  C   UNL d   1       1.398  -1.577   0.000  0.00  0.00     0.101 A 
ATOM      8  C   UNL d   1       1.398  -0.749   0.000  0.00  0.00     0.021 A 
ENDROOT
BRANCH   1   9
ATOM      9  N   UNL d   1       3.537  -1.985   0.000  0.00  0.00    -0.286 N 
ATOM     10  C   UNL d   1       3.537  -2.813   0.000  0.00  0.00     0.102 A 
ATOM     11  C   UNL d   1       4.248  -3.220   0.000  0.00  0.00     0.118 A 
ATOM     12  N   UNL d   1       4.960  -2.813   0.000  0.00  0.00    -0.239 NA
ATOM     13  C   UNL d   1       4.960  -1.989   0.000  0.00  0.00     0.118 A 
ATOM     14  C   UNL d   1       4.248  -1.573   0.000  0.00  0.00     0.102 A 
ENDBRANCH   1   9
TORSDOF 1
