REMARK  2 active torsions:
REMARK  status: ('A' for Active; 'I' for Inactive)
REMARK    1  A    between atoms: CA_2  and  C_1 
REMARK    2  A    between atoms: C_3  and  CA_2 
ROOT
ATOM      1  C   UNL d   1       1.729  -1.812   0.000  0.00  0.00     0.025 A 
ATOM      2  C   UNL d   1       1.017  -1.400   0.000  0.00  0.00     0.002 A 
ATOM      3  C   UNL d   1       1.729  -2.642   0.000  0.00  0.00     0.002 A 
ATOM      4  C   UNL d   1       0.304  -1.812   0.000  0.00  0.00     0.000 A 
ATOM      5  C   UNL d   1       1.017  -3.054   0.000  0.00  0.00     0.000 A 
ATOM      6  C   UNL d   1       0.304  -2.642   0.000  0.00  0.00     0.000 A 
ATOM      7  C   UNL d   1      -0.412  -3.054   0.000  0.00  0.00     0.000 C 
ENDROOT
BRANCH   1   8
ATOM      8  CA  UNL d   1       2.442  -1.392   0.000  0.00  0.00     0.167 C 
ATOM      9  N   UNL d   1       3.163  -1.804   0.000  0.00  0.00    -0.142 N 
BRANCH   8  10
ATOM     10  C   UNL d   1       2.442  -0.567   0.000  0.00  0.00     0.231 C 
ATOM     11  O   UNL d   1       1.725  -0.154   0.000  0.00  0.00    -0.643 OA
ATOM     12  OXT UNL d   1       3.154  -0.154   0.000  0.00  0.00    -0.643 OA
ENDBRANCH   8  10
ENDBRANCH   1   8
TORSDOF 2
