REMARK  3 active torsions:
REMARK  status: ('A' for Active; 'I' for Inactive)
REMARK    1  A    between atoms: S_5  and  C_1 
REMARK    2  A    between atoms: C_11  and  S_5 
REMARK    3  A    between atoms: C_9  and  C_11 
ROOT
ATOM      1  C   UNL d   1       6.029  -3.469   0.000  0.00  0.00     0.068 A 
ATOM      2  C   UNL d   1       5.616  -4.182   0.000  0.00  0.00     0.068 A 
ATOM      3  C   UNL d   1       5.620  -2.756   0.000  0.00  0.00     0.013 A 
ATOM      4  C   UNL d   1       4.791  -4.178   0.000  0.00  0.00     0.012 A 
ATOM      5  C   UNL d   1       4.803  -2.756   0.000  0.00  0.00     0.007 A 
ATOM      6 CL   UNL d   1       6.859  -3.469   0.000  0.00  0.00    -0.082 Cl
ATOM      7 CL   UNL d   1       6.021  -4.903   0.000  0.00  0.00    -0.082 Cl
ATOM      8  C   UNL d   1       4.382  -3.465   0.000  0.00  0.00     0.001 A 
ENDROOT
BRANCH   5   9
ATOM      9  C   UNL d   1       4.391  -2.039   0.000  0.00  0.00     0.038 C 
BRANCH   9  10
ATOM     10  S   UNL d   1       4.732  -1.280   0.000  0.00  0.00    -0.048 SA
BRANCH  10  11
ATOM     11  C   UNL d   1       4.240  -0.605   0.000  0.00  0.00     0.194 A 
ATOM     12  N   UNL d   1       3.415  -0.605   0.000  0.00  0.00    -0.218 NA
ATOM     13  C   UNL d   1       3.156   0.183   0.000  0.00  0.00     0.122 A 
ATOM     14  C   UNL d   1       3.828   0.671   0.000  0.00  0.00     0.122 A 
ATOM     15  N   UNL d   1       4.495   0.183   0.000  0.00  0.00    -0.218 NA
ENDBRANCH  10  11
ENDBRANCH   9  10
ENDBRANCH   5   9
TORSDOF 3
