REMARK  4 active torsions:
REMARK  status: ('A' for Active; 'I' for Inactive)
REMARK    1  A    between atoms: C_6  and  N_1 
REMARK    2  A    between atoms: C_9  and  C_2 
REMARK    3  A    between atoms: O_14  and  C_10 
REMARK    4  A    between atoms: C_15  and  O_14 
ROOT
ATOM      1  C   UNL d   1       1.654  -0.804   0.000  0.00  0.00     0.086 A 
ATOM      2  C   UNL d   1       0.942  -1.217   0.000  0.00  0.00     0.021 A 
ATOM      3  C   UNL d   1       2.367  -1.212   0.000  0.00  0.00     0.021 A 
ATOM      4  C   UNL d   1       1.654  -2.454   0.000  0.00  0.00     0.100 A 
ATOM      5  C   UNL d   1       2.367  -2.038   0.000  0.00  0.00     0.026 A 
ATOM      6  C   UNL d   1       0.942  -2.042   0.000  0.00  0.00     0.026 A 
ENDROOT
BRANCH   1   7
ATOM      7  N   UNL d   1       1.654   0.021   0.000  0.00  0.00    -0.191 N 
ATOM      8  C   UNL d   1       2.317   0.508   0.000  0.00  0.00     0.200 A 
ATOM      9  N   UNL d   1       2.062   1.296   0.000  0.00  0.00    -0.107 NA
ATOM     10  N   UNL d   1       1.250   1.296   0.000  0.00  0.00    -0.022 NA
ATOM     11  N   UNL d   1       0.992   0.508   0.000  0.00  0.00    -0.039 NA
BRANCH   8  12
ATOM     12  C   UNL d   1       3.112   0.258   0.000  0.00  0.00     0.109 C 
ATOM     13 CL   UNL d   1       3.825   0.683   0.000  0.00  0.00    -0.078 Cl
ENDBRANCH   8  12
ENDBRANCH   1   7
BRANCH   4  14
ATOM     14  O   UNL d   1       1.654  -3.275   0.000  0.00  0.00    -0.305 OA
BRANCH  14  15
ATOM     15  C   UNL d   1       2.367  -3.688   0.000  0.00  0.00     0.123 C 
ATOM     16  C   UNL d   1       3.087  -3.275   0.000  0.00  0.00     0.029 C 
ENDBRANCH  14  15
ENDBRANCH   4  14
TORSDOF 4
