REMARK  3 active torsions:
REMARK  status: ('A' for Active; 'I' for Inactive)
REMARK    1  A    between atoms: S_7  and  C_4 
REMARK    2  A    between atoms: C_9  and  S_7 
REMARK    3  A    between atoms: C_10  and  C_9 
ROOT
ATOM      1  S   UNL d   1       0.818  -2.772   0.000  0.00  0.00    -0.046 SA
ENDROOT
BRANCH   1   2
ATOM      2  C   UNL d   1       0.104  -2.359   0.000  0.00  0.00     0.217 A 
ATOM      3  N   UNL d   1       0.104  -1.532   0.000  0.00  0.00    -0.180 NA
ATOM      4  C   UNL d   1      -0.610  -1.119   0.000  0.00  0.00     0.300 A 
ATOM      5  C   UNL d   1      -1.323  -1.532   0.000  0.00  0.00     0.161 A 
ATOM      6  O   UNL d   1      -0.610  -0.292   0.000  0.00  0.00    -0.263 OA
ATOM      7  C   UNL d   1      -2.038  -1.119   0.000  0.00  0.00     0.028 C 
ATOM      8  N   UNL d   1      -1.323  -2.359   0.000  0.00  0.00    -0.141 NA
ATOM      9  N   UNL d   1      -0.610  -2.772   0.000  0.00  0.00    -0.121 NA
ENDBRANCH   1   2
BRANCH   1  10
ATOM     10  C   UNL d   1       0.818  -3.599   0.000  0.00  0.00     0.038 C 
BRANCH  10  11
ATOM     11  C   UNL d   1       1.532  -4.013   0.000  0.00  0.00     0.007 A 
ATOM     12  C   UNL d   1       1.532  -4.839   0.000  0.00  0.00     0.001 A 
ATOM     13  C   UNL d   1       2.246  -5.253   0.000  0.00  0.00     0.000 A 
ATOM     14  C   UNL d   1       2.960  -4.839   0.000  0.00  0.00     0.000 A 
ATOM     15  C   UNL d   1       2.960  -4.013   0.000  0.00  0.00     0.000 A 
ATOM     16  C   UNL d   1       3.674  -5.253   0.000  0.00  0.00     0.000 C 
ATOM     17  C   UNL d   1       2.246  -3.599   0.000  0.00  0.00     0.001 A 
ENDBRANCH  10  11
ENDBRANCH   1  10
TORSDOF 3
