REMARK  1 active torsions:
REMARK  status: ('A' for Active; 'I' for Inactive)
REMARK       I    between atoms: N_2  and  C_1 
REMARK    1  A    between atoms: C_4  and  N_2 
ROOT
ATOM      1  C   UNL d   1       1.238  -1.454   0.000  0.00  0.00     0.101 A 
ATOM      2  C   UNL d   1       1.238  -2.279   0.000  0.00  0.00     0.031 A 
ATOM      3  C   UNL d   1       0.517  -2.692   0.000  0.00  0.00     0.059 A 
ATOM      4 CL   UNL d   1       0.517  -3.517   0.000  0.00  0.00    -0.082 Cl
ATOM      5  C   UNL d   1      -0.196  -1.454   0.000  0.00  0.00     0.002 A 
ATOM      6  C   UNL d   1       0.517  -1.042   0.000  0.00  0.00     0.020 A 
ATOM      7  C   UNL d   1      -0.196  -2.279   0.000  0.00  0.00     0.011 A 
ENDROOT
BRANCH   1   8
ATOM      8  N   UNL d   1       1.950  -1.038   0.000  0.00  0.00    -0.056 NA
ATOM      9  C   UNL d   1       2.667  -1.442   0.000  0.00  0.00     0.787 C 
ATOM     10  N   UNL d   1       3.379  -1.029   0.000  0.00  0.00     0.064 N 
ATOM     11  N   UNL d   1       2.667  -2.267   0.000  0.00  0.00     0.064 N 
ENDBRANCH   1   8
TORSDOF 1
