REMARK  2 active torsions:
REMARK  status: ('A' for Active; 'I' for Inactive)
REMARK    1  A    between atoms: C_3  and  C_1 
REMARK       I    between atoms: C_2  and  N_4 
REMARK    2  A    between atoms: N_4  and  C_7 
ROOT
ATOM      1  C   UNL d   1       0.025  -1.129   0.000  0.00  0.00     0.073 A 
ATOM      2  C   UNL d   1       0.742  -0.717   0.000  0.00  0.00     0.024 A 
ATOM      3  C   UNL d   1       0.742   0.108   0.000  0.00  0.00     0.100 A 
ATOM      4  C   UNL d   1      -0.688  -0.717   0.000  0.00  0.00     0.004 A 
ATOM      5  C   UNL d   1      -0.688   0.108   0.000  0.00  0.00     0.002 A 
ATOM      6  C   UNL d   1       0.025   0.521   0.000  0.00  0.00     0.020 A 
ENDROOT
BRANCH   1   7
ATOM      7  C   UNL d   1       0.025  -1.962   0.000  0.00  0.00     0.419 C 
ATOM      8  F   UNL d   1       0.025  -2.712   0.000  0.00  0.00    -0.166 F 
ATOM      9  F   UNL d   1      -0.646  -2.504   0.000  0.00  0.00    -0.166 F 
ATOM     10  F   UNL d   1       0.692  -2.504   0.000  0.00  0.00    -0.166 F 
ENDBRANCH   1   7
BRANCH   3  11
ATOM     11  N   UNL d   1       1.454   0.525   0.000  0.00  0.00    -0.056 NA
ATOM     12  C   UNL d   1       2.167   0.121   0.000  0.00  0.00     0.787 C 
ATOM     13  N   UNL d   1       2.879   0.533   0.000  0.00  0.00     0.064 N 
ATOM     14  N   UNL d   1       2.167  -0.704   0.000  0.00  0.00     0.064 N 
ENDBRANCH   3  11
TORSDOF 2
