REMARK  5 active torsions:
REMARK  status: ('A' for Active; 'I' for Inactive)
REMARK    1  A    between atoms: C_7  and  N_1 
REMARK    2  A    between atoms: C_8  and  N_6 
REMARK    3  A    between atoms: C_15  and  C_7 
REMARK    4  A    between atoms: N_9  and  C_15 
REMARK    5  A    between atoms: O_20  and  C_14 
ROOT
ATOM      1  N   UNL d   1      -1.574  -1.833   0.000  0.00  0.00    -0.300 N 
ATOM      2  N   UNL d   1      -0.146  -2.660   0.000  0.00  0.00    -0.299 N 
ATOM      3  C   UNL d   1      -1.574  -2.660   0.000  0.00  0.00     0.100 A 
ATOM      4  C   UNL d   1      -0.860  -1.420   0.000  0.00  0.00     0.100 A 
ATOM      5  C   UNL d   1      -0.860  -3.073   0.000  0.00  0.00     0.100 A 
ATOM      6  C   UNL d   1      -0.146  -1.833   0.000  0.00  0.00     0.100 A 
ENDROOT
BRANCH   2   7
ATOM      7  C   UNL d   1       0.568  -3.073   0.000  0.00  0.00     0.100 C 
BRANCH   7   8
ATOM      8  C   UNL d   1       0.568  -3.900   0.000  0.00  0.00     0.105 C 
BRANCH   8   9
ATOM      9  N   UNL d   1       1.282  -4.321   0.000  0.00  0.00    -0.239 N 
ATOM     10  C   UNL d   1       1.369  -5.140   0.000  0.00  0.00     0.267 A 
ATOM     11  C   UNL d   1       2.179  -5.311   0.000  0.00  0.00     0.061 A 
ATOM     12  O   UNL d   1       0.756  -5.691   0.000  0.00  0.00    -0.267 OA
ATOM     13  C   UNL d   1       2.584  -6.025   0.000  0.00  0.00     0.005 A 
ATOM     14  C   UNL d   1       2.593  -4.597   0.000  0.00  0.00     0.061 A 
ATOM     15  C   UNL d   1       3.411  -6.025   0.000  0.00  0.00     0.000 A 
ATOM     16  C   UNL d   1       3.825  -5.303   0.000  0.00  0.00     0.000 A 
ATOM     17  C   UNL d   1       3.411  -4.597   0.000  0.00  0.00     0.005 A 
ATOM     18  C   UNL d   1       2.042  -3.983   0.000  0.00  0.00     0.267 A 
ATOM     19  O   UNL d   1       2.217  -3.173   0.000  0.00  0.00    -0.267 OA
ENDBRANCH   8   9
ENDBRANCH   7   8
ENDBRANCH   2   7
BRANCH   1  20
ATOM     20  C   UNL d   1      -2.292  -1.420   0.000  0.00  0.00     0.086 A 
ATOM     21  C   UNL d   1      -2.292  -0.593   0.000  0.00  0.00     0.110 A 
ATOM     22  C   UNL d   1      -3.014  -0.180   0.000  0.00  0.00     0.026 A 
ATOM     23  C   UNL d   1      -3.728  -0.593   0.000  0.00  0.00     0.002 A 
ATOM     24  C   UNL d   1      -3.728  -1.420   0.000  0.00  0.00     0.002 A 
ATOM     25  C   UNL d   1      -3.014  -1.833   0.000  0.00  0.00     0.019 A 
BRANCH  21  26
ATOM     26  O   UNL d   1      -1.587  -0.167   0.000  0.00  0.00    -0.327 OA
ATOM     27  C   UNL d   1      -1.587   0.660   0.000  0.00  0.00     0.181 C 
ENDBRANCH  21  26
ENDBRANCH   1  20
TORSDOF 5
