REMARK  1 active torsions:
REMARK  status: ('A' for Active; 'I' for Inactive)
REMARK       I    between atoms: N_2  and  C_1 
REMARK    1  A    between atoms: C_5  and  N_2 
ROOT
ATOM      1  C   UNL d   1       0.768  -1.081   0.000  0.00  0.00     0.100 A 
ATOM      2  C   UNL d   1      -0.660  -1.908   0.000  0.00  0.00     0.000 A 
ATOM      3  C   UNL d   1       0.768  -1.908   0.000  0.00  0.00     0.020 A 
ATOM      4  C   UNL d   1       0.054  -0.668   0.000  0.00  0.00     0.020 A 
ATOM      5  C   UNL d   1       0.054  -2.321   0.000  0.00  0.00     0.002 A 
ATOM      6  C   UNL d   1      -0.660  -1.081   0.000  0.00  0.00     0.002 A 
ATOM      7  C   UNL d   1      -1.378  -2.321   0.000  0.00  0.00     0.000 C 
ENDROOT
BRANCH   1   8
ATOM      8  N   UNL d   1       1.482  -0.664   0.000  0.00  0.00    -0.056 NA
ATOM      9  C   UNL d   1       2.196  -1.069   0.000  0.00  0.00     0.787 C 
ATOM     10  N   UNL d   1       2.918  -0.656   0.000  0.00  0.00     0.064 N 
ATOM     11  N   UNL d   1       2.196  -1.896   0.000  0.00  0.00     0.064 N 
ENDBRANCH   1   8
TORSDOF 1
