REMARK  1 active torsions:
REMARK  status: ('A' for Active; 'I' for Inactive)
REMARK    1  A    between atoms: C_6  and  CA_1 
ROOT
ATOM      1  CA  UNL d   1       3.677  -1.412   0.000  0.00  0.00     0.147 A 
ATOM      2  N   UNL d   1       3.015  -0.929   0.000  0.00  0.00    -0.237 NA
ATOM      3  C   UNL d   1       3.427  -2.199   0.000  0.00  0.00     0.052 A 
ATOM      4  C   UNL d   1       2.349  -1.416   0.000  0.00  0.00     0.106 A 
ATOM      5  C   UNL d   1       2.603  -2.199   0.000  0.00  0.00     0.119 A 
ATOM      6  C   UNL d   1       1.524  -1.416   0.000  0.00  0.00     0.048 A 
ATOM      7  O   UNL d   1       1.936  -2.686   0.000  0.00  0.00    -0.303 OA
ATOM      8  C   UNL d   1       1.266  -2.203   0.000  0.00  0.00     0.124 A 
ENDROOT
BRANCH   1   9
ATOM      9  C   UNL d   1       4.464  -1.154   0.000  0.00  0.00     0.230 C 
ATOM     10  O   UNL d   1       4.635  -0.350   0.000  0.00  0.00    -0.643 OA
ATOM     11  OXT UNL d   1       5.076  -1.703   0.000  0.00  0.00    -0.643 OA
ENDBRANCH   1   9
TORSDOF 1
