REMARK  1 active torsions:
REMARK  status: ('A' for Active; 'I' for Inactive)
REMARK    1  A    between atoms: C_9  and  C_2 
ROOT
ATOM      1  N   UNL d   1       6.890  -8.073   0.000  0.00  0.00    -0.204 NA
ATOM      2  C   UNL d   1       6.173  -8.485   0.000  0.00  0.00     0.107 A 
ATOM      3  C   UNL d   1       6.890  -7.240   0.000  0.00  0.00     0.304 A 
ATOM      4  C   UNL d   1       5.453  -9.722   0.000  0.00  0.00     0.020 A 
ATOM      5  O   UNL d   1       5.453  -7.240   0.000  0.00  0.00    -0.299 OA
ATOM      6  C   UNL d   1       6.173  -9.302   0.000  0.00  0.00     0.023 A 
ATOM      7  C   UNL d   1       5.453  -8.073   0.000  0.00  0.00     0.118 A 
ATOM      8  O   UNL d   1       7.602  -6.827   0.000  0.00  0.00    -0.263 OA
ATOM      9  C   UNL d   1       4.740  -9.310   0.000  0.00  0.00     0.004 A 
ATOM     10  C   UNL d   1       6.173  -6.827   0.000  0.00  0.00     0.185 A 
ATOM     11  C   UNL d   1       4.740  -8.489   0.000  0.00  0.00     0.026 A 
ENDROOT
BRANCH   4  12
ATOM     12  C   UNL d   1       5.461 -10.547   0.000  0.00  0.00     0.090 A 
ATOM     13  N   UNL d   1       4.790 -11.026   0.000  0.00  0.00    -0.219 NA
ATOM     14  C   UNL d   1       5.049 -11.813   0.000  0.00  0.00     0.215 A 
ATOM     15  S   UNL d   1       5.873 -11.813   0.000  0.00  0.00    -0.045 SA
ATOM     16  N   UNL d   1       4.561 -12.484   0.000  0.00  0.00    -0.120 N 
ATOM     17  C   UNL d   1       6.128 -11.026   0.000  0.00  0.00     0.058 A 
ENDBRANCH   4  12
TORSDOF 1
