REMARK  1 active torsions:
REMARK  status: ('A' for Active; 'I' for Inactive)
REMARK       I    between atoms: N_4  and  C_1 
REMARK    1  A    between atoms: C_9  and  N_4 
ROOT
ATOM      1  C   UNL d   1       3.742  -2.788   0.000  0.00  0.00     0.121 A 
ATOM      2  C   UNL d   1       4.454  -2.375   0.000  0.00  0.00     0.046 A 
ATOM      3  C   UNL d   1       3.029  -2.375   0.000  0.00  0.00     0.119 A 
ATOM      4  O   UNL d   1       3.567  -3.592   0.000  0.00  0.00    -0.299 OA
ATOM      5  O   UNL d   1       2.413  -2.929   0.000  0.00  0.00    -0.300 OA
ATOM      6  C   UNL d   1       4.454  -1.542   0.000  0.00  0.00     0.102 A 
ATOM      7  C   UNL d   1       2.742  -3.675   0.000  0.00  0.00     0.304 A 
ATOM      8  C   UNL d   1       3.029  -1.550   0.000  0.00  0.00     0.028 A 
ATOM      9  C   UNL d   1       3.742  -1.129   0.000  0.00  0.00     0.022 A 
ENDROOT
BRANCH   6  10
ATOM     10  N   UNL d   1       5.179  -1.125   0.000  0.00  0.00    -0.056 NA
ATOM     11  C   UNL d   1       5.900  -1.538   0.000  0.00  0.00     0.787 C 
ATOM     12  N   UNL d   1       6.612  -1.125   0.000  0.00  0.00     0.064 N 
ATOM     13  N   UNL d   1       5.904  -2.362   0.000  0.00  0.00     0.064 N 
ENDBRANCH   6  10
TORSDOF 1
