REMARK  2 active torsions:
REMARK  status: ('A' for Active; 'I' for Inactive)
REMARK    1  A    between atoms: C_3  and  C_1 
REMARK       I    between atoms: C_2  and  N_4 
REMARK    2  A    between atoms: N_4  and  C_12 
ROOT
ATOM      1  C   UNL d   1       0.154  -1.845   0.000  0.00  0.00     0.072 A 
ATOM      2  C   UNL d   1       0.869  -2.259   0.000  0.00  0.00     0.005 A 
ATOM      3  C   UNL d   1       0.154  -1.019   0.000  0.00  0.00     0.005 A 
ATOM      4  C   UNL d   1       1.583  -1.019   0.000  0.00  0.00     0.100 A 
ATOM      5  C   UNL d   1       1.583  -1.845   0.000  0.00  0.00     0.020 A 
ATOM      6  C   UNL d   1       0.869  -0.606   0.000  0.00  0.00     0.020 A 
ENDROOT
BRANCH   1   7
ATOM      7  C   UNL d   1      -0.564  -2.259   0.000  0.00  0.00     0.419 C 
ATOM      8  F   UNL d   1      -1.215  -2.635   0.000  0.00  0.00    -0.166 F 
ATOM      9  F   UNL d   1      -1.374  -1.954   0.000  0.00  0.00    -0.166 F 
ATOM     10  F   UNL d   1      -0.702  -3.111   0.000  0.00  0.00    -0.166 F 
ENDBRANCH   1   7
BRANCH   4  11
ATOM     11  N   UNL d   1       2.296  -0.601   0.000  0.00  0.00    -0.056 NA
ATOM     12  C   UNL d   1       3.019  -1.006   0.000  0.00  0.00     0.787 C 
ATOM     13  N   UNL d   1       3.733  -0.593   0.000  0.00  0.00     0.064 N 
ATOM     14  N   UNL d   1       3.019  -1.833   0.000  0.00  0.00     0.064 N 
ENDBRANCH   4  11
TORSDOF 2
