REMARK  3 active torsions:
REMARK  status: ('A' for Active; 'I' for Inactive)
REMARK    1  A    between atoms: S_6  and  C_2 
REMARK    2  A    between atoms: C_8  and  S_6 
REMARK    3  A    between atoms: C_9  and  C_8 
ROOT
ATOM      1  S   UNL d   1       4.548  -8.749   0.000  0.00  0.00    -0.048 SA
ENDROOT
BRANCH   1   2
ATOM      2  C   UNL d   1       5.035  -9.424   0.000  0.00  0.00     0.203 A 
ATOM      3  N   UNL d   1       5.859  -9.424   0.000  0.00  0.00    -0.193 NA
ATOM      4  C   UNL d   1       6.113 -10.211   0.000  0.00  0.00     0.234 A 
ATOM      5  S   UNL d   1       5.447 -10.694   0.000  0.00  0.00     0.056 SA
ATOM      6  N   UNL d   1       6.896 -10.461   0.000  0.00  0.00    -0.118 N 
ATOM      7  N   UNL d   1       4.777 -10.211   0.000  0.00  0.00    -0.181 NA
ENDBRANCH   1   2
BRANCH   1   8
ATOM      8  C   UNL d   1       3.727  -8.837   0.000  0.00  0.00     0.038 C 
BRANCH   8   9
ATOM      9  C   UNL d   1       3.240  -8.175   0.000  0.00  0.00     0.007 A 
ATOM     10  C   UNL d   1       3.586  -7.421   0.000  0.00  0.00     0.001 A 
ATOM     11  C   UNL d   1       3.098  -6.750   0.000  0.00  0.00     0.000 A 
ATOM     12  C   UNL d   1       2.278  -6.838   0.000  0.00  0.00     0.000 A 
ATOM     13  C   UNL d   1       1.941  -7.600   0.000  0.00  0.00     0.000 A 
ATOM     14  C   UNL d   1       2.428  -8.262   0.000  0.00  0.00     0.001 A 
ENDBRANCH   8   9
ENDBRANCH   1   8
TORSDOF 3
