REMARK  2 active torsions:
REMARK  status: ('A' for Active; 'I' for Inactive)
REMARK       I    between atoms: N_2  and  C_1 
REMARK    1  A    between atoms: C_4  and  N_2 
REMARK    2  A    between atoms: O_8  and  C_7 
ROOT
ATOM      1  C   UNL d   1       1.269  -1.207   0.000  0.00  0.00     0.102 A 
ATOM      2  C   UNL d   1       1.269  -2.033   0.000  0.00  0.00     0.044 A 
ATOM      3  C   UNL d   1       0.555  -2.447   0.000  0.00  0.00     0.096 A 
ATOM      4  C   UNL d   1      -0.159  -1.207   0.000  0.00  0.00     0.004 A 
ATOM      5  C   UNL d   1       0.555  -0.793   0.000  0.00  0.00     0.020 A 
ATOM      6  C   UNL d   1      -0.159  -2.033   0.000  0.00  0.00     0.024 A 
ENDROOT
BRANCH   1   7
ATOM      7  N   UNL d   1       1.983  -0.789   0.000  0.00  0.00    -0.056 NA
ATOM      8  C   UNL d   1       2.706  -1.194   0.000  0.00  0.00     0.787 C 
ATOM      9  N   UNL d   1       3.420  -0.781   0.000  0.00  0.00     0.064 N 
ATOM     10  N   UNL d   1       2.706  -2.021   0.000  0.00  0.00     0.064 N 
ENDBRANCH   1   7
BRANCH   3  11
ATOM     11  O   UNL d   1       0.555  -3.273   0.000  0.00  0.00    -0.328 OA
ATOM     12  C   UNL d   1       1.269  -3.687   0.000  0.00  0.00     0.181 C 
ENDBRANCH   3  11
TORSDOF 2
