REMARK  1 active torsions:
REMARK  status: ('A' for Active; 'I' for Inactive)
REMARK       I    between atoms: N_2  and  C_1 
REMARK    1  A    between atoms: C_5  and  N_2 
ROOT
ATOM      1  C   UNL d   1       3.487  -1.267   0.000  0.00  0.00     0.100 A 
ATOM      2  C   UNL d   1       2.054  -2.092   0.000  0.00  0.00     0.058 A 
ATOM      3 CL   UNL d   1       1.342  -2.504   0.000  0.00  0.00    -0.082 Cl
ATOM      4  C   UNL d   1       2.767  -0.854   0.000  0.00  0.00     0.021 A 
ATOM      5  C   UNL d   1       3.487  -2.092   0.000  0.00  0.00     0.021 A 
ATOM      6  C   UNL d   1       2.054  -1.267   0.000  0.00  0.00     0.013 A 
ATOM      7  C   UNL d   1       2.767  -2.504   0.000  0.00  0.00     0.013 A 
ENDROOT
BRANCH   1   8
ATOM      8  N   UNL d   1       4.200  -0.850   0.000  0.00  0.00    -0.056 NA
ATOM      9  C   UNL d   1       4.917  -1.254   0.000  0.00  0.00     0.787 C 
ATOM     10  N   UNL d   1       5.629  -0.842   0.000  0.00  0.00     0.064 N 
ATOM     11  N   UNL d   1       4.917  -2.079   0.000  0.00  0.00     0.064 N 
ENDBRANCH   1   8
TORSDOF 1
