REMARK  0 active torsions:
REMARK  status: ('A' for Active; 'I' for Inactive)
ROOT
ATOM      1  N   UNL d   1       1.528  -0.229   0.000  0.00  0.00    -0.219 NA
ATOM      2  C   UNL d   1       1.777  -1.016   0.000  0.00  0.00     0.215 A 
ATOM      3  S   UNL d   1       1.115  -1.498   0.000  0.00  0.00    -0.045 SA
ATOM      4  C   UNL d   1       0.703  -0.229   0.000  0.00  0.00     0.090 A 
ATOM      5  C   UNL d   1       0.441  -1.016   0.000  0.00  0.00     0.050 A 
ATOM      6  N   UNL d   1       2.564  -1.274   0.000  0.00  0.00    -0.120 N 
ATOM      7  C   UNL d   1       0.216   0.437   0.000  0.00  0.00     0.021 C 
ATOM      8  C   UNL d   1      -0.337  -1.274   0.000  0.00  0.00     0.009 C 
ENDROOT
TORSDOF 0
