REMARK  2 active torsions:
REMARK  status: ('A' for Active; 'I' for Inactive)
REMARK    1  A    between atoms: C_10  and  N_1 
REMARK    2  A    between atoms: C_6  and  C_7 
ROOT
ATOM      1  N   UNL d   1       6.929  -5.838   0.000  0.00  0.00    -0.288 N 
ATOM      2  C   UNL d   1       7.417  -5.167   0.000  0.00  0.00     0.183 A 
ATOM      3  N   UNL d   1       6.929  -4.492   0.000  0.00  0.00    -0.224 NA
ATOM      4  C   UNL d   1       6.142  -5.579   0.000  0.00  0.00     0.083 A 
ATOM      5  C   UNL d   1       6.142  -4.754   0.000  0.00  0.00     0.099 A 
ATOM      6  C   UNL d   1       4.713  -4.754   0.000  0.00  0.00     0.066 A 
ATOM      7  C   UNL d   1       5.425  -4.342   0.000  0.00  0.00     0.027 A 
ATOM      8  C   UNL d   1       5.425  -5.992   0.000  0.00  0.00     0.019 A 
ATOM      9  C   UNL d   1       4.713  -5.579   0.000  0.00  0.00     0.008 A 
ENDROOT
BRANCH   1  10
ATOM     10  C   UNL d   1       7.179  -6.617   0.000  0.00  0.00     0.066 A 
ATOM     11  C   UNL d   1       7.987  -6.792   0.000  0.00  0.00     0.018 A 
ATOM     12  C   UNL d   1       8.242  -7.567   0.000  0.00  0.00     0.002 A 
ATOM     13  C   UNL d   1       7.692  -8.192   0.000  0.00  0.00     0.000 A 
ATOM     14  C   UNL d   1       6.888  -8.017   0.000  0.00  0.00     0.002 A 
ATOM     15  C   UNL d   1       6.629  -7.229   0.000  0.00  0.00     0.018 A 
ENDBRANCH   1  10
BRANCH   6  16
ATOM     16  C   UNL d   1       4.000  -4.342   0.000  0.00  0.00     0.211 C 
ATOM     17  O   UNL d   1       4.000  -3.517   0.000  0.00  0.00    -0.644 OA
ATOM     18  O   UNL d   1       3.279  -4.754   0.000  0.00  0.00    -0.644 OA
ENDBRANCH   6  16
TORSDOF 2
