REMARK  3 active torsions:
REMARK  status: ('A' for Active; 'I' for Inactive)
REMARK       I    between atoms: N_4  and  C_1 
REMARK    1  A    between atoms: O_11  and  C_3 
REMARK    2  A    between atoms: C_6  and  N_4 
REMARK    3  A    between atoms: O_12  and  C_7 
ROOT
ATOM      1  C   UNL d   1       6.660  -7.215   0.000  0.00  0.00     0.046 A 
ATOM      2  C   UNL d   1       5.948  -7.628   0.000  0.00  0.00     0.118 A 
ATOM      3  C   UNL d   1       6.660  -6.387   0.000  0.00  0.00     0.102 A 
ATOM      4  C   UNL d   1       5.232  -7.215   0.000  0.00  0.00     0.116 A 
ATOM      5  C   UNL d   1       5.232  -6.387   0.000  0.00  0.00     0.028 A 
ATOM      6  C   UNL d   1       5.948  -5.977   0.000  0.00  0.00     0.022 A 
ENDROOT
BRANCH   3   7
ATOM      7  N   UNL d   1       7.376  -5.973   0.000  0.00  0.00    -0.056 NA
ATOM      8  C   UNL d   1       8.088  -6.374   0.000  0.00  0.00     0.787 C 
ATOM      9  N   UNL d   1       8.796  -5.965   0.000  0.00  0.00     0.064 N 
ATOM     10  N   UNL d   1       8.088  -7.202   0.000  0.00  0.00     0.064 N 
ENDBRANCH   3   7
BRANCH   2  11
ATOM     11  O   UNL d   1       5.948  -8.448   0.000  0.00  0.00    -0.326 OA
ATOM     12  C   UNL d   1       6.660  -8.858   0.000  0.00  0.00     0.181 C 
ENDBRANCH   2  11
BRANCH   4  13
ATOM     13  O   UNL d   1       4.524  -7.624   0.000  0.00  0.00    -0.326 OA
ATOM     14  C   UNL d   1       4.524  -8.448   0.000  0.00  0.00     0.181 C 
ENDBRANCH   4  13
TORSDOF 3
