REMARK  2 active torsions:
REMARK  status: ('A' for Active; 'I' for Inactive)
REMARK    1  A    between atoms: C_2  and  CA_1 
REMARK    2  A    between atoms: C_3  and  CA_1 
ROOT
ATOM      1  C   UNL d   1       5.175  -3.217   0.000  0.00  0.00     0.025 A 
ATOM      2  C   UNL d   1       4.454  -2.804   0.000  0.00  0.00     0.002 A 
ATOM      3  C   UNL d   1       5.175  -4.042   0.000  0.00  0.00     0.002 A 
ATOM      4  C   UNL d   1       4.454  -1.979   0.000  0.00  0.00     0.000 C 
ATOM      5  C   UNL d   1       3.742  -3.217   0.000  0.00  0.00     0.000 A 
ATOM      6  C   UNL d   1       4.454  -4.454   0.000  0.00  0.00     0.000 A 
ATOM      7  C   UNL d   1       3.742  -4.042   0.000  0.00  0.00     0.000 A 
ENDROOT
BRANCH   1   8
ATOM      8  CA  UNL d   1       5.888  -2.800   0.000  0.00  0.00     0.167 C 
ATOM      9  N   UNL d   1       6.604  -3.204   0.000  0.00  0.00    -0.142 N 
BRANCH   8  10
ATOM     10  C   UNL d   1       5.879  -1.975   0.000  0.00  0.00     0.231 C 
ATOM     11  O   UNL d   1       5.167  -1.562   0.000  0.00  0.00    -0.643 OA
ATOM     12  OXT UNL d   1       6.592  -1.554   0.000  0.00  0.00    -0.643 OA
ENDBRANCH   8  10
ENDBRANCH   1   8
TORSDOF 2
