REMARK  2 active torsions:
REMARK  status: ('A' for Active; 'I' for Inactive)
REMARK    1  A    between atoms: CA_2  and  C_1 
REMARK    2  A    between atoms: C_3  and  CA_2 
ROOT
ATOM      1  C   UNL d   1       0.100   0.008   0.000  0.00  0.00     0.053 A 
ATOM      2  C   UNL d   1      -0.621   0.421   0.000  0.00  0.00     0.142 A 
ATOM      3  F   UNL d   1      -0.621   1.246   0.000  0.00  0.00    -0.204 F 
ATOM      4  C   UNL d   1       0.100  -0.825   0.000  0.00  0.00     0.004 A 
ATOM      5  C   UNL d   1      -1.333   0.000   0.000  0.00  0.00     0.030 A 
ATOM      6  C   UNL d   1      -0.621  -1.238   0.000  0.00  0.00     0.000 A 
ATOM      7  C   UNL d   1      -1.333  -0.825   0.000  0.00  0.00     0.002 A 
ENDROOT
BRANCH   1   8
ATOM      8  CA  UNL d   1       0.812   0.421   0.000  0.00  0.00     0.169 C 
ATOM      9  N   UNL d   1       1.529   0.013   0.000  0.00  0.00    -0.142 N 
BRANCH   8  10
ATOM     10  C   UNL d   1       0.804   1.246   0.000  0.00  0.00     0.231 C 
ATOM     11  O   UNL d   1       0.092   1.658   0.000  0.00  0.00    -0.643 OA
ATOM     12  OXT UNL d   1       1.517   1.663   0.000  0.00  0.00    -0.643 OA
ENDBRANCH   8  10
ENDBRANCH   1   8
TORSDOF 2
