REMARK  3 active torsions:
REMARK  status: ('A' for Active; 'I' for Inactive)
REMARK    1  A    between atoms: C_8  and  N_2 
REMARK    2  A    between atoms: C_6  and  C_3 
REMARK    3  A    between atoms: C_7  and  C_4 
ROOT
ATOM      1  N   UNL d   1       5.547  -2.678   0.000  0.00  0.00    -0.159 NA
ATOM      2  N   UNL d   1       5.290  -3.470   0.000  0.00  0.00    -0.234 N 
ATOM      3  C   UNL d   1       6.355  -2.678   0.000  0.00  0.00     0.167 A 
ATOM      4  C   UNL d   1       5.949  -3.946   0.000  0.00  0.00     0.062 A 
ATOM      5  C   UNL d   1       6.616  -3.462   0.000  0.00  0.00     0.042 A 
ENDROOT
BRANCH   2   6
ATOM      6  C   UNL d   1       4.494  -3.685   0.000  0.00  0.00     0.083 A 
ATOM      7  C   UNL d   1       3.909  -3.113   0.000  0.00  0.00     0.019 A 
ATOM      8  C   UNL d   1       3.122  -3.333   0.000  0.00  0.00     0.002 A 
ATOM      9  C   UNL d   1       2.914  -4.121   0.000  0.00  0.00     0.000 A 
ATOM     10  C   UNL d   1       3.499  -4.693   0.000  0.00  0.00     0.002 A 
ATOM     11  C   UNL d   1       4.295  -4.477   0.000  0.00  0.00     0.019 A 
ENDBRANCH   2   6
BRANCH   4  12
ATOM     12  C   UNL d   1       5.961  -4.780   0.000  0.00  0.00     0.036 C 
ATOM     13  C   UNL d   1       5.974  -5.613   0.000  0.00  0.00     0.006 C 
ATOM     14  C   UNL d   1       6.795  -4.767   0.000  0.00  0.00     0.006 C 
ATOM     15  C   UNL d   1       5.128  -4.788   0.000  0.00  0.00     0.006 C 
ENDBRANCH   4  12
BRANCH   3  16
ATOM     16  C   UNL d   1       6.840  -2.006   0.000  0.00  0.00     0.231 C 
ATOM     17  O   UNL d   1       7.661  -2.089   0.000  0.00  0.00    -0.643 OA
ATOM     18  O   UNL d   1       6.496  -1.260   0.000  0.00  0.00    -0.643 OA
ENDBRANCH   3  16
TORSDOF 3
