REMARK  1 active torsions:
REMARK  status: ('A' for Active; 'I' for Inactive)
REMARK    1  A    between atoms: C_2  and  C_3 
ROOT
ATOM      1  C   UNL d   1       2.710  -0.931   0.000  0.00  0.00     0.002 A 
ATOM      2  C   UNL d   1       3.424  -1.345   0.000  0.00  0.00     0.000 A 
ATOM      3  C   UNL d   1       1.996  -1.345   0.000  0.00  0.00     0.000 A 
ATOM      4  C   UNL d   1       3.424  -2.171   0.000  0.00  0.00     0.000 A 
ATOM      5  C   UNL d   1       1.996  -2.171   0.000  0.00  0.00     0.000 A 
ATOM      6  C   UNL d   1       2.710  -2.584   0.000  0.00  0.00     0.000 A 
ENDROOT
BRANCH   1   7
ATOM      7  C   UNL d   1       2.706  -0.104   0.000  0.00  0.00     0.021 A 
ATOM      8  C   UNL d   1       3.369   0.384   0.000  0.00  0.00     0.099 A 
ATOM      9  N   UNL d   1       3.111   1.165   0.000  0.00  0.00    -0.242 NA
ATOM     10  C   UNL d   1       2.284   1.161   0.000  0.00  0.00     0.099 A 
ATOM     11  C   UNL d   1       2.033   0.376   0.000  0.00  0.00     0.022 A 
ENDBRANCH   1   7
TORSDOF 1
