REMARK  0 active torsions:
REMARK  status: ('A' for Active; 'I' for Inactive)
ROOT
ATOM      1  C   UNL d   1       5.091   0.286   0.000  0.00  0.00     0.267 A 
ATOM      2  N   UNL d   1       4.301   0.157   0.000  0.00  0.00    -0.270 N 
ATOM      3  C   UNL d   1       5.580  -0.190   0.000  0.00  0.00     0.081 A 
ATOM      4  C   UNL d   1       5.580  -1.010   0.000  0.00  0.00     0.105 A 
ATOM      5  O   UNL d   1       5.071  -1.502   0.000  0.00  0.00    -0.305 OA
ATOM      6  C   UNL d   1       3.928  -0.588   0.000  0.00  0.00     0.090 A 
ATOM      7  C   UNL d   1       4.284  -1.358   0.000  0.00  0.00     0.116 A 
ATOM      8  C   UNL d   1       6.287   0.219   0.000  0.00  0.00     0.028 A 
ATOM      9  O   UNL d   1       5.340   1.068   0.000  0.00  0.00    -0.267 OA
ATOM     10  C   UNL d   1       6.287  -1.420   0.000  0.00  0.00     0.026 A 
ATOM     11  C   UNL d   1       7.003  -0.190   0.000  0.00  0.00     0.103 A 
ATOM     12  C   UNL d   1       3.816   0.815   0.000  0.00  0.00     0.102 C 
ATOM     13  N   UNL d   1       7.711   0.224   0.000  0.00  0.00    -0.148 N 
ATOM     14  C   UNL d   1       7.003  -1.010   0.000  0.00  0.00     0.023 A 
ATOM     15  C   UNL d   1       3.084  -0.513   0.000  0.00  0.00     0.020 A 
ATOM     16  C   UNL d   1       3.800  -2.041   0.000  0.00  0.00     0.026 A 
ATOM     17  C   UNL d   1       2.599  -1.204   0.000  0.00  0.00     0.002 A 
ATOM     18  C   UNL d   1       2.959  -1.974   0.000  0.00  0.00     0.002 A 
ENDROOT
TORSDOF 0
