REMARK  1 active torsions:
REMARK  status: ('A' for Active; 'I' for Inactive)
REMARK    1  A    between atoms: C_2  and  N_1 
ROOT
ATOM      1  C   UNL d   1       6.747  -6.215   0.000  0.00  0.00     0.127 A 
ATOM      2  C   UNL d   1       6.028  -6.626   0.000  0.00  0.00     0.025 A 
ATOM      3  C   UNL d   1       5.317  -6.215   0.000  0.00  0.00     0.021 A 
ATOM      4  N   UNL d   1       3.891  -6.215   0.000  0.00  0.00    -0.242 NA
ATOM      5  C   UNL d   1       5.317  -5.392   0.000  0.00  0.00     0.003 A 
ATOM      6  C   UNL d   1       6.738  -5.387   0.000  0.00  0.00     0.024 A 
ATOM      7  C   UNL d   1       6.028  -4.976   0.000  0.00  0.00     0.002 A 
ATOM      8  C   UNL d   1       4.602  -6.626   0.000  0.00  0.00     0.099 A 
ATOM      9  C   UNL d   1       3.891  -5.392   0.000  0.00  0.00     0.099 A 
ATOM     10  C   UNL d   1       4.602  -4.968   0.000  0.00  0.00     0.021 A 
ENDROOT
BRANCH   1  11
ATOM     11  N   UNL d   1       7.462  -6.626   0.000  0.00  0.00    -0.114 N 
ATOM     12  O   UNL d   1       7.462  -7.449   0.000  0.00  0.00    -0.532 OA
ATOM     13  O   UNL d   1       8.181  -6.215   0.000  0.00  0.00    -0.532 OA
ENDBRANCH   1  11
TORSDOF 1
