REMARK  4 active torsions:
REMARK  status: ('A' for Active; 'I' for Inactive)
REMARK    1  A    between atoms: N_2  and  S_1 
REMARK    2  A    between atoms: C_5  and  S_1 
REMARK    3  A    between atoms: C_4  and  C_3 
REMARK    4  A    between atoms: C_12  and  C_3 
ROOT
ATOM      1  N   UNL d   1       1.354  -2.325   0.000  0.00  0.00    -0.230 N 
ATOM      2  C   UNL d   1       1.354  -0.675   0.000  0.00  0.00     0.137 A 
ATOM      3  C   UNL d   1       0.650  -1.092   0.000  0.00  0.00     0.011 A 
ATOM      4  C   UNL d   1       2.067  -1.092   0.000  0.00  0.00     0.011 A 
ATOM      5  C   UNL d   1       2.067  -1.917   0.000  0.00  0.00     0.088 A 
ATOM      6  C   UNL d   1       0.650  -1.917   0.000  0.00  0.00     0.088 A 
ENDROOT
BRANCH   1   7
ATOM      7  S   UNL d   1       1.354  -3.150   0.000  0.00  0.00     0.271 S 
ATOM      8  O   UNL d   1       0.642  -3.562   0.000  0.00  0.00    -0.200 OA
ATOM      9  O   UNL d   1       0.562  -2.929   0.000  0.00  0.00    -0.200 OA
BRANCH   7  10
ATOM     10  C   UNL d   1       2.067  -3.562   0.000  0.00  0.00     0.104 A 
ATOM     11  C   UNL d   1       2.067  -4.379   0.000  0.00  0.00     0.013 A 
ATOM     12  C   UNL d   1       2.779  -4.800   0.000  0.00  0.00     0.001 A 
ATOM     13  C   UNL d   1       3.500  -4.379   0.000  0.00  0.00     0.000 A 
ATOM     14  C   UNL d   1       3.492  -3.554   0.000  0.00  0.00     0.001 A 
ATOM     15  C   UNL d   1       4.213  -4.800   0.000  0.00  0.00     0.000 C 
ATOM     16  C   UNL d   1       2.779  -3.150   0.000  0.00  0.00     0.013 A 
ENDBRANCH   7  10
ENDBRANCH   1   7
BRANCH   2  17
ATOM     17  C   UNL d   1       2.175  -0.529   0.000  0.00  0.00     0.196 C 
ATOM     18  O   UNL d   1       2.462   0.237   0.000  0.00  0.00    -0.647 OA
ATOM     19  O   UNL d   1       2.700  -1.167   0.000  0.00  0.00    -0.647 OA
ENDBRANCH   2  17
BRANCH   2  20
ATOM     20  C   UNL d   1       1.150   0.125   0.000  0.00  0.00    -0.005 A 
ATOM     21  C   UNL d   1       0.354   0.333   0.000  0.00  0.00    -0.003 A 
ATOM     22  C   UNL d   1       0.142   1.133   0.000  0.00  0.00    -0.000 A 
ATOM     23  C   UNL d   1       0.725   1.721   0.000  0.00  0.00    -0.000 A 
ATOM     24  C   UNL d   1       1.525   1.500   0.000  0.00  0.00    -0.000 A 
ATOM     25  C   UNL d   1       1.729   0.708   0.000  0.00  0.00    -0.003 A 
ENDBRANCH   2  20
TORSDOF 4
