REMARK  1 active torsions:
REMARK  status: ('A' for Active; 'I' for Inactive)
REMARK    1  A    between atoms: C_12  and  N_2 
ROOT
ATOM      1  C   UNL d   1       3.930  -0.091   0.000  0.00  0.00     0.267 A 
ATOM      2  N   UNL d   1       3.140  -0.216   0.000  0.00  0.00    -0.271 N 
ATOM      3  C   UNL d   1       4.424  -0.573   0.000  0.00  0.00     0.081 A 
ATOM      4  C   UNL d   1       4.424  -1.396   0.000  0.00  0.00     0.105 A 
ATOM      5  O   UNL d   1       3.913  -1.886   0.000  0.00  0.00    -0.305 OA
ATOM      6  C   UNL d   1       2.767  -0.964   0.000  0.00  0.00     0.090 A 
ATOM      7  C   UNL d   1       3.120  -1.736   0.000  0.00  0.00     0.116 A 
ATOM      8  C   UNL d   1       5.135  -0.154   0.000  0.00  0.00     0.028 A 
ATOM      9  O   UNL d   1       4.179   0.694   0.000  0.00  0.00    -0.267 OA
ATOM     10  C   UNL d   1       5.135  -1.807   0.000  0.00  0.00     0.026 A 
ATOM     11  C   UNL d   1       5.849  -0.565   0.000  0.00  0.00     0.103 A 
ATOM     12  N   UNL d   1       6.559  -0.154   0.000  0.00  0.00    -0.148 N 
ATOM     13  C   UNL d   1       5.849  -1.396   0.000  0.00  0.00     0.023 A 
ATOM     14  C   UNL d   1       1.919  -0.889   0.000  0.00  0.00     0.020 A 
ATOM     15  C   UNL d   1       2.634  -2.430   0.000  0.00  0.00     0.026 A 
ATOM     16  C   UNL d   1       1.433  -1.587   0.000  0.00  0.00     0.002 A 
ATOM     17  C   UNL d   1       1.795  -2.360   0.000  0.00  0.00     0.002 A 
ENDROOT
BRANCH   2  18
ATOM     18  C   UNL d   1       2.655   0.445   0.000  0.00  0.00     0.083 C 
ATOM     19  C   UNL d   1       2.983   1.192   0.000  0.00  0.00     0.021 C 
ENDBRANCH   2  18
TORSDOF 1
