REMARK  0 active torsions:
REMARK  status: ('A' for Active; 'I' for Inactive)
ROOT
ATOM      1  N   UNL d   1       6.003  -7.280   0.000  0.00  0.00    -0.219 NA
ATOM      2  C   UNL d   1       6.261  -8.069   0.000  0.00  0.00     0.215 A 
ATOM      3  S   UNL d   1       5.589  -8.557   0.000  0.00  0.00    -0.045 SA
ATOM      4  C   UNL d   1       5.176  -7.280   0.000  0.00  0.00     0.090 A 
ATOM      5  C   UNL d   1       4.921  -8.065   0.000  0.00  0.00     0.058 A 
ATOM      6  N   UNL d   1       7.042  -8.332   0.000  0.00  0.00    -0.120 N 
ATOM      7  C   UNL d   1       4.700  -6.612   0.000  0.00  0.00     0.021 C 
ENDROOT
TORSDOF 0
