REMARK  9 active torsions:
REMARK  status: ('A' for Active; 'I' for Inactive)
REMARK    1  A    between atoms: N_2  and  C_1 
REMARK       I    between atoms: C_4  and  N_2 
REMARK    2  A    between atoms: C_7  and  C_4 
REMARK    3  A    between atoms: C_8  and  C_5 
REMARK    4  A    between atoms: C_10  and  C_8 
REMARK       I    between atoms: N_12  and  C_10 
REMARK    5  A    between atoms: C_11  and  C_19 
REMARK    6  A    between atoms: C_19  and  N_12 
REMARK    7  A    between atoms: O_23  and  C_17 
REMARK    8  A    between atoms: O_24  and  C_18 
REMARK    9  A    between atoms: O_22  and  C_20 
ROOT
ATOM      1  C   UNL d   1      -4.785   6.449   0.000  0.00  0.00     0.197 A 
ATOM      2  N   UNL d   1      -3.970   6.273   0.000  0.00  0.00    -0.220 NA
ATOM      3  C   UNL d   1      -3.883   5.458   0.000  0.00  0.00     0.095 A 
ATOM      4  S   UNL d   1      -5.187   5.730   0.000  0.00  0.00    -0.046 SA
ATOM      5  C   UNL d   1      -4.635   5.120   0.000  0.00  0.00     0.058 A 
ENDROOT
BRANCH   1   6
ATOM      6  N   UNL d   1      -5.111   7.201   0.000  0.00  0.00    -0.183 NA
ATOM      7  C   UNL d   1      -4.635   7.866   0.000  0.00  0.00     0.281 C 
ATOM      8  O   UNL d   1      -3.808   7.790   0.000  0.00  0.00    -0.265 OA
BRANCH   7   9
ATOM      9  C   UNL d   1      -4.961   8.626   0.000  0.00  0.00     0.062 A 
ATOM     10  C   UNL d   1      -4.484   9.283   0.000  0.00  0.00     0.029 A 
ATOM     11  C   UNL d   1      -4.815  10.035   0.000  0.00  0.00     0.096 A 
ATOM     12  C   UNL d   1      -5.638  10.123   0.000  0.00  0.00     0.048 A 
ATOM     13  C   UNL d   1      -6.110   9.454   0.000  0.00  0.00     0.096 A 
ATOM     14  C   UNL d   1      -5.788   8.702   0.000  0.00  0.00     0.029 A 
BRANCH  11  15
ATOM     15  O   UNL d   1      -4.334  10.700   0.000  0.00  0.00    -0.328 OA
ATOM     16  C   UNL d   1      -4.673  11.460   0.000  0.00  0.00     0.181 C 
ENDBRANCH  11  15
BRANCH  13  17
ATOM     17  O   UNL d   1      -6.938   9.529   0.000  0.00  0.00    -0.328 OA
ATOM     18  C   UNL d   1      -7.414   8.856   0.000  0.00  0.00     0.181 C 
ENDBRANCH  13  17
ENDBRANCH   7   9
ENDBRANCH   1   6
BRANCH   3  19
ATOM     19  C   UNL d   1      -3.168   5.045   0.000  0.00  0.00     0.082 C 
BRANCH  19  20
ATOM     20  C   UNL d   1      -3.168   4.217   0.000  0.00  0.00     0.281 C 
ATOM     21  N   UNL d   1      -3.883   3.812   0.000  0.00  0.00    -0.206 NA
ATOM     22  O   UNL d   1      -2.453   3.812   0.000  0.00  0.00    -0.265 OA
BRANCH  21  23
ATOM     23  C   UNL d   1      -3.883   2.993   0.000  0.00  0.00     0.104 C 
BRANCH  23  24
ATOM     24  C   UNL d   1      -3.168   2.579   0.000  0.00  0.00     0.042 A 
ATOM     25  C   UNL d   1      -3.172   1.751   0.000  0.00  0.00     0.096 A 
ATOM     26  C   UNL d   1      -2.470   1.329   0.000  0.00  0.00     0.024 A 
ATOM     27  C   UNL d   1      -1.751   1.730   0.000  0.00  0.00     0.002 A 
ATOM     28  C   UNL d   1      -1.739   2.554   0.000  0.00  0.00     0.000 A 
ATOM     29  C   UNL d   1      -2.445   2.980   0.000  0.00  0.00     0.004 A 
BRANCH  25  30
ATOM     30  O   UNL d   1      -3.895   1.337   0.000  0.00  0.00    -0.328 OA
ATOM     31  C   UNL d   1      -3.908   0.510   0.000  0.00  0.00     0.181 C 
ENDBRANCH  25  30
ENDBRANCH  23  24
ENDBRANCH  21  23
ENDBRANCH  19  20
ENDBRANCH   3  19
TORSDOF 9
