REMARK  8 active torsions:
REMARK  status: ('A' for Active; 'I' for Inactive)
REMARK    1  A    between atoms: O_18  and  C_5 
REMARK    2  A    between atoms: C_7  and  C_15 
REMARK       I    between atoms: N_14  and  C_7 
REMARK    3  A    between atoms: O_10  and  C_8 
REMARK    4  A    between atoms: O_19  and  C_9 
REMARK    5  A    between atoms: C_15  and  O_10 
REMARK    6  A    between atoms: C_20  and  N_14 
REMARK    7  A    between atoms: C_16  and  C_26 
REMARK    8  A    between atoms: C_26  and  C_20 
ROOT
ATOM      1  C   UNL d   1      -3.165   4.213   0.000  0.00  0.00     0.304 C 
ATOM      2  O   UNL d   1      -2.443   3.808   0.000  0.00  0.00    -0.263 OA
ATOM      3  N   UNL d   1      -3.879   3.808   0.000  0.00  0.00    -0.205 NA
ENDROOT
BRANCH   1   4
ATOM      4  C   UNL d   1      -3.165   5.040   0.000  0.00  0.00     0.185 C 
BRANCH   4   5
ATOM      5  O   UNL d   1      -2.451   5.449   0.000  0.00  0.00    -0.298 OA
BRANCH   5   6
ATOM      6  C   UNL d   1      -2.451   6.267   0.000  0.00  0.00     0.122 A 
ATOM      7  C   UNL d   1      -3.165   6.681   0.000  0.00  0.00     0.117 A 
ATOM      8  O   UNL d   1      -3.954   6.418   0.000  0.00  0.00    -0.330 OA
ATOM      9  C   UNL d   1      -3.165   7.507   0.000  0.00  0.00     0.022 A 
ATOM     10  C   UNL d   1      -4.442   7.090   0.000  0.00  0.00     0.117 A 
ATOM     11  C   UNL d   1      -5.019   6.505   0.000  0.00  0.00     0.035 C 
ATOM     12  C   UNL d   1      -4.843   7.795   0.000  0.00  0.00     0.035 C 
ATOM     13  C   UNL d   1      -3.954   7.758   0.000  0.00  0.00     0.003 A 
ATOM     14  C   UNL d   1      -2.451   7.916   0.000  0.00  0.00     0.002 A 
ATOM     15  C   UNL d   1      -1.749   7.507   0.000  0.00  0.00     0.002 A 
ATOM     16  C   UNL d   1      -1.749   6.681   0.000  0.00  0.00     0.027 A 
ENDBRANCH   5   6
ENDBRANCH   4   5
ENDBRANCH   1   4
BRANCH   3  17
ATOM     17  C   UNL d   1      -3.879   2.990   0.000  0.00  0.00     0.102 C 
BRANCH  17  18
ATOM     18  C   UNL d   1      -4.593   2.576   0.000  0.00  0.00     0.021 C 
BRANCH  18  19
ATOM     19  C   UNL d   1      -4.593   1.749   0.000  0.00  0.00     0.004 A 
ATOM     20  C   UNL d   1      -5.298   1.340   0.000  0.00  0.00     0.026 A 
ATOM     21  C   UNL d   1      -5.307   0.514   0.000  0.00  0.00     0.116 A 
ATOM     22  C   UNL d   1      -4.593   0.100   0.000  0.00  0.00     0.116 A 
ATOM     23  C   UNL d   1      -3.879   0.509   0.000  0.00  0.00     0.026 A 
ATOM     24  C   UNL d   1      -3.866   1.336   0.000  0.00  0.00     0.002 A 
BRANCH  21  25
ATOM     25  O   UNL d   1      -6.012   0.108   0.000  0.00  0.00    -0.326 OA
ATOM     26  C   UNL d   1      -6.017  -0.727   0.000  0.00  0.00     0.181 C 
ENDBRANCH  21  25
BRANCH  22  27
ATOM     27  O   UNL d   1      -4.593  -0.727   0.000  0.00  0.00    -0.326 OA
ATOM     28  C   UNL d   1      -3.879  -1.140   0.000  0.00  0.00     0.181 C 
ENDBRANCH  22  27
ENDBRANCH  18  19
ENDBRANCH  17  18
ENDBRANCH   3  17
TORSDOF 8
