REMARK  3 active torsions:
REMARK  status: ('A' for Active; 'I' for Inactive)
REMARK    1  A    between atoms: C_6  and  C_1 
REMARK    2  A    between atoms: O_9  and  C_6 
REMARK    3  A    between atoms: C_12  and  O_9 
ROOT
ATOM      1  C   UNL d   1       5.028  -7.611   0.000  0.00  0.00     0.182 A 
ATOM      2  C   UNL d   1       4.353  -7.115   0.000  0.00  0.00     0.133 A 
ATOM      3  O   UNL d   1       5.703  -7.123   0.000  0.00  0.00    -0.300 OA
ATOM      4  C   UNL d   1       4.615  -6.328   0.000  0.00  0.00     0.044 A 
ATOM      5  C   UNL d   1       5.449  -6.328   0.000  0.00  0.00     0.102 A 
ATOM      6  N   UNL d   1       3.566  -7.365   0.000  0.00  0.00    -0.146 N 
ATOM      7  C   UNL d   1       4.216  -5.615   0.000  0.00  0.00     0.004 A 
ATOM      8  C   UNL d   1       5.853  -5.615   0.000  0.00  0.00     0.025 A 
ATOM      9  C   UNL d   1       4.624  -4.903   0.000  0.00  0.00     0.000 A 
ATOM     10  C   UNL d   1       5.453  -4.903   0.000  0.00  0.00     0.002 A 
ENDROOT
BRANCH   1  11
ATOM     11  C   UNL d   1       5.028  -8.435   0.000  0.00  0.00     0.325 C 
ATOM     12  O   UNL d   1       4.316  -8.839   0.000  0.00  0.00    -0.257 OA
BRANCH  11  13
ATOM     13  O   UNL d   1       5.740  -8.848   0.000  0.00  0.00    -0.269 OA
BRANCH  13  14
ATOM     14  C   UNL d   1       5.736  -9.673   0.000  0.00  0.00     0.126 C 
ATOM     15  C   UNL d   1       6.448 -10.089   0.000  0.00  0.00     0.029 C 
ENDBRANCH  13  14
ENDBRANCH  11  13
ENDBRANCH   1  11
TORSDOF 3
