REMARK  7 active torsions:
REMARK  status: ('A' for Active; 'I' for Inactive)
REMARK    1  A    between atoms: C_6  and  C_13 
REMARK       I    between atoms: N_12  and  C_6 
REMARK    2  A    between atoms: O_8  and  C_7 
REMARK    3  A    between atoms: C_13  and  O_8 
REMARK    4  A    between atoms: O_14  and  C_10 
REMARK    5  A    between atoms: C_11  and  C_20 
REMARK    6  A    between atoms: C_15  and  N_12 
REMARK    7  A    between atoms: C_20  and  C_15 
ROOT
ATOM      1  C   UNL d   1      -3.165   4.213   0.000  0.00  0.00     0.304 C 
ATOM      2  O   UNL d   1      -2.443   3.808   0.000  0.00  0.00    -0.263 OA
ATOM      3  N   UNL d   1      -3.879   3.808   0.000  0.00  0.00    -0.205 NA
ENDROOT
BRANCH   1   4
ATOM      4  C   UNL d   1      -3.165   5.040   0.000  0.00  0.00     0.185 C 
BRANCH   4   5
ATOM      5  O   UNL d   1      -2.451   5.449   0.000  0.00  0.00    -0.298 OA
BRANCH   5   6
ATOM      6  C   UNL d   1      -2.451   6.267   0.000  0.00  0.00     0.122 A 
ATOM      7  C   UNL d   1      -3.165   6.681   0.000  0.00  0.00     0.117 A 
ATOM      8  O   UNL d   1      -3.954   6.418   0.000  0.00  0.00    -0.330 OA
ATOM      9  C   UNL d   1      -3.165   7.507   0.000  0.00  0.00     0.022 A 
ATOM     10  C   UNL d   1      -4.442   7.090   0.000  0.00  0.00     0.117 A 
ATOM     11  C   UNL d   1      -4.843   7.795   0.000  0.00  0.00     0.035 C 
ATOM     12  C   UNL d   1      -5.019   6.505   0.000  0.00  0.00     0.035 C 
ATOM     13  C   UNL d   1      -3.954   7.758   0.000  0.00  0.00     0.003 A 
ATOM     14  C   UNL d   1      -2.451   7.916   0.000  0.00  0.00     0.002 A 
ATOM     15  C   UNL d   1      -1.749   7.507   0.000  0.00  0.00     0.002 A 
ATOM     16  C   UNL d   1      -1.749   6.681   0.000  0.00  0.00     0.027 A 
ENDBRANCH   5   6
ENDBRANCH   4   5
ENDBRANCH   1   4
BRANCH   3  17
ATOM     17  C   UNL d   1      -3.879   2.990   0.000  0.00  0.00     0.102 C 
BRANCH  17  18
ATOM     18  C   UNL d   1      -4.593   2.568   0.000  0.00  0.00     0.023 C 
BRANCH  18  19
ATOM     19  C   UNL d   1      -4.593   1.749   0.000  0.00  0.00     0.024 A 
ATOM     20  C   UNL d   1      -5.307   1.336   0.000  0.00  0.00     0.094 A 
ATOM     21  C   UNL d   1      -5.294   0.509   0.000  0.00  0.00     0.024 A 
ATOM     22  C   UNL d   1      -4.580   0.096   0.000  0.00  0.00     0.002 A 
ATOM     23  C   UNL d   1      -3.870   0.501   0.000  0.00  0.00     0.000 A 
ATOM     24  C   UNL d   1      -3.866   1.323   0.000  0.00  0.00     0.002 A 
BRANCH  20  25
ATOM     25  O   UNL d   1      -6.012   1.741   0.000  0.00  0.00    -0.328 OA
ATOM     26  C   UNL d   1      -6.718   1.328   0.000  0.00  0.00     0.181 C 
ENDBRANCH  20  25
ENDBRANCH  18  19
ENDBRANCH  17  18
ENDBRANCH   3  17
TORSDOF 7
