REMARK  4 active torsions:
REMARK  status: ('A' for Active; 'I' for Inactive)
REMARK    1  A    between atoms: S_6  and  C_2 
REMARK    2  A    between atoms: C_8  and  C_3 
REMARK    3  A    between atoms: C_10  and  S_6 
REMARK    4  A    between atoms: C_7  and  C_10 
ROOT
ATOM      1  N   UNL d   1      -2.676   1.972   0.000  0.00  0.00    -0.282 N 
ATOM      2  C   UNL d   1      -1.926   1.625   0.000  0.00  0.00     0.180 A 
ATOM      3  C   UNL d   1      -2.579   2.787   0.000  0.00  0.00     0.085 A 
ATOM      4  N   UNL d   1      -1.361   2.232   0.000  0.00  0.00    -0.219 NA
ATOM      5  C   UNL d   1      -1.773   2.954   0.000  0.00  0.00     0.119 A 
ATOM      6  C   UNL d   1      -3.412   1.551   0.000  0.00  0.00     0.101 C 
ENDROOT
BRANCH   3   7
ATOM      7  C   UNL d   1      -3.162   3.370   0.000  0.00  0.00     0.018 A 
ATOM      8  C   UNL d   1      -2.940   4.162   0.000  0.00  0.00     0.002 A 
ATOM      9  C   UNL d   1      -3.523   4.750   0.000  0.00  0.00     0.000 A 
ATOM     10  C   UNL d   1      -4.329   4.528   0.000  0.00  0.00     0.000 A 
ATOM     11  C   UNL d   1      -4.537   3.745   0.000  0.00  0.00     0.000 A 
ATOM     12  C   UNL d   1      -3.954   3.153   0.000  0.00  0.00     0.002 A 
ENDBRANCH   3   7
BRANCH   2  13
ATOM     13  S   UNL d   1      -1.759   0.806   0.000  0.00  0.00    -0.044 SA
BRANCH  13  14
ATOM     14  C   UNL d   1      -2.384   0.259   0.000  0.00  0.00     0.102 C 
BRANCH  14  15
ATOM     15  C   UNL d   1      -2.222  -0.546   0.000  0.00  0.00     0.303 C 
ATOM     16  O   UNL d   1      -2.857  -1.088   0.000  0.00  0.00    -0.263 OA
ATOM     17  N   UNL d   1      -1.444  -0.810   0.000  0.00  0.00    -0.102 N 
ENDBRANCH  14  15
ENDBRANCH  13  14
ENDBRANCH   2  13
TORSDOF 4
