REMARK  4 active torsions:
REMARK  status: ('A' for Active; 'I' for Inactive)
REMARK    1  A    between atoms: N_4  and  C_1 
REMARK    2  A    between atoms: C_11  and  C_3 
REMARK       I    between atoms: C_6  and  N_4 
REMARK    3  A    between atoms: C_8  and  C_6 
REMARK    4  A    between atoms: C_9  and  C_8 
ROOT
ATOM      1  C   UNL d   1       0.279   3.396   0.000  0.00  0.00     0.197 A 
ATOM      2  N   UNL d   1       0.142   4.204   0.000  0.00  0.00    -0.221 NA
ATOM      3  C   UNL d   1       0.875   4.588   0.000  0.00  0.00     0.092 A 
ATOM      4  S   UNL d   1       1.092   3.271   0.000  0.00  0.00    -0.046 SA
ATOM      5  C   UNL d   1       1.467   4.004   0.000  0.00  0.00     0.058 A 
ENDROOT
BRANCH   1   6
ATOM      6  N   UNL d   1      -0.296   2.800   0.000  0.00  0.00    -0.183 NA
ATOM      7  C   UNL d   1      -1.096   3.008   0.000  0.00  0.00     0.281 C 
ATOM      8  O   UNL d   1      -1.312   3.800   0.000  0.00  0.00    -0.265 OA
BRANCH   7   9
ATOM      9  C   UNL d   1      -1.675   2.421   0.000  0.00  0.00     0.069 C 
BRANCH   9  10
ATOM     10  C   UNL d   1      -2.458   2.671   0.000  0.00  0.00     0.034 A 
ATOM     11  S   UNL d   1      -3.125   2.188   0.000  0.00  0.00    -0.086 SA
ATOM     12  C   UNL d   1      -3.796   2.671   0.000  0.00  0.00     0.035 A 
ATOM     13  C   UNL d   1      -3.538   3.458   0.000  0.00  0.00     0.007 A 
ATOM     14  C   UNL d   1      -2.712   3.458   0.000  0.00  0.00     0.007 A 
ENDBRANCH   9  10
ENDBRANCH   7   9
ENDBRANCH   1   6
BRANCH   3  15
ATOM     15  C   UNL d   1       1.004   5.400   0.000  0.00  0.00     0.037 A 
ATOM     16  C   UNL d   1       0.354   5.904   0.000  0.00  0.00     0.100 A 
ATOM     17  N   UNL d   1       0.475   6.717   0.000  0.00  0.00    -0.242 NA
ATOM     18  C   UNL d   1       1.242   7.025   0.000  0.00  0.00     0.099 A 
ATOM     19  C   UNL d   1       1.879   6.513   0.000  0.00  0.00     0.021 A 
ATOM     20  C   UNL d   1       1.767   5.692   0.000  0.00  0.00     0.005 A 
ENDBRANCH   3  15
TORSDOF 4
