REMARK  3 active torsions:
REMARK  status: ('A' for Active; 'I' for Inactive)
REMARK    1  A    between atoms: C_9  and  C_1 
REMARK    2  A    between atoms: C_4  and  C_9 
REMARK       I    between atoms: N_5  and  C_4 
REMARK    3  A    between atoms: C_10  and  N_8 
ROOT
ATOM      1  C   UNL d   1      -1.019   1.660   0.000  0.00  0.00     0.265 C 
ATOM      2  N   UNL d   1      -0.262   1.331   0.000  0.00  0.00    -0.269 N 
ATOM      3  N   UNL d   1       1.261   0.657   0.000  0.00  0.00    -0.299 N 
ATOM      4  C   UNL d   1      -0.175   0.499   0.000  0.00  0.00     0.102 A 
ATOM      5  C   UNL d   1       0.399   1.810   0.000  0.00  0.00     0.102 A 
ATOM      6  C   UNL d   1       1.152   1.473   0.000  0.00  0.00     0.100 A 
ATOM      7  C   UNL d   1       0.578   0.162   0.000  0.00  0.00     0.100 A 
ATOM      8  O   UNL d   1      -1.107   2.479   0.000  0.00  0.00    -0.267 OA
ENDROOT
BRANCH   1   9
ATOM      9  C   UNL d   1      -1.693   1.173   0.000  0.00  0.00     0.063 C 
BRANCH   9  10
ATOM     10  C   UNL d   1      -2.446   1.518   0.000  0.00  0.00     0.024 A 
ATOM     11  C   UNL d   1      -3.153   1.107   0.000  0.00  0.00     0.080 A 
ATOM     12  N   UNL d   1      -3.769   1.660   0.000  0.00  0.00    -0.303 N 
ATOM     13  C   UNL d   1      -4.576   1.498   0.000  0.00  0.00     0.100 C 
ATOM     14  C   UNL d   1      -3.428   2.409   0.000  0.00  0.00     0.064 A 
ATOM     15  C   UNL d   1      -2.617   2.317   0.000  0.00  0.00     0.018 A 
ATOM     16  C   UNL d   1      -3.765   3.166   0.000  0.00  0.00     0.018 A 
ATOM     17  C   UNL d   1      -2.130   2.983   0.000  0.00  0.00     0.002 A 
ATOM     18  C   UNL d   1      -2.459   3.732   0.000  0.00  0.00     0.000 A 
ATOM     19  C   UNL d   1      -3.278   3.827   0.000  0.00  0.00     0.002 A 
ENDBRANCH   9  10
ENDBRANCH   1   9
BRANCH   3  20
ATOM     20  C   UNL d   1       2.001   0.320   0.000  0.00  0.00     0.092 A 
ATOM     21  C   UNL d   1       2.088  -0.503   0.000  0.00  0.00     0.156 A 
ATOM     22  F   UNL d   1       1.423  -0.978   0.000  0.00  0.00    -0.203 F 
ATOM     23  C   UNL d   1       2.846  -0.836   0.000  0.00  0.00     0.031 A 
ATOM     24  C   UNL d   1       3.511  -0.341   0.000  0.00  0.00     0.002 A 
ATOM     25  C   UNL d   1       3.420   0.470   0.000  0.00  0.00     0.002 A 
ATOM     26  C   UNL d   1       2.663   0.799   0.000  0.00  0.00     0.020 A 
ENDBRANCH   3  20
TORSDOF 3
