REMARK  4 active torsions:
REMARK  status: ('A' for Active; 'I' for Inactive)
REMARK    1  A    between atoms: N_3  and  C_1 
REMARK    2  A    between atoms: C_4  and  C_2 
REMARK       I    between atoms: C_6  and  N_3 
REMARK    3  A    between atoms: C_18  and  C_6 
REMARK    4  A    between atoms: C_17  and  C_18 
ROOT
ATOM      1  N   UNL d   1       0.004   3.353   0.000  0.00  0.00    -0.201 NA
ATOM      2  C   UNL d   1      -0.805   3.202   0.000  0.00  0.00     0.280 C 
ATOM      3  O   UNL d   1      -1.354   3.823   0.000  0.00  0.00    -0.265 OA
ENDROOT
BRANCH   2   4
ATOM      4  C   UNL d   1      -1.077   2.414   0.000  0.00  0.00     0.063 C 
BRANCH   4   5
ATOM      5  C   UNL d   1      -1.895   2.247   0.000  0.00  0.00     0.007 A 
ATOM      6  C   UNL d   1      -2.452   2.863   0.000  0.00  0.00     0.026 A 
ATOM      7  C   UNL d   1      -3.265   2.687   0.000  0.00  0.00     0.119 A 
ATOM      8  O   UNL d   1      -3.936   3.177   0.000  0.00  0.00    -0.300 OA
ATOM      9  C   UNL d   1      -3.517   1.907   0.000  0.00  0.00     0.119 A 
ATOM     10  C   UNL d   1      -4.611   2.678   0.000  0.00  0.00     0.304 A 
ATOM     11  O   UNL d   1      -4.338   1.907   0.000  0.00  0.00    -0.300 OA
ATOM     12  C   UNL d   1      -2.963   1.291   0.000  0.00  0.00     0.026 A 
ATOM     13  C   UNL d   1      -2.159   1.467   0.000  0.00  0.00     0.002 A 
ENDBRANCH   4   5
ENDBRANCH   2   4
BRANCH   1  14
ATOM     14  C   UNL d   1       0.277   4.129   0.000  0.00  0.00     0.119 A 
ATOM     15  C   UNL d   1       1.060   4.368   0.000  0.00  0.00     0.084 A 
ATOM     16  C   UNL d   1       1.081   5.185   0.000  0.00  0.00     0.014 A 
ATOM     17  C   UNL d   1       0.302   5.470   0.000  0.00  0.00     0.037 A 
ATOM     18  S   UNL d   1      -0.197   4.803   0.000  0.00  0.00    -0.067 SA
BRANCH  15  19
ATOM     19  C   UNL d   1       1.727   3.881   0.000  0.00  0.00     0.299 C 
ATOM     20  O   UNL d   1       2.490   4.191   0.000  0.00  0.00    -0.264 OA
ATOM     21  N   UNL d   1       1.622   3.064   0.000  0.00  0.00    -0.102 N 
ENDBRANCH  15  19
ENDBRANCH   1  14
TORSDOF 4
