REMARK  6 active torsions:
REMARK  status: ('A' for Active; 'I' for Inactive)
REMARK    1  A    between atoms: N_9  and  C_1 
REMARK    2  A    between atoms: C_4  and  S_13 
REMARK    3  A    between atoms: C_14  and  C_8 
REMARK       I    between atoms: C_12  and  N_9 
REMARK    4  A    between atoms: C_17  and  C_10 
REMARK    5  A    between atoms: C_16  and  C_12 
REMARK    6  A    between atoms: S_13  and  C_16 
ROOT
ATOM      1  S   UNL d   1      -3.023   5.243   0.000  0.00  0.00    -0.043 SA
ENDROOT
BRANCH   1   2
ATOM      2  C   UNL d   1      -3.123   6.068   0.000  0.00  0.00     0.195 A 
ATOM      3  N   UNL d   1      -3.839   6.472   0.000  0.00  0.00    -0.220 NA
ATOM      4  C   UNL d   1      -3.674   7.270   0.000  0.00  0.00     0.103 A 
ATOM      5  C   UNL d   1      -2.862   7.366   0.000  0.00  0.00     0.120 A 
ATOM      6  N   UNL d   1      -2.527   6.623   0.000  0.00  0.00    -0.218 NA
BRANCH   4   7
ATOM      7  C   UNL d   1      -4.261   7.848   0.000  0.00  0.00     0.019 A 
ATOM      8  C   UNL d   1      -5.059   7.628   0.000  0.00  0.00     0.002 A 
ATOM      9  C   UNL d   1      -5.637   8.219   0.000  0.00  0.00     0.000 A 
ATOM     10  C   UNL d   1      -5.417   9.013   0.000  0.00  0.00     0.000 A 
ATOM     11  C   UNL d   1      -4.633   9.224   0.000  0.00  0.00     0.000 A 
ATOM     12  C   UNL d   1      -4.045   8.632   0.000  0.00  0.00     0.002 A 
ENDBRANCH   4   7
ENDBRANCH   1   2
BRANCH   1  13
ATOM     13  C   UNL d   1      -3.688   4.752   0.000  0.00  0.00     0.101 C 
BRANCH  13  14
ATOM     14  C   UNL d   1      -3.600   3.931   0.000  0.00  0.00     0.288 C 
ATOM     15  N   UNL d   1      -4.261   3.435   0.000  0.00  0.00    -0.181 NA
ATOM     16  O   UNL d   1      -2.835   3.600   0.000  0.00  0.00    -0.265 OA
BRANCH  15  17
ATOM     17  C   UNL d   1      -4.169   2.610   0.000  0.00  0.00     0.219 A 
ATOM     18  S   UNL d   1      -3.413   2.280   0.000  0.00  0.00    -0.026 SA
ATOM     19  C   UNL d   1      -3.495   1.454   0.000  0.00  0.00     0.135 A 
ATOM     20  N   UNL d   1      -4.302   1.280   0.000  0.00  0.00    -0.139 NA
ATOM     21  N   UNL d   1      -4.720   1.991   0.000  0.00  0.00    -0.121 NA
BRANCH  19  22
ATOM     22  C   UNL d   1      -2.885   0.903   0.000  0.00  0.00     0.028 C 
ATOM     23  C   UNL d   1      -2.101   1.165   0.000  0.00  0.00     0.002 C 
ENDBRANCH  19  22
ENDBRANCH  15  17
ENDBRANCH  13  14
ENDBRANCH   1  13
TORSDOF 6
