REMARK  7 active torsions:
REMARK  status: ('A' for Active; 'I' for Inactive)
REMARK    1  A    between atoms: N_7  and  C_2 
REMARK    2  A    between atoms: N_9  and  C_3 
REMARK    3  A    between atoms: C_14  and  N_7 
REMARK    4  A    between atoms: C_8  and  C_12 
REMARK    5  A    between atoms: O_19  and  C_8 
REMARK    6  A    between atoms: C_17  and  N_9 
REMARK    7  A    between atoms: C_29  and  O_19 
ROOT
ATOM      1  N   UNL d   1       2.866   0.175   0.000  0.00  0.00    -0.038 NA
ATOM      2  C   UNL d   1       3.591   0.583   0.000  0.00  0.00     0.202 A 
ATOM      3  C   UNL d   1       2.854  -0.654   0.000  0.00  0.00     0.753 A 
ATOM      4  N   UNL d   1       3.575  -1.075   0.000  0.00  0.00    -0.038 NA
ATOM      5  C   UNL d   1       4.300   0.163   0.000  0.00  0.00     0.154 A 
ATOM      6  C   UNL d   1       4.291  -0.667   0.000  0.00  0.00     0.202 A 
ATOM      7  N   UNL d   1       5.012   0.583   0.000  0.00  0.00    -0.236 NA
ATOM      8  N   UNL d   1       5.004  -1.079   0.000  0.00  0.00    -0.222 NA
ATOM      9  C   UNL d   1       5.729   0.158   0.000  0.00  0.00     0.120 A 
ATOM     10  C   UNL d   1       5.729  -0.667   0.000  0.00  0.00     0.121 A 
ENDROOT
BRANCH   3  11
ATOM     11  N   UNL d   1       2.142  -1.054   0.000  0.00  0.00    -0.059 NA
BRANCH  11  12
ATOM     12  C   UNL d   1       2.129  -1.879   0.000  0.00  0.00     0.100 A 
ATOM     13  C   UNL d   1       1.429  -2.287   0.000  0.00  0.00     0.020 A 
ATOM     14  C   UNL d   1       1.417  -3.116   0.000  0.00  0.00     0.007 A 
ATOM     15  C   UNL d   1       2.129  -3.537   0.000  0.00  0.00     0.064 A 
ATOM     16  C   UNL d   1       2.850  -3.129   0.000  0.00  0.00     0.007 A 
ATOM     17  C   UNL d   1       2.854  -2.304   0.000  0.00  0.00     0.020 A 
BRANCH  15  18
ATOM     18  C   UNL d   1       2.116  -4.354   0.000  0.00  0.00     0.300 C 
ATOM     19  O   UNL d   1       2.829  -4.779   0.000  0.00  0.00    -0.259 OA
BRANCH  18  20
ATOM     20  O   UNL d   1       1.400  -4.766   0.000  0.00  0.00    -0.271 OA
BRANCH  20  21
ATOM     21  C   UNL d   1       1.392  -5.591   0.000  0.00  0.00     0.126 C 
ATOM     22  C   UNL d   1       0.675  -5.991   0.000  0.00  0.00     0.029 C 
ENDBRANCH  20  21
ENDBRANCH  18  20
ENDBRANCH  15  18
ENDBRANCH  11  12
ENDBRANCH   3  11
BRANCH   2  23
ATOM     23  N   UNL d   1       3.600   1.412   0.000  0.00  0.00    -0.225 NA
BRANCH  23  24
ATOM     24  C   UNL d   1       2.892   1.833   0.000  0.00  0.00     0.083 A 
ATOM     25  C   UNL d   1       2.167   1.425   0.000  0.00  0.00     0.020 A 
ATOM     26  C   UNL d   1       1.462   1.850   0.000  0.00  0.00     0.013 A 
ATOM     27  C   UNL d   1       1.467   2.675   0.000  0.00  0.00     0.058 A 
ATOM     28  C   UNL d   1       2.192   3.083   0.000  0.00  0.00     0.013 A 
ATOM     29 CL   UNL d   1       0.767   3.108   0.000  0.00  0.00    -0.082 Cl
ATOM     30  C   UNL d   1       2.900   2.658   0.000  0.00  0.00     0.020 A 
ENDBRANCH  23  24
ENDBRANCH   2  23
TORSDOF 7
