REMARK  3 active torsions:
REMARK  status: ('A' for Active; 'I' for Inactive)
REMARK    1  A    between atoms: N_10  and  C_3 
REMARK    2  A    between atoms: C_15  and  N_4 
REMARK    3  A    between atoms: C_20  and  C_15 
ROOT
ATOM      1  C   UNL d   1       4.807  -4.022   0.000  0.00  0.00     0.191 A 
ATOM      2  C   UNL d   1       4.811  -3.192   0.000  0.00  0.00     0.173 A 
ATOM      3  C   UNL d   1       6.075  -3.622   0.000  0.00  0.00     0.738 A 
ATOM      4  N   UNL d   1       3.384  -3.196   0.000  0.00  0.00    -0.224 N 
ATOM      5  N   UNL d   1       5.587  -4.285   0.000  0.00  0.00    -0.041 NA
ATOM      6  N   UNL d   1       4.097  -4.435   0.000  0.00  0.00    -0.240 N 
ATOM      7  C   UNL d   1       3.384  -4.022   0.000  0.00  0.00     0.343 A 
ATOM      8  C   UNL d   1       4.097  -2.783   0.000  0.00  0.00     0.288 A 
ATOM      9  N   UNL d   1       5.599  -2.946   0.000  0.00  0.00    -0.130 N 
ATOM     10  O   UNL d   1       2.670  -4.435   0.000  0.00  0.00    -0.245 OA
ATOM     11  O   UNL d   1       4.097  -1.957   0.000  0.00  0.00    -0.265 OA
ATOM     12  C   UNL d   1       4.097  -5.261   0.000  0.00  0.00     0.105 C 
ATOM     13  C   UNL d   1       5.862  -2.166   0.000  0.00  0.00     0.118 C 
ENDROOT
BRANCH   4  14
ATOM     14  C   UNL d   1       2.666  -2.783   0.000  0.00  0.00     0.087 C 
BRANCH  14  15
ATOM     15  C   UNL d   1       1.953  -3.196   0.000  0.00  0.00     0.019 A 
ATOM     16  C   UNL d   1       1.231  -2.779   0.000  0.00  0.00     0.014 A 
ATOM     17  C   UNL d   1       0.517  -3.192   0.000  0.00  0.00     0.068 A 
ATOM     18 CL   UNL d   1      -0.196  -2.779   0.000  0.00  0.00    -0.082 Cl
ATOM     19  C   UNL d   1       0.517  -4.010   0.000  0.00  0.00     0.068 A 
ATOM     20  C   UNL d   1       1.243  -4.431   0.000  0.00  0.00     0.012 A 
ATOM     21 CL   UNL d   1      -0.196  -4.423   0.000  0.00  0.00    -0.082 Cl
ATOM     22  C   UNL d   1       1.953  -4.010   0.000  0.00  0.00     0.002 A 
ENDBRANCH  14  15
ENDBRANCH   4  14
BRANCH   3  23
ATOM     23  N   UNL d   1       6.901  -3.630   0.000  0.00  0.00    -0.059 N 
ATOM     24  N   UNL d   1       7.389  -2.967   0.000  0.00  0.00    -0.151 NA
ATOM     25  C   UNL d   1       8.178  -3.229   0.000  0.00  0.00     0.103 A 
ATOM     26  C   UNL d   1       8.850  -2.745   0.000  0.00  0.00     0.022 C 
ATOM     27  C   UNL d   1       8.165  -4.056   0.000  0.00  0.00     0.041 A 
ATOM     28  C   UNL d   1       7.377  -4.298   0.000  0.00  0.00     0.102 A 
ATOM     29  C   UNL d   1       7.114  -5.082   0.000  0.00  0.00     0.021 C 
ENDBRANCH   3  23
TORSDOF 3
