REMARK  4 active torsions:
REMARK  status: ('A' for Active; 'I' for Inactive)
REMARK    1  A    between atoms: C_5  and  C_1 
REMARK       I    between atoms: N_7  and  C_5 
REMARK    2  A    between atoms: C_9  and  N_7 
REMARK    3  A    between atoms: C_8  and  C_9 
REMARK    4  A    between atoms: O_13  and  C_11 
ROOT
ATOM      1  C   UNL d   1      -3.903   3.008   0.000  0.00  0.00     0.299 C 
ATOM      2  N   UNL d   1      -3.184   2.592   0.000  0.00  0.00    -0.205 NA
ATOM      3  O   UNL d   1      -3.903   3.831   0.000  0.00  0.00    -0.263 OA
ENDROOT
BRANCH   1   4
ATOM      4  C   UNL d   1      -4.621   2.592   0.000  0.00  0.00     0.162 A 
ATOM      5  N   UNL d   1      -4.701   1.773   0.000  0.00  0.00    -0.143 NA
ATOM      6  N   UNL d   1      -5.516   1.588   0.000  0.00  0.00    -0.148 NA
ATOM      7  C   UNL d   1      -5.932   2.315   0.000  0.00  0.00     0.105 A 
ATOM      8  C   UNL d   1      -5.377   2.932   0.000  0.00  0.00     0.044 A 
ATOM      9  C   UNL d   1      -6.734   2.479   0.000  0.00  0.00     0.021 A 
ATOM     10  C   UNL d   1      -5.642   3.714   0.000  0.00  0.00     0.003 A 
ATOM     11  C   UNL d   1      -6.440   3.877   0.000  0.00  0.00     0.000 A 
ATOM     12  C   UNL d   1      -6.986   3.264   0.000  0.00  0.00     0.002 A 
ENDBRANCH   1   4
BRANCH   2  13
ATOM     13  C   UNL d   1      -2.470   3.008   0.000  0.00  0.00     0.104 C 
BRANCH  13  14
ATOM     14  C   UNL d   1      -2.458   3.831   0.000  0.00  0.00     0.042 A 
ATOM     15  C   UNL d   1      -1.735   4.239   0.000  0.00  0.00     0.096 A 
ATOM     16  C   UNL d   1      -1.735   5.054   0.000  0.00  0.00     0.024 A 
ATOM     17  C   UNL d   1      -2.445   5.474   0.000  0.00  0.00     0.002 A 
ATOM     18  C   UNL d   1      -3.163   5.083   0.000  0.00  0.00     0.000 A 
ATOM     19  C   UNL d   1      -3.176   4.252   0.000  0.00  0.00     0.004 A 
BRANCH  15  20
ATOM     20  O   UNL d   1      -1.017   3.827   0.000  0.00  0.00    -0.328 OA
ATOM     21  C   UNL d   1      -0.298   4.222   0.000  0.00  0.00     0.181 C 
ENDBRANCH  15  20
ENDBRANCH  13  14
ENDBRANCH   2  13
TORSDOF 4
