REMARK  4 active torsions:
REMARK  status: ('A' for Active; 'I' for Inactive)
REMARK    1  A    between atoms: C_5  and  C_1 
REMARK       I    between atoms: N_8  and  C_5 
REMARK    2  A    between atoms: C_10  and  N_8 
REMARK    3  A    between atoms: C_13  and  C_10 
REMARK    4  A    between atoms: C_11  and  C_13 
ROOT
ATOM      1  C   UNL d   1      -3.883   2.993   0.000  0.00  0.00     0.299 C 
ATOM      2  O   UNL d   1      -3.883   3.812   0.000  0.00  0.00    -0.263 OA
ATOM      3  N   UNL d   1      -3.168   2.579   0.000  0.00  0.00    -0.205 NA
ENDROOT
BRANCH   1   4
ATOM      4  C   UNL d   1      -4.598   2.579   0.000  0.00  0.00     0.162 A 
ATOM      5  N   UNL d   1      -4.677   1.764   0.000  0.00  0.00    -0.143 NA
ATOM      6  N   UNL d   1      -5.488   1.580   0.000  0.00  0.00    -0.148 NA
ATOM      7  C   UNL d   1      -5.902   2.303   0.000  0.00  0.00     0.105 A 
ATOM      8  C   UNL d   1      -5.350   2.917   0.000  0.00  0.00     0.044 A 
ATOM      9  C   UNL d   1      -6.700   2.466   0.000  0.00  0.00     0.021 A 
ATOM     10  C   UNL d   1      -5.613   3.695   0.000  0.00  0.00     0.003 A 
ATOM     11  C   UNL d   1      -6.407   3.858   0.000  0.00  0.00     0.000 A 
ATOM     12  C   UNL d   1      -6.951   3.248   0.000  0.00  0.00     0.002 A 
ENDBRANCH   1   4
BRANCH   3  13
ATOM     13  C   UNL d   1      -2.453   2.993   0.000  0.00  0.00     0.102 C 
BRANCH  13  14
ATOM     14  C   UNL d   1      -1.739   2.571   0.000  0.00  0.00     0.021 C 
BRANCH  14  15
ATOM     15  C   UNL d   1      -1.024   2.993   0.000  0.00  0.00     0.002 A 
ATOM     16  C   UNL d   1      -0.309   2.571   0.000  0.00  0.00     0.000 A 
ATOM     17  C   UNL d   1       0.406   2.993   0.000  0.00  0.00     0.000 A 
ATOM     18  C   UNL d   1       0.406   3.812   0.000  0.00  0.00     0.000 A 
ATOM     19  C   UNL d   1      -0.309   4.217   0.000  0.00  0.00     0.000 A 
ATOM     20  C   UNL d   1      -1.016   3.820   0.000  0.00  0.00     0.000 A 
ENDBRANCH  14  15
ENDBRANCH  13  14
ENDBRANCH   3  13
TORSDOF 4
