REMARK  6 active torsions:
REMARK  status: ('A' for Active; 'I' for Inactive)
REMARK    1  A    between atoms: S_10  and  C_3 
REMARK    2  A    between atoms: C_14  and  C_7 
REMARK    3  A    between atoms: C_18  and  S_10 
REMARK       I    between atoms: N_11  and  C_12 
REMARK    4  A    between atoms: C_13  and  N_11 
REMARK    5  A    between atoms: C_12  and  C_18 
REMARK    6  A    between atoms: O_20  and  C_16 
ROOT
ATOM      1  N   UNL d   1      -4.052   6.111   0.000  0.00  0.00    -0.186 N 
ATOM      2  N   UNL d   1      -4.850   5.932   0.000  0.00  0.00    -0.162 NA
ATOM      3  C   UNL d   1      -3.378   5.629   0.000  0.00  0.00     0.217 A 
ATOM      4  C   UNL d   1      -3.796   6.894   0.000  0.00  0.00     0.187 A 
ATOM      5  N   UNL d   1      -2.723   6.120   0.000  0.00  0.00    -0.120 NA
ATOM      6  N   UNL d   1      -2.980   6.904   0.000  0.00  0.00    -0.127 NA
ATOM      7  C   UNL d   1      -5.405   6.546   0.000  0.00  0.00     0.103 A 
ATOM      8  C   UNL d   1      -4.355   7.509   0.000  0.00  0.00     0.042 A 
ATOM      9  C   UNL d   1      -5.152   7.335   0.000  0.00  0.00     0.024 A 
ENDROOT
BRANCH   3  10
ATOM     10  S   UNL d   1      -3.351   4.804   0.000  0.00  0.00    -0.041 SA
BRANCH  10  11
ATOM     11  C   UNL d   1      -2.636   4.414   0.000  0.00  0.00     0.101 C 
BRANCH  11  12
ATOM     12  C   UNL d   1      -2.613   3.598   0.000  0.00  0.00     0.286 C 
ATOM     13  N   UNL d   1      -1.893   3.191   0.000  0.00  0.00    -0.206 NA
ATOM     14  O   UNL d   1      -3.314   3.163   0.000  0.00  0.00    -0.265 OA
BRANCH  13  15
ATOM     15  C   UNL d   1      -1.870   2.365   0.000  0.00  0.00     0.107 A 
ATOM     16  C   UNL d   1      -1.151   1.967   0.000  0.00  0.00     0.112 A 
ATOM     17  C   UNL d   1      -1.137   1.137   0.000  0.00  0.00     0.026 A 
ATOM     18  C   UNL d   1      -1.843   0.724   0.000  0.00  0.00     0.002 A 
ATOM     19  C   UNL d   1      -2.567   1.109   0.000  0.00  0.00     0.002 A 
ATOM     20  C   UNL d   1      -2.581   1.939   0.000  0.00  0.00     0.021 A 
BRANCH  16  21
ATOM     21  O   UNL d   1      -0.440   2.402   0.000  0.00  0.00    -0.327 OA
ATOM     22  C   UNL d   1      -0.463   3.232   0.000  0.00  0.00     0.181 C 
ENDBRANCH  16  21
ENDBRANCH  13  15
ENDBRANCH  11  12
ENDBRANCH  10  11
ENDBRANCH   3  10
BRANCH   7  23
ATOM     23  C   UNL d   1      -6.211   6.358   0.000  0.00  0.00     0.039 A 
ATOM     24  C   UNL d   1      -6.459   5.588   0.000  0.00  0.00     0.101 A 
ATOM     25  N   UNL d   1      -7.252   5.409   0.000  0.00  0.00    -0.242 NA
ATOM     26  C   UNL d   1      -7.816   6.014   0.000  0.00  0.00     0.099 A 
ATOM     27  C   UNL d   1      -7.564   6.798   0.000  0.00  0.00     0.021 A 
ATOM     28  C   UNL d   1      -6.757   6.977   0.000  0.00  0.00     0.005 A 
ENDBRANCH   7  23
TORSDOF 6
