REMARK  8 active torsions:
REMARK  status: ('A' for Active; 'I' for Inactive)
REMARK    1  A    between atoms: S_10  and  C_3 
REMARK    2  A    between atoms: C_12  and  C_7 
REMARK    3  A    between atoms: C_15  and  S_10 
REMARK    4  A    between atoms: C_11  and  C_15 
REMARK       I    between atoms: N_16  and  C_11 
REMARK    5  A    between atoms: C_23  and  N_16 
REMARK    6  A    between atoms: O_24  and  C_17 
REMARK    7  A    between atoms: C_18  and  C_29 
REMARK    8  A    between atoms: C_29  and  C_23 
ROOT
ATOM      1  N   UNL d   1      -4.050   6.107   0.000  0.00  0.00    -0.186 N 
ATOM      2  N   UNL d   1      -4.847   5.929   0.000  0.00  0.00    -0.162 NA
ATOM      3  C   UNL d   1      -3.377   5.626   0.000  0.00  0.00     0.217 A 
ATOM      4  C   UNL d   1      -3.793   6.891   0.000  0.00  0.00     0.187 A 
ATOM      5  N   UNL d   1      -2.721   6.116   0.000  0.00  0.00    -0.120 NA
ATOM      6  N   UNL d   1      -2.978   6.900   0.000  0.00  0.00    -0.127 NA
ATOM      7  C   UNL d   1      -5.402   6.543   0.000  0.00  0.00     0.102 A 
ATOM      8  C   UNL d   1      -4.352   7.505   0.000  0.00  0.00     0.042 A 
ATOM      9  C   UNL d   1      -5.150   7.330   0.000  0.00  0.00     0.024 A 
ENDROOT
BRANCH   3  10
ATOM     10  S   UNL d   1      -3.349   4.801   0.000  0.00  0.00    -0.041 SA
BRANCH  10  11
ATOM     11  C   UNL d   1      -2.634   4.412   0.000  0.00  0.00     0.101 C 
BRANCH  11  12
ATOM     12  C   UNL d   1      -2.611   3.596   0.000  0.00  0.00     0.286 C 
ATOM     13  O   UNL d   1      -1.892   3.189   0.000  0.00  0.00    -0.265 OA
ATOM     14  N   UNL d   1      -3.312   3.161   0.000  0.00  0.00    -0.206 NA
BRANCH  14  15
ATOM     15  C   UNL d   1      -4.036   3.560   0.000  0.00  0.00     0.102 C 
BRANCH  15  16
ATOM     16  C   UNL d   1      -4.742   3.129   0.000  0.00  0.00     0.021 C 
BRANCH  16  17
ATOM     17  C   UNL d   1      -5.470   3.528   0.000  0.00  0.00     0.002 A 
ATOM     18  C   UNL d   1      -5.493   4.357   0.000  0.00  0.00     0.002 A 
ATOM     19  C   UNL d   1      -6.222   4.756   0.000  0.00  0.00     0.024 A 
ATOM     20  C   UNL d   1      -6.918   4.325   0.000  0.00  0.00     0.094 A 
ATOM     21  C   UNL d   1      -6.904   3.500   0.000  0.00  0.00     0.024 A 
ATOM     22  C   UNL d   1      -6.181   3.102   0.000  0.00  0.00     0.002 A 
BRANCH  20  23
ATOM     23  O   UNL d   1      -7.660   4.705   0.000  0.00  0.00    -0.328 OA
ATOM     24  C   UNL d   1      -8.348   4.261   0.000  0.00  0.00     0.181 C 
ENDBRANCH  20  23
ENDBRANCH  16  17
ENDBRANCH  15  16
ENDBRANCH  14  15
ENDBRANCH  11  12
ENDBRANCH  10  11
ENDBRANCH   3  10
BRANCH   7  25
ATOM     25  C   UNL d   1      -6.208   6.368   0.000  0.00  0.00     0.022 A 
ATOM     26  C   UNL d   1      -6.753   6.973   0.000  0.00  0.00     0.022 A 
ATOM     27  C   UNL d   1      -7.551   6.808   0.000  0.00  0.00     0.099 A 
ATOM     28  N   UNL d   1      -7.812   6.025   0.000  0.00  0.00    -0.242 NA
ATOM     29  C   UNL d   1      -7.262   5.420   0.000  0.00  0.00     0.099 A 
ATOM     30  C   UNL d   1      -6.455   5.594   0.000  0.00  0.00     0.022 A 
ENDBRANCH   7  25
TORSDOF 8
