REMARK  5 active torsions:
REMARK  status: ('A' for Active; 'I' for Inactive)
REMARK    1  A    between atoms: N_9  and  S_1 
REMARK    2  A    between atoms: C_12  and  S_1 
REMARK    3  A    between atoms: C_6  and  C_15 
REMARK    4  A    between atoms: C_18  and  N_9 
REMARK       I    between atoms: C_16  and  N_17 
REMARK    5  A    between atoms: N_17  and  C_23 
ROOT
ATOM      1  C   UNL d   1      -3.748   6.247   0.000  0.00  0.00     0.021 A 
ATOM      2  C   UNL d   1      -3.036   4.997   0.000  0.00  0.00     0.094 A 
ATOM      3  C   UNL d   1      -3.748   5.414   0.000  0.00  0.00     0.021 A 
ATOM      4  C   UNL d   1      -3.032   6.651   0.000  0.00  0.00     0.002 A 
ATOM      5  C   UNL d   1      -2.320   6.247   0.000  0.00  0.00     0.002 A 
ATOM      6  C   UNL d   1      -2.320   5.414   0.000  0.00  0.00     0.020 A 
ENDROOT
BRANCH   2   7
ATOM      7  N   UNL d   1      -3.036   4.177   0.000  0.00  0.00    -0.158 NA
BRANCH   7   8
ATOM      8  S   UNL d   1      -3.748   3.769   0.000  0.00  0.00     0.285 S 
ATOM      9  O   UNL d   1      -3.332   3.057   0.000  0.00  0.00    -0.198 OA
ATOM     10  O   UNL d   1      -4.173   4.477   0.000  0.00  0.00    -0.198 OA
BRANCH   8  11
ATOM     11  C   UNL d   1      -4.469   3.357   0.000  0.00  0.00     0.105 A 
ATOM     12  C   UNL d   1      -4.456   2.532   0.000  0.00  0.00     0.015 A 
ATOM     13  C   UNL d   1      -5.168   2.099   0.000  0.00  0.00     0.020 A 
ATOM     14  C   UNL d   1      -5.893   2.507   0.000  0.00  0.00     0.085 A 
ATOM     15  C   UNL d   1      -5.905   3.332   0.000  0.00  0.00     0.020 A 
ATOM     16  C   UNL d   1      -5.185   3.756   0.000  0.00  0.00     0.015 A 
BRANCH  14  17
ATOM     17  N   UNL d   1      -6.588   2.095   0.000  0.00  0.00    -0.208 NA
ATOM     18  C   UNL d   1      -7.301   2.495   0.000  0.00  0.00     0.279 C 
ATOM     19  O   UNL d   1      -7.313   3.319   0.000  0.00  0.00    -0.265 OA
ATOM     20  C   UNL d   1      -8.000   2.082   0.000  0.00  0.00     0.068 C 
ENDBRANCH  14  17
ENDBRANCH   8  11
ENDBRANCH   7   8
ENDBRANCH   2   7
BRANCH   1  21
ATOM     21  C   UNL d   1      -4.469   6.651   0.000  0.00  0.00     0.102 A 
ATOM     22  N   UNL d   1      -4.456   7.484   0.000  0.00  0.00    -0.162 NA
ATOM     23  N   UNL d   1      -5.181   7.900   0.000  0.00  0.00    -0.189 N 
ATOM     24  C   UNL d   1      -5.343   8.700   0.000  0.00  0.00     0.224 A 
ATOM     25  C   UNL d   1      -5.905   7.488   0.000  0.00  0.00     0.187 A 
ATOM     26  N   UNL d   1      -6.151   8.796   0.000  0.00  0.00    -0.124 NA
ATOM     27  N   UNL d   1      -6.489   8.046   0.000  0.00  0.00    -0.127 NA
ATOM     28  C   UNL d   1      -5.893   6.651   0.000  0.00  0.00     0.042 A 
ATOM     29  C   UNL d   1      -5.173   6.239   0.000  0.00  0.00     0.024 A 
ENDBRANCH   1  21
TORSDOF 5
