REMARK  7 active torsions:
REMARK  status: ('A' for Active; 'I' for Inactive)
REMARK    1  A    between atoms: S_10  and  C_3 
REMARK    2  A    between atoms: C_12  and  C_7 
REMARK    3  A    between atoms: C_19  and  S_10 
REMARK    4  A    between atoms: C_11  and  C_19 
REMARK       I    between atoms: N_14  and  C_11 
REMARK    5  A    between atoms: C_13  and  C_15 
REMARK    6  A    between atoms: C_15  and  N_14 
REMARK    7  A    between atoms: O_21  and  C_17 
ROOT
ATOM      1  N   UNL d   1      -4.046   6.101   0.000  0.00  0.00    -0.186 N 
ATOM      2  N   UNL d   1      -4.842   5.922   0.000  0.00  0.00    -0.162 NA
ATOM      3  C   UNL d   1      -3.373   5.620   0.000  0.00  0.00     0.217 A 
ATOM      4  C   UNL d   1      -3.789   6.883   0.000  0.00  0.00     0.187 A 
ATOM      5  N   UNL d   1      -2.719   6.110   0.000  0.00  0.00    -0.120 NA
ATOM      6  N   UNL d   1      -2.975   6.893   0.000  0.00  0.00    -0.127 NA
ATOM      7  C   UNL d   1      -5.396   6.535   0.000  0.00  0.00     0.103 A 
ATOM      8  C   UNL d   1      -4.348   7.497   0.000  0.00  0.00     0.042 A 
ATOM      9  C   UNL d   1      -5.144   7.323   0.000  0.00  0.00     0.024 A 
ENDROOT
BRANCH   3  10
ATOM     10  S   UNL d   1      -3.345   4.796   0.000  0.00  0.00    -0.041 SA
BRANCH  10  11
ATOM     11  C   UNL d   1      -2.632   4.407   0.000  0.00  0.00     0.101 C 
BRANCH  11  12
ATOM     12  C   UNL d   1      -2.609   3.593   0.000  0.00  0.00     0.286 C 
ATOM     13  N   UNL d   1      -3.309   3.158   0.000  0.00  0.00    -0.206 NA
ATOM     14  O   UNL d   1      -1.890   3.185   0.000  0.00  0.00    -0.265 OA
BRANCH  13  15
ATOM     15  C   UNL d   1      -4.032   3.556   0.000  0.00  0.00     0.104 C 
BRANCH  15  16
ATOM     16  C   UNL d   1      -4.737   3.126   0.000  0.00  0.00     0.042 A 
ATOM     17  C   UNL d   1      -5.465   3.524   0.000  0.00  0.00     0.096 A 
ATOM     18  C   UNL d   1      -6.174   3.098   0.000  0.00  0.00     0.024 A 
ATOM     19  C   UNL d   1      -6.146   2.265   0.000  0.00  0.00     0.002 A 
ATOM     20  C   UNL d   1      -5.419   1.876   0.000  0.00  0.00     0.000 A 
ATOM     21  C   UNL d   1      -4.718   2.302   0.000  0.00  0.00     0.004 A 
BRANCH  17  22
ATOM     22  O   UNL d   1      -5.492   4.348   0.000  0.00  0.00    -0.328 OA
ATOM     23  C   UNL d   1      -4.801   4.783   0.000  0.00  0.00     0.181 C 
ENDBRANCH  17  22
ENDBRANCH  15  16
ENDBRANCH  13  15
ENDBRANCH  11  12
ENDBRANCH  10  11
ENDBRANCH   3  10
BRANCH   7  24
ATOM     24  C   UNL d   1      -6.201   6.348   0.000  0.00  0.00     0.039 A 
ATOM     25  C   UNL d   1      -6.449   5.579   0.000  0.00  0.00     0.101 A 
ATOM     26  N   UNL d   1      -7.240   5.401   0.000  0.00  0.00    -0.242 NA
ATOM     27  C   UNL d   1      -7.803   6.005   0.000  0.00  0.00     0.099 A 
ATOM     28  C   UNL d   1      -7.551   6.787   0.000  0.00  0.00     0.021 A 
ATOM     29  C   UNL d   1      -6.746   6.966   0.000  0.00  0.00     0.005 A 
ENDBRANCH   7  24
TORSDOF 7
