REMARK  6 active torsions:
REMARK  status: ('A' for Active; 'I' for Inactive)
REMARK    1  A    between atoms: C_2  and  N_1 
REMARK    2  A    between atoms: C_4  and  C_2 
REMARK    3  A    between atoms: C_6  and  C_2 
REMARK    4  A    between atoms: C_8  and  N_3 
REMARK       I    between atoms: C_5  and  N_7 
REMARK    5  A    between atoms: O_20  and  C_5 
REMARK    6  A    between atoms: N_7  and  C_6 
ROOT
ATOM      1  N   UNL d   1      -4.918   5.546   0.000  0.00  0.00    -0.298 N 
ATOM      2  N   UNL d   1      -6.348   4.721   0.000  0.00  0.00    -0.301 N 
ATOM      3  C   UNL d   1      -5.624   5.958   0.000  0.00  0.00     0.100 A 
ATOM      4  C   UNL d   1      -4.918   4.721   0.000  0.00  0.00     0.100 A 
ATOM      5  C   UNL d   1      -5.624   4.313   0.000  0.00  0.00     0.100 A 
ATOM      6  C   UNL d   1      -6.348   5.546   0.000  0.00  0.00     0.100 A 
ENDROOT
BRANCH   1   7
ATOM      7  C   UNL d   1      -4.194   5.958   0.000  0.00  0.00     0.107 C 
BRANCH   7   8
ATOM      8  C   UNL d   1      -4.203   6.797   0.000  0.00  0.00     0.118 A 
ATOM      9  O   UNL d   1      -4.918   7.210   0.000  0.00  0.00    -0.304 OA
ATOM     10  C   UNL d   1      -4.739   8.021   0.000  0.00  0.00     0.123 A 
ATOM     11  C   UNL d   1      -3.928   8.103   0.000  0.00  0.00     0.029 A 
ATOM     12  C   UNL d   1      -3.589   7.347   0.000  0.00  0.00     0.028 A 
ENDBRANCH   7   8
BRANCH   7  13
ATOM     13  C   UNL d   1      -3.474   5.560   0.000  0.00  0.00     0.124 C 
BRANCH  13  14
ATOM     14  N   UNL d   1      -3.465   4.721   0.000  0.00  0.00    -0.183 NA
ATOM     15  C   UNL d   1      -2.759   4.317   0.000  0.00  0.00     0.388 C 
ATOM     16  O   UNL d   1      -2.044   4.735   0.000  0.00  0.00    -0.236 OA
BRANCH  15  17
ATOM     17  O   UNL d   1      -2.759   3.493   0.000  0.00  0.00    -0.281 OA
ATOM     18  C   UNL d   1      -2.044   3.080   0.000  0.00  0.00     0.186 C 
ENDBRANCH  15  17
ENDBRANCH  13  14
ENDBRANCH   7  13
ENDBRANCH   1   7
BRANCH   2  19
ATOM     19  C   UNL d   1      -7.045   4.313   0.000  0.00  0.00     0.064 A 
ATOM     20  C   UNL d   1      -7.760   4.721   0.000  0.00  0.00     0.020 A 
ATOM     21  C   UNL d   1      -8.475   4.313   0.000  0.00  0.00     0.031 A 
ATOM     22  C   UNL d   1      -8.475   3.488   0.000  0.00  0.00     0.140 A 
ATOM     23  C   UNL d   1      -7.760   3.075   0.000  0.00  0.00     0.031 A 
ATOM     24  F   UNL d   1      -9.199   3.066   0.000  0.00  0.00    -0.204 F 
ATOM     25  C   UNL d   1      -7.045   3.488   0.000  0.00  0.00     0.020 A 
ENDBRANCH   2  19
TORSDOF 6
