REMARK  7 active torsions:
REMARK  status: ('A' for Active; 'I' for Inactive)
REMARK    1  A    between atoms: N_4  and  S_1 
REMARK    2  A    between atoms: C_8  and  S_1 
REMARK    3  A    between atoms: N_2  and  C_3 
REMARK    4  A    between atoms: C_3  and  C_6 
REMARK    5  A    between atoms: C_7  and  C_3 
REMARK    6  A    between atoms: C_6  and  N_4 
REMARK    7  A    between atoms: C_17  and  N_5 
ROOT
ATOM      1  C   UNL d   1      -4.203   5.958   0.000  0.00  0.00     0.107 C 
ENDROOT
BRANCH   1   2
ATOM      2  N   UNL d   1      -4.918   5.546   0.000  0.00  0.00    -0.298 N 
ATOM      3  C   UNL d   1      -5.633   5.958   0.000  0.00  0.00     0.100 A 
ATOM      4  C   UNL d   1      -6.348   5.546   0.000  0.00  0.00     0.100 A 
ATOM      5  N   UNL d   1      -6.348   4.721   0.000  0.00  0.00    -0.301 N 
ATOM      6  C   UNL d   1      -5.633   4.313   0.000  0.00  0.00     0.100 A 
ATOM      7  C   UNL d   1      -4.918   4.721   0.000  0.00  0.00     0.100 A 
BRANCH   5   8
ATOM      8  C   UNL d   1      -7.058   4.313   0.000  0.00  0.00     0.064 A 
ATOM      9  C   UNL d   1      -7.769   4.721   0.000  0.00  0.00     0.018 A 
ATOM     10  C   UNL d   1      -8.484   4.313   0.000  0.00  0.00     0.002 A 
ATOM     11  C   UNL d   1      -8.484   3.488   0.000  0.00  0.00     0.000 A 
ATOM     12  C   UNL d   1      -7.769   3.075   0.000  0.00  0.00     0.002 A 
ATOM     13  C   UNL d   1      -7.058   3.488   0.000  0.00  0.00     0.018 A 
ENDBRANCH   5   8
ENDBRANCH   1   2
BRANCH   1  14
ATOM     14  C   UNL d   1      -3.479   5.560   0.000  0.00  0.00     0.132 C 
BRANCH  14  15
ATOM     15  N   UNL d   1      -3.474   4.721   0.000  0.00  0.00    -0.155 NA
BRANCH  15  16
ATOM     16  S   UNL d   1      -2.759   4.317   0.000  0.00  0.00     0.285 S 
ATOM     17  O   UNL d   1      -2.044   3.900   0.000  0.00  0.00    -0.198 OA
ATOM     18  O   UNL d   1      -2.347   5.037   0.000  0.00  0.00    -0.198 OA
BRANCH  16  19
ATOM     19  C   UNL d   1      -3.176   3.598   0.000  0.00  0.00     0.105 A 
ATOM     20  C   UNL d   1      -4.001   3.598   0.000  0.00  0.00     0.015 A 
ATOM     21  C   UNL d   1      -4.423   2.888   0.000  0.00  0.00     0.030 A 
ATOM     22  C   UNL d   1      -4.001   2.168   0.000  0.00  0.00     0.140 A 
ATOM     23  C   UNL d   1      -3.176   2.168   0.000  0.00  0.00     0.030 A 
ATOM     24  F   UNL d   1      -4.423   1.444   0.000  0.00  0.00    -0.204 F 
ATOM     25  C   UNL d   1      -2.764   2.883   0.000  0.00  0.00     0.015 A 
ENDBRANCH  16  19
ENDBRANCH  15  16
ENDBRANCH  14  15
ENDBRANCH   1  14
BRANCH   1  26
ATOM     26  C   UNL d   1      -4.207   6.797   0.000  0.00  0.00     0.118 A 
ATOM     27  O   UNL d   1      -4.918   7.210   0.000  0.00  0.00    -0.304 OA
ATOM     28  C   UNL d   1      -4.744   8.021   0.000  0.00  0.00     0.123 A 
ATOM     29  C   UNL d   1      -3.933   8.103   0.000  0.00  0.00     0.029 A 
ATOM     30  C   UNL d   1      -3.598   7.347   0.000  0.00  0.00     0.028 A 
ENDBRANCH   1  26
TORSDOF 7
