REMARK  3 active torsions:
REMARK  status: ('A' for Active; 'I' for Inactive)
REMARK    1  A    between atoms: C_2  and  C_1 
REMARK    2  A    between atoms: C_3  and  C_1 
REMARK       I    between atoms: N_4  and  C_2 
REMARK    3  A    between atoms: C_6  and  N_4 
ROOT
ATOM      1  C   UNL d   1      -2.417   4.759   0.000  0.00  0.00     0.150 A 
ATOM      2  O   UNL d   1      -2.754   6.377   0.000  0.00  0.00    -0.304 OA
ATOM      3  C   UNL d   1      -3.203   5.017   0.000  0.00  0.00     0.019 A 
ATOM      4  C   UNL d   1      -1.810   5.304   0.000  0.00  0.00     0.019 A 
ATOM      5  C   UNL d   1      -1.980   6.119   0.000  0.00  0.00     0.119 A 
ATOM      6  C   UNL d   1      -3.370   5.828   0.000  0.00  0.00     0.119 A 
ENDROOT
BRANCH   1   7
ATOM      7  C   UNL d   1      -3.033   4.206   0.000  0.00  0.00     0.315 C 
ATOM      8  N   UNL d   1      -3.819   4.455   0.000  0.00  0.00    -0.367 NA
ATOM      9  O   UNL d   1      -2.854   3.403   0.000  0.00  0.00    -0.255 OA
BRANCH   8  10
ATOM     10  C   UNL d   1      -4.605   4.697   0.000  0.00  0.00     0.135 A 
ATOM     11  C   UNL d   1      -4.763   5.495   0.000  0.00  0.00     0.032 A 
ATOM     12  C   UNL d   1      -5.562   5.745   0.000  0.00  0.00     0.003 A 
ATOM     13  C   UNL d   1      -5.728   6.556   0.000  0.00  0.00     0.000 C 
ATOM     14  C   UNL d   1      -6.144   5.204   0.000  0.00  0.00     0.000 A 
ATOM     15  C   UNL d   1      -5.986   4.410   0.000  0.00  0.00     0.003 A 
ATOM     16  C   UNL d   1      -5.212   4.160   0.000  0.00  0.00     0.032 A 
ATOM     17  C   UNL d   1      -6.594   3.856   0.000  0.00  0.00     0.000 C 
ENDBRANCH   8  10
ENDBRANCH   1   7
BRANCH   1  18
ATOM     18  C   UNL d   1      -1.631   4.497   0.000  0.00  0.00     0.024 A 
ATOM     19  S   UNL d   1      -0.949   4.971   0.000  0.00  0.00    -0.090 SA
ATOM     20  C   UNL d   1      -0.283   4.484   0.000  0.00  0.00     0.035 A 
ATOM     21  C   UNL d   1      -0.532   3.702   0.000  0.00  0.00     0.007 A 
ATOM     22  C   UNL d   1      -1.369   3.707   0.000  0.00  0.00     0.004 A 
ENDBRANCH   1  18
TORSDOF 3
