REMARK  4 active torsions:
REMARK  status: ('A' for Active; 'I' for Inactive)
REMARK    1  A    between atoms: N_2  and  C_1 
REMARK       I    between atoms: C_4  and  N_2 
REMARK    2  A    between atoms: C_11  and  C_4 
REMARK    3  A    between atoms: C_7  and  C_5 
REMARK    4  A    between atoms: C_9  and  C_7 
REMARK       I    between atoms: N_13  and  C_9 
ROOT
ATOM      1  C   UNL d   1       5.479  -2.675   0.000  0.00  0.00     0.197 A 
ATOM      2  N   UNL d   1       6.020  -2.063   0.000  0.00  0.00    -0.220 NA
ATOM      3  C   UNL d   1       6.769  -2.384   0.000  0.00  0.00     0.095 A 
ATOM      4  S   UNL d   1       5.895  -3.386   0.000  0.00  0.00    -0.046 SA
ATOM      5  C   UNL d   1       6.694  -3.208   0.000  0.00  0.00     0.058 A 
ENDROOT
BRANCH   1   6
ATOM      6  N   UNL d   1       4.660  -2.600   0.000  0.00  0.00    -0.183 NA
ATOM      7  C   UNL d   1       4.310  -1.851   0.000  0.00  0.00     0.281 C 
ATOM      8  O   UNL d   1       4.793  -1.177   0.000  0.00  0.00    -0.265 OA
BRANCH   7   9
ATOM      9  C   UNL d   1       3.495  -1.776   0.000  0.00  0.00     0.058 A 
ATOM     10  C   UNL d   1       3.158  -1.023   0.000  0.00  0.00     0.005 A 
ATOM     11  C   UNL d   1       2.338  -0.949   0.000  0.00  0.00     0.000 A 
ATOM     12  C   UNL d   1       1.860  -1.614   0.000  0.00  0.00     0.000 A 
ATOM     13  C   UNL d   1       2.201  -2.371   0.000  0.00  0.00     0.000 A 
ATOM     14  C   UNL d   1       3.025  -2.446   0.000  0.00  0.00     0.005 A 
ENDBRANCH   7   9
ENDBRANCH   1   6
BRANCH   3  15
ATOM     15  C   UNL d   1       7.480  -1.964   0.000  0.00  0.00     0.084 C 
BRANCH  15  16
ATOM     16  C   UNL d   1       8.200  -2.371   0.000  0.00  0.00     0.306 C 
ATOM     17  O   UNL d   1       8.204  -3.195   0.000  0.00  0.00    -0.263 OA
ATOM     18  N   UNL d   1       8.903  -1.951   0.000  0.00  0.00    -0.053 NA
ATOM     19  O   UNL d   1       9.627  -2.351   0.000  0.00  0.00    -0.058 OA
ENDBRANCH  15  16
ENDBRANCH   3  15
TORSDOF 4
