REMARK  4 active torsions:
REMARK  status: ('A' for Active; 'I' for Inactive)
REMARK    1  A    between atoms: S_10  and  C_3 
REMARK    2  A    between atoms: C_11  and  C_7 
REMARK    3  A    between atoms: C_13  and  S_10 
REMARK    4  A    between atoms: C_14  and  C_13 
ROOT
ATOM      1  N   UNL d   1      -4.052   6.110   0.000  0.00  0.00    -0.186 N 
ATOM      2  N   UNL d   1      -4.849   5.931   0.000  0.00  0.00    -0.162 NA
ATOM      3  C   UNL d   1      -3.378   5.628   0.000  0.00  0.00     0.217 A 
ATOM      4  C   UNL d   1      -3.795   6.893   0.000  0.00  0.00     0.187 A 
ATOM      5  N   UNL d   1      -2.723   6.119   0.000  0.00  0.00    -0.120 NA
ATOM      6  N   UNL d   1      -2.979   6.902   0.000  0.00  0.00    -0.127 NA
ATOM      7  C   UNL d   1      -5.404   6.545   0.000  0.00  0.00     0.102 A 
ATOM      8  C   UNL d   1      -4.354   7.508   0.000  0.00  0.00     0.042 A 
ATOM      9  C   UNL d   1      -5.152   7.333   0.000  0.00  0.00     0.024 A 
ENDROOT
BRANCH   3  10
ATOM     10  S   UNL d   1      -3.350   4.803   0.000  0.00  0.00    -0.046 SA
BRANCH  10  11
ATOM     11  C   UNL d   1      -2.635   4.414   0.000  0.00  0.00     0.038 C 
BRANCH  11  12
ATOM     12  C   UNL d   1      -2.612   3.598   0.000  0.00  0.00     0.007 A 
ATOM     13  C   UNL d   1      -3.314   3.163   0.000  0.00  0.00     0.001 A 
ATOM     14  C   UNL d   1      -3.295   2.333   0.000  0.00  0.00     0.000 A 
ATOM     15  C   UNL d   1      -2.580   1.934   0.000  0.00  0.00     0.000 A 
ATOM     16  C   UNL d   1      -1.870   2.365   0.000  0.00  0.00     0.000 A 
ATOM     17  C   UNL d   1      -2.580   1.109   0.000  0.00  0.00     0.000 C 
ATOM     18  C   UNL d   1      -1.893   3.190   0.000  0.00  0.00     0.001 A 
ENDBRANCH  11  12
ENDBRANCH  10  11
ENDBRANCH   3  10
BRANCH   7  19
ATOM     19  C   UNL d   1      -6.210   6.371   0.000  0.00  0.00     0.022 A 
ATOM     20  C   UNL d   1      -6.463   5.587   0.000  0.00  0.00     0.022 A 
ATOM     21  C   UNL d   1      -7.265   5.408   0.000  0.00  0.00     0.099 A 
ATOM     22  N   UNL d   1      -7.815   6.013   0.000  0.00  0.00    -0.242 NA
ATOM     23  C   UNL d   1      -7.562   6.820   0.000  0.00  0.00     0.099 A 
ATOM     24  C   UNL d   1      -6.756   6.976   0.000  0.00  0.00     0.022 A 
ENDBRANCH   7  19
TORSDOF 4
