REMARK  5 active torsions:
REMARK  status: ('A' for Active; 'I' for Inactive)
REMARK    1  A    between atoms: C_8  and  S_1 
REMARK    2  A    between atoms: N_10  and  S_1 
REMARK    3  A    between atoms: C_6  and  C_17 
REMARK    4  A    between atoms: C_18  and  N_10 
REMARK    5  A    between atoms: O_24  and  C_19 
ROOT
ATOM      1  C   UNL d   1      -3.744   6.239   0.000  0.00  0.00     0.021 A 
ATOM      2  C   UNL d   1      -3.032   4.992   0.000  0.00  0.00     0.094 A 
ATOM      3  C   UNL d   1      -3.744   5.408   0.000  0.00  0.00     0.021 A 
ATOM      4  C   UNL d   1      -3.028   6.643   0.000  0.00  0.00     0.002 A 
ATOM      5  C   UNL d   1      -2.317   6.239   0.000  0.00  0.00     0.002 A 
ATOM      6  C   UNL d   1      -2.317   5.408   0.000  0.00  0.00     0.020 A 
ENDROOT
BRANCH   2   7
ATOM      7  N   UNL d   1      -3.032   4.172   0.000  0.00  0.00    -0.158 NA
BRANCH   7   8
ATOM      8  S   UNL d   1      -3.744   3.764   0.000  0.00  0.00     0.285 S 
ATOM      9  O   UNL d   1      -3.319   3.053   0.000  0.00  0.00    -0.198 OA
ATOM     10  O   UNL d   1      -4.176   4.472   0.000  0.00  0.00    -0.198 OA
BRANCH   8  11
ATOM     11  C   UNL d   1      -4.463   3.340   0.000  0.00  0.00     0.108 A 
ATOM     12  C   UNL d   1      -4.451   2.529   0.000  0.00  0.00     0.045 A 
ATOM     13  C   UNL d   1      -5.150   2.096   0.000  0.00  0.00     0.163 A 
ATOM     14  F   UNL d   1      -5.137   1.281   0.000  0.00  0.00    -0.202 F 
ATOM     15  C   UNL d   1      -5.873   2.504   0.000  0.00  0.00     0.121 A 
ATOM     16  C   UNL d   1      -5.886   3.328   0.000  0.00  0.00     0.027 A 
ATOM     17  C   UNL d   1      -5.175   3.764   0.000  0.00  0.00     0.015 A 
BRANCH  15  18
ATOM     18  O   UNL d   1      -6.568   2.092   0.000  0.00  0.00    -0.326 OA
ATOM     19  C   UNL d   1      -7.279   2.483   0.000  0.00  0.00     0.181 C 
ENDBRANCH  15  18
ENDBRANCH   8  11
ENDBRANCH   7   8
ENDBRANCH   2   7
BRANCH   1  20
ATOM     20  C   UNL d   1      -4.463   6.643   0.000  0.00  0.00     0.102 A 
ATOM     21  N   UNL d   1      -4.451   7.475   0.000  0.00  0.00    -0.162 NA
ATOM     22  N   UNL d   1      -5.175   7.891   0.000  0.00  0.00    -0.189 N 
ATOM     23  C   UNL d   1      -5.337   8.690   0.000  0.00  0.00     0.224 A 
ATOM     24  C   UNL d   1      -5.898   7.479   0.000  0.00  0.00     0.187 A 
ATOM     25  N   UNL d   1      -6.144   8.785   0.000  0.00  0.00    -0.124 NA
ATOM     26  N   UNL d   1      -6.481   8.036   0.000  0.00  0.00    -0.127 NA
ATOM     27  C   UNL d   1      -5.886   6.643   0.000  0.00  0.00     0.042 A 
ATOM     28  C   UNL d   1      -5.166   6.231   0.000  0.00  0.00     0.024 A 
ENDBRANCH   1  20
TORSDOF 5
