REMARK  3 active torsions:
REMARK  status: ('A' for Active; 'I' for Inactive)
REMARK    1  A    between atoms: C_2  and  C_1 
REMARK    2  A    between atoms: C_4  and  C_1 
REMARK       I    between atoms: N_3  and  C_2 
REMARK    3  A    between atoms: C_6  and  N_5 
ROOT
ATOM      1  C   UNL d   1      -3.027   4.199   0.000  0.00  0.00     0.253 C 
ATOM      2  N   UNL d   1      -3.812   4.448   0.000  0.00  0.00    -0.272 N 
ATOM      3  N   UNL d   1      -5.390   4.851   0.000  0.00  0.00    -0.299 N 
ATOM      4  O   UNL d   1      -2.849   3.397   0.000  0.00  0.00    -0.271 OA
ATOM      5  C   UNL d   1      -4.394   3.870   0.000  0.00  0.00     0.102 A 
ATOM      6  C   UNL d   1      -4.024   5.224   0.000  0.00  0.00     0.102 A 
ATOM      7  C   UNL d   1      -5.179   4.061   0.000  0.00  0.00     0.100 A 
ATOM      8  C   UNL d   1      -4.817   5.436   0.000  0.00  0.00     0.100 A 
ENDROOT
BRANCH   1   9
ATOM      9  C   UNL d   1      -2.413   4.751   0.000  0.00  0.00     0.137 A 
ATOM     10  C   UNL d   1      -1.806   5.295   0.000  0.00  0.00     0.018 A 
ATOM     11  C   UNL d   1      -1.977   6.109   0.000  0.00  0.00     0.119 A 
ATOM     12  O   UNL d   1      -2.749   6.366   0.000  0.00  0.00    -0.304 OA
ATOM     13  C   UNL d   1      -3.364   5.818   0.000  0.00  0.00     0.119 A 
ATOM     14  C   UNL d   1      -3.198   5.008   0.000  0.00  0.00     0.018 A 
BRANCH   9  15
ATOM     15  C   UNL d   1      -1.628   4.489   0.000  0.00  0.00     0.023 A 
ATOM     16  S   UNL d   1      -0.947   4.963   0.000  0.00  0.00    -0.090 SA
ATOM     17  C   UNL d   1      -0.282   4.477   0.000  0.00  0.00     0.035 A 
ATOM     18  C   UNL d   1      -0.531   3.696   0.000  0.00  0.00     0.007 A 
ATOM     19  C   UNL d   1      -1.366   3.700   0.000  0.00  0.00     0.004 A 
ENDBRANCH   9  15
ENDBRANCH   1   9
BRANCH   3  20
ATOM     20  C   UNL d   1      -6.171   5.062   0.000  0.00  0.00     0.092 A 
ATOM     21  C   UNL d   1      -6.383   5.856   0.000  0.00  0.00     0.156 A 
ATOM     22  F   UNL d   1      -5.814   6.433   0.000  0.00  0.00    -0.203 F 
ATOM     23  C   UNL d   1      -7.168   6.067   0.000  0.00  0.00     0.031 A 
ATOM     24  C   UNL d   1      -7.753   5.486   0.000  0.00  0.00     0.002 A 
ATOM     25  C   UNL d   1      -7.537   4.689   0.000  0.00  0.00     0.002 A 
ATOM     26  C   UNL d   1      -6.740   4.477   0.000  0.00  0.00     0.020 A 
ENDBRANCH   3  20
TORSDOF 3
