REMARK  4 active torsions:
REMARK  status: ('A' for Active; 'I' for Inactive)
REMARK    1  A    between atoms: S_10  and  C_3 
REMARK    2  A    between atoms: C_11  and  C_7 
REMARK    3  A    between atoms: C_13  and  S_10 
REMARK    4  A    between atoms: C_15  and  C_13 
ROOT
ATOM      1  N   UNL d   1      -4.060   6.122   0.000  0.00  0.00    -0.186 N 
ATOM      2  N   UNL d   1      -4.859   5.943   0.000  0.00  0.00    -0.162 NA
ATOM      3  C   UNL d   1      -3.385   5.640   0.000  0.00  0.00     0.217 A 
ATOM      4  C   UNL d   1      -3.803   6.908   0.000  0.00  0.00     0.187 A 
ATOM      5  N   UNL d   1      -2.728   6.131   0.000  0.00  0.00    -0.120 NA
ATOM      6  N   UNL d   1      -2.985   6.917   0.000  0.00  0.00    -0.127 NA
ATOM      7  C   UNL d   1      -5.415   6.559   0.000  0.00  0.00     0.102 A 
ATOM      8  C   UNL d   1      -4.363   7.523   0.000  0.00  0.00     0.042 A 
ATOM      9  C   UNL d   1      -5.162   7.348   0.000  0.00  0.00     0.024 A 
ENDROOT
BRANCH   3  10
ATOM     10  S   UNL d   1      -3.357   4.813   0.000  0.00  0.00    -0.046 SA
BRANCH  10  11
ATOM     11  C   UNL d   1      -2.641   4.423   0.000  0.00  0.00     0.038 C 
BRANCH  11  12
ATOM     12  C   UNL d   1      -2.618   3.605   0.000  0.00  0.00     0.007 A 
ATOM     13  C   UNL d   1      -1.897   3.197   0.000  0.00  0.00     0.003 A 
ATOM     14  C   UNL d   1      -1.883   2.365   0.000  0.00  0.00     0.030 A 
ATOM     15  C   UNL d   1      -2.590   1.952   0.000  0.00  0.00     0.140 A 
ATOM     16  C   UNL d   1      -3.316   2.338   0.000  0.00  0.00     0.030 A 
ATOM     17  F   UNL d   1      -2.572   1.125   0.000  0.00  0.00    -0.204 F 
ATOM     18  C   UNL d   1      -3.330   3.169   0.000  0.00  0.00     0.003 A 
ENDBRANCH  11  12
ENDBRANCH  10  11
ENDBRANCH   3  10
BRANCH   7  19
ATOM     19  C   UNL d   1      -6.223   6.384   0.000  0.00  0.00     0.022 A 
ATOM     20  C   UNL d   1      -6.770   6.990   0.000  0.00  0.00     0.022 A 
ATOM     21  C   UNL d   1      -7.578   6.834   0.000  0.00  0.00     0.099 A 
ATOM     22  N   UNL d   1      -7.831   6.026   0.000  0.00  0.00    -0.242 NA
ATOM     23  C   UNL d   1      -7.280   5.420   0.000  0.00  0.00     0.099 A 
ATOM     24  C   UNL d   1      -6.476   5.599   0.000  0.00  0.00     0.022 A 
ENDBRANCH   7  19
TORSDOF 4
