REMARK  8 active torsions:
REMARK  status: ('A' for Active; 'I' for Inactive)
REMARK    1  A    between atoms: C_3  and  N_1 
REMARK    2  A    between atoms: C_6  and  N_2 
REMARK    3  A    between atoms: C_4  and  C_3 
REMARK    4  A    between atoms: C_7  and  C_3 
REMARK       I    between atoms: C_5  and  N_8 
REMARK    5  A    between atoms: O_18  and  C_5 
REMARK    6  A    between atoms: N_8  and  C_7 
REMARK    7  A    between atoms: C_21  and  O_18 
REMARK    8  A    between atoms: C_22  and  C_21 
ROOT
ATOM      1  C   UNL d   1      -4.203   5.972   0.000  0.00  0.00     0.107 C 
ENDROOT
BRANCH   1   2
ATOM      2  N   UNL d   1      -4.918   5.546   0.000  0.00  0.00    -0.298 N 
ATOM      3  C   UNL d   1      -5.633   5.958   0.000  0.00  0.00     0.100 A 
ATOM      4  C   UNL d   1      -6.348   5.546   0.000  0.00  0.00     0.100 A 
ATOM      5  N   UNL d   1      -6.348   4.721   0.000  0.00  0.00    -0.299 N 
ATOM      6  C   UNL d   1      -5.633   4.313   0.000  0.00  0.00     0.100 A 
ATOM      7  C   UNL d   1      -4.918   4.721   0.000  0.00  0.00     0.100 A 
BRANCH   5   8
ATOM      8  C   UNL d   1      -7.058   4.313   0.000  0.00  0.00     0.092 A 
ATOM      9  C   UNL d   1      -7.773   4.721   0.000  0.00  0.00     0.156 A 
ATOM     10  F   UNL d   1      -7.773   5.546   0.000  0.00  0.00    -0.203 F 
ATOM     11  C   UNL d   1      -8.488   4.313   0.000  0.00  0.00     0.031 A 
ATOM     12  C   UNL d   1      -8.488   3.488   0.000  0.00  0.00     0.002 A 
ATOM     13  C   UNL d   1      -7.769   3.075   0.000  0.00  0.00     0.002 A 
ATOM     14  C   UNL d   1      -7.058   3.488   0.000  0.00  0.00     0.020 A 
ENDBRANCH   5   8
ENDBRANCH   1   2
BRANCH   1  15
ATOM     15  C   UNL d   1      -4.207   6.797   0.000  0.00  0.00     0.118 A 
ATOM     16  O   UNL d   1      -4.918   7.210   0.000  0.00  0.00    -0.304 OA
ATOM     17  C   UNL d   1      -4.744   8.021   0.000  0.00  0.00     0.123 A 
ATOM     18  C   UNL d   1      -3.933   8.103   0.000  0.00  0.00     0.029 A 
ATOM     19  C   UNL d   1      -3.598   7.356   0.000  0.00  0.00     0.028 A 
ENDBRANCH   1  15
BRANCH   1  20
ATOM     20  C   UNL d   1      -3.479   5.560   0.000  0.00  0.00     0.124 C 
BRANCH  20  21
ATOM     21  N   UNL d   1      -3.474   4.735   0.000  0.00  0.00    -0.183 NA
ATOM     22  C   UNL d   1      -2.759   4.327   0.000  0.00  0.00     0.392 C 
ATOM     23  O   UNL d   1      -2.049   4.735   0.000  0.00  0.00    -0.236 OA
BRANCH  22  24
ATOM     24  O   UNL d   1      -2.759   3.502   0.000  0.00  0.00    -0.256 OA
BRANCH  24  25
ATOM     25  C   UNL d   1      -2.049   3.089   0.000  0.00  0.00     0.128 C 
BRANCH  25  26
ATOM     26  C   UNL d   1      -2.049   2.264   0.000  0.00  0.00     0.025 A 
ATOM     27  C   UNL d   1      -2.764   1.852   0.000  0.00  0.00     0.002 A 
ATOM     28  C   UNL d   1      -2.764   1.027   0.000  0.00  0.00     0.000 A 
ATOM     29  C   UNL d   1      -2.049   0.614   0.000  0.00  0.00     0.000 A 
ATOM     30  C   UNL d   1      -1.343   1.027   0.000  0.00  0.00     0.000 A 
ATOM     31  C   UNL d   1      -1.334   1.852   0.000  0.00  0.00     0.002 A 
ENDBRANCH  25  26
ENDBRANCH  24  25
ENDBRANCH  22  24
ENDBRANCH  20  21
ENDBRANCH   1  20
TORSDOF 8
