REMARK  5 active torsions:
REMARK  status: ('A' for Active; 'I' for Inactive)
REMARK    1  A    between atoms: C_2  and  C_1 
REMARK    2  A    between atoms: C_4  and  C_1 
REMARK       I    between atoms: N_3  and  C_2 
REMARK    3  A    between atoms: C_5  and  N_3 
REMARK    4  A    between atoms: C_11  and  C_5 
REMARK    5  A    between atoms: C_12  and  C_5 
ROOT
ATOM      1  C   UNL d   1      -3.040   4.216   0.000  0.00  0.00     0.315 C 
ATOM      2  N   UNL d   1      -3.828   4.466   0.000  0.00  0.00    -0.367 NA
ATOM      3  O   UNL d   1      -2.861   3.411   0.000  0.00  0.00    -0.255 OA
ENDROOT
BRANCH   2   4
ATOM      4  C   UNL d   1      -4.850   4.783   0.000  0.00  0.00     0.135 C 
BRANCH   4   5
ATOM      5  C   UNL d   1      -5.012   5.509   0.000  0.00  0.00     0.030 A 
ATOM      6  C   UNL d   1      -5.775   5.755   0.000  0.00  0.00     0.003 A 
ATOM      7  C   UNL d   1      -5.976   6.559   0.000  0.00  0.00     0.000 A 
ATOM      8  C   UNL d   1      -5.338   7.131   0.000  0.00  0.00     0.000 A 
ATOM      9  C   UNL d   1      -4.574   6.885   0.000  0.00  0.00     0.000 A 
ATOM     10  C   UNL d   1      -4.387   6.047   0.000  0.00  0.00     0.003 A 
ENDBRANCH   4   5
BRANCH   4  11
ATOM     11  C   UNL d   1      -5.400   4.295   0.000  0.00  0.00     0.030 A 
ATOM     12  C   UNL d   1      -6.155   4.545   0.000  0.00  0.00     0.003 A 
ATOM     13  C   UNL d   1      -6.785   4.007   0.000  0.00  0.00     0.000 A 
ATOM     14  C   UNL d   1      -6.585   3.211   0.000  0.00  0.00     0.000 A 
ATOM     15  C   UNL d   1      -5.825   2.965   0.000  0.00  0.00     0.000 A 
ATOM     16  C   UNL d   1      -5.200   3.503   0.000  0.00  0.00     0.003 A 
ENDBRANCH   4  11
ENDBRANCH   2   4
BRANCH   1  17
ATOM     17  C   UNL d   1      -2.423   4.771   0.000  0.00  0.00     0.150 A 
ATOM     18  C   UNL d   1      -1.814   5.317   0.000  0.00  0.00     0.019 A 
ATOM     19  C   UNL d   1      -1.985   6.134   0.000  0.00  0.00     0.119 A 
ATOM     20  O   UNL d   1      -2.760   6.393   0.000  0.00  0.00    -0.304 OA
ATOM     21  C   UNL d   1      -3.378   5.842   0.000  0.00  0.00     0.119 A 
ATOM     22  C   UNL d   1      -3.211   5.029   0.000  0.00  0.00     0.019 A 
BRANCH  17  23
ATOM     23  C   UNL d   1      -1.635   4.508   0.000  0.00  0.00     0.024 A 
ATOM     24  S   UNL d   1      -0.951   4.983   0.000  0.00  0.00    -0.090 SA
ATOM     25  C   UNL d   1      -0.283   4.495   0.000  0.00  0.00     0.035 A 
ATOM     26  C   UNL d   1      -0.534   3.711   0.000  0.00  0.00     0.007 A 
ATOM     27  C   UNL d   1      -1.372   3.716   0.000  0.00  0.00     0.004 A 
ENDBRANCH  17  23
ENDBRANCH   1  17
TORSDOF 5
