REMARK  3 active torsions:
REMARK  status: ('A' for Active; 'I' for Inactive)
REMARK    1  A    between atoms: C_13  and  C_5 
REMARK       I    between atoms: C_7  and  N_12 
REMARK    2  A    between atoms: C_10  and  C_7 
REMARK    3  A    between atoms: N_12  and  C_15 
ROOT
ATOM      1  C   UNL d   1      -3.744   6.239   0.000  0.00  0.00     0.021 A 
ATOM      2  C   UNL d   1      -3.032   4.992   0.000  0.00  0.00     0.085 A 
ATOM      3  C   UNL d   1      -3.744   5.408   0.000  0.00  0.00     0.021 A 
ATOM      4  C   UNL d   1      -3.028   6.643   0.000  0.00  0.00     0.002 A 
ATOM      5  C   UNL d   1      -2.317   6.239   0.000  0.00  0.00     0.002 A 
ATOM      6  C   UNL d   1      -2.317   5.408   0.000  0.00  0.00     0.019 A 
ENDROOT
BRANCH   1   7
ATOM      7  C   UNL d   1      -4.463   6.643   0.000  0.00  0.00     0.102 A 
ATOM      8  N   UNL d   1      -4.451   7.475   0.000  0.00  0.00    -0.162 NA
ATOM      9  N   UNL d   1      -5.175   7.891   0.000  0.00  0.00    -0.189 N 
ATOM     10  C   UNL d   1      -5.898   7.479   0.000  0.00  0.00     0.187 A 
ATOM     11  C   UNL d   1      -5.337   8.690   0.000  0.00  0.00     0.224 A 
ATOM     12  N   UNL d   1      -6.481   8.036   0.000  0.00  0.00    -0.127 NA
ATOM     13  C   UNL d   1      -5.886   6.643   0.000  0.00  0.00     0.042 A 
ATOM     14  N   UNL d   1      -6.144   8.785   0.000  0.00  0.00    -0.124 NA
ATOM     15  C   UNL d   1      -5.166   6.231   0.000  0.00  0.00     0.024 A 
ENDBRANCH   1   7
BRANCH   2  16
ATOM     16  N   UNL d   1      -3.032   4.172   0.000  0.00  0.00    -0.206 NA
ATOM     17  C   UNL d   1      -3.744   3.764   0.000  0.00  0.00     0.302 C 
ATOM     18  O   UNL d   1      -4.463   4.172   0.000  0.00  0.00    -0.263 OA
BRANCH  17  19
ATOM     19  C   UNL d   1      -3.744   2.941   0.000  0.00  0.00     0.158 A 
ATOM     20  O   UNL d   1      -4.405   2.454   0.000  0.00  0.00    -0.300 OA
ATOM     21  C   UNL d   1      -4.151   1.672   0.000  0.00  0.00     0.123 A 
ATOM     22  C   UNL d   1      -3.319   1.672   0.000  0.00  0.00     0.029 A 
ATOM     23  C   UNL d   1      -3.070   2.454   0.000  0.00  0.00     0.032 A 
ENDBRANCH  17  19
ENDBRANCH   2  16
TORSDOF 3
