REMARK  5 active torsions:
REMARK  status: ('A' for Active; 'I' for Inactive)
REMARK    1  A    between atoms: C_7  and  N_1 
REMARK       I    between atoms: C_4  and  N_8 
REMARK       I    between atoms: N_10  and  C_4 
REMARK    2  A    between atoms: N_8  and  C_5 
REMARK    3  A    between atoms: C_15  and  N_10 
REMARK    4  A    between atoms: O_18  and  C_14 
REMARK    5  A    between atoms: C_19  and  C_15 
ROOT
ATOM      1  N   UNL d   1      -3.108   1.283   0.000  0.00  0.00    -0.272 N 
ATOM      2  C   UNL d   1      -3.783   1.762   0.000  0.00  0.00     0.266 A 
ATOM      3  C   UNL d   1      -3.521   2.550   0.000  0.00  0.00     0.082 A 
ATOM      4  C   UNL d   1      -2.696   2.550   0.000  0.00  0.00     0.108 A 
ATOM      5  C   UNL d   1      -2.446   1.762   0.000  0.00  0.00     0.102 A 
ATOM      6  O   UNL d   1      -4.562   1.508   0.000  0.00  0.00    -0.267 OA
ENDROOT
BRANCH   1   7
ATOM      7  C   UNL d   1      -3.108   0.458   0.000  0.00  0.00     0.067 A 
ATOM      8  C   UNL d   1      -3.825   0.046   0.000  0.00  0.00     0.020 A 
ATOM      9  C   UNL d   1      -3.825  -0.779   0.000  0.00  0.00     0.026 A 
ATOM     10  C   UNL d   1      -3.112  -1.192   0.000  0.00  0.00     0.094 A 
ATOM     11  C   UNL d   1      -2.396  -0.787   0.000  0.00  0.00     0.026 A 
ATOM     12  C   UNL d   1      -2.396   0.046   0.000  0.00  0.00     0.020 A 
BRANCH  10  13
ATOM     13  O   UNL d   1      -3.121  -2.017   0.000  0.00  0.00    -0.328 OA
ATOM     14  C   UNL d   1      -2.408  -2.429   0.000  0.00  0.00     0.181 C 
ENDBRANCH  10  13
ENDBRANCH   1   7
BRANCH   4  15
ATOM     15  N   UNL d   1      -2.212   3.221   0.000  0.00  0.00    -0.189 NA
ATOM     16  C   UNL d   1      -1.396   3.133   0.000  0.00  0.00     0.369 C 
ATOM     17  N   UNL d   1      -0.908   3.800   0.000  0.00  0.00    -0.189 NA
ATOM     18  O   UNL d   1      -1.058   2.383   0.000  0.00  0.00    -0.242 OA
BRANCH  17  19
ATOM     19  C   UNL d   1      -1.246   4.542   0.000  0.00  0.00     0.104 C 
BRANCH  19  20
ATOM     20  C   UNL d   1      -0.771   5.217   0.000  0.00  0.00     0.019 C 
ATOM     21  C   UNL d   1      -1.108   5.967   0.000  0.00  0.00     0.002 C 
ATOM     22  C   UNL d   1       0.054   5.142   0.000  0.00  0.00     0.002 C 
ENDBRANCH  19  20
ENDBRANCH  17  19
ENDBRANCH   4  15
TORSDOF 5
