REMARK  7 active torsions:
REMARK  status: ('A' for Active; 'I' for Inactive)
REMARK    1  A    between atoms: C_8  and  N_1 
REMARK       I    between atoms: C_3  and  N_5 
REMARK       I    between atoms: N_9  and  C_3 
REMARK    2  A    between atoms: N_5  and  C_6 
REMARK    3  A    between atoms: C_18  and  N_9 
REMARK    4  A    between atoms: C_19  and  N_9 
REMARK    5  A    between atoms: O_17  and  C_14 
REMARK    6  A    between atoms: C_21  and  C_18 
REMARK    7  A    between atoms: C_22  and  C_19 
ROOT
ATOM      1  N   UNL d   1      -3.108   1.283   0.000  0.00  0.00    -0.272 N 
ATOM      2  C   UNL d   1      -3.783   1.762   0.000  0.00  0.00     0.266 A 
ATOM      3  C   UNL d   1      -3.521   2.550   0.000  0.00  0.00     0.082 A 
ATOM      4  C   UNL d   1      -2.696   2.550   0.000  0.00  0.00     0.108 A 
ATOM      5  C   UNL d   1      -2.446   1.762   0.000  0.00  0.00     0.102 A 
ATOM      6  O   UNL d   1      -4.562   1.508   0.000  0.00  0.00    -0.267 OA
ENDROOT
BRANCH   4   7
ATOM      7  N   UNL d   1      -2.212   3.221   0.000  0.00  0.00    -0.190 NA
ATOM      8  C   UNL d   1      -1.396   3.133   0.000  0.00  0.00     0.354 C 
ATOM      9  N   UNL d   1      -0.908   3.800   0.000  0.00  0.00    -0.256 N 
ATOM     10  O   UNL d   1      -1.058   2.383   0.000  0.00  0.00    -0.244 OA
BRANCH   9  11
ATOM     11  C   UNL d   1      -0.083   3.721   0.000  0.00  0.00     0.085 C 
BRANCH  11  12
ATOM     12  C   UNL d   1       0.404   4.379   0.000  0.00  0.00     0.019 C 
ATOM     13  C   UNL d   1       1.225   4.304   0.000  0.00  0.00     0.002 C 
ENDBRANCH  11  12
ENDBRANCH   9  11
BRANCH   9  14
ATOM     14  C   UNL d   1      -1.246   4.554   0.000  0.00  0.00     0.085 C 
BRANCH  14  15
ATOM     15  C   UNL d   1      -0.758   5.217   0.000  0.00  0.00     0.019 C 
ATOM     16  C   UNL d   1      -1.096   5.979   0.000  0.00  0.00     0.002 C 
ENDBRANCH  14  15
ENDBRANCH   9  14
ENDBRANCH   4   7
BRANCH   1  17
ATOM     17  C   UNL d   1      -3.108   0.458   0.000  0.00  0.00     0.067 A 
ATOM     18  C   UNL d   1      -3.825   0.046   0.000  0.00  0.00     0.020 A 
ATOM     19  C   UNL d   1      -3.825  -0.779   0.000  0.00  0.00     0.026 A 
ATOM     20  C   UNL d   1      -3.112  -1.192   0.000  0.00  0.00     0.094 A 
ATOM     21  C   UNL d   1      -2.396  -0.787   0.000  0.00  0.00     0.026 A 
ATOM     22  C   UNL d   1      -2.396   0.046   0.000  0.00  0.00     0.020 A 
BRANCH  20  23
ATOM     23  O   UNL d   1      -3.121  -2.017   0.000  0.00  0.00    -0.328 OA
ATOM     24  C   UNL d   1      -2.408  -2.429   0.000  0.00  0.00     0.181 C 
ENDBRANCH  20  23
ENDBRANCH   1  17
TORSDOF 7
