REMARK  6 active torsions:
REMARK  status: ('A' for Active; 'I' for Inactive)
REMARK    1  A    between atoms: O_8  and  C_1 
REMARK    2  A    between atoms: C_2  and  C_3 
REMARK    3  A    between atoms: C_3  and  O_8 
REMARK    4  A    between atoms: C_4  and  S_17 
REMARK    5  A    between atoms: C_23  and  C_14 
REMARK    6  A    between atoms: S_17  and  C_23 
ROOT
ATOM      1  C   UNL d   1      -2.983   2.558   0.000  0.00  0.00     0.167 A 
ATOM      2  C   UNL d   1      -2.271   2.983   0.000  0.00  0.00     0.222 A 
ATOM      3  C   UNL d   1      -1.558   2.558   0.000  0.00  0.00     0.069 A 
ATOM      4  C   UNL d   1      -2.983   1.733   0.000  0.00  0.00     0.151 A 
ATOM      5  C   UNL d   1      -1.558   1.733   0.000  0.00  0.00     0.110 A 
ATOM      6  O   UNL d   1      -2.271   1.325   0.000  0.00  0.00    -0.302 OA
ATOM      7  O   UNL d   1      -2.271   3.800   0.000  0.00  0.00    -0.284 OA
ENDROOT
BRANCH   5   8
ATOM      8  C   UNL d   1      -0.846   1.321   0.000  0.00  0.00     0.063 C 
BRANCH   8   9
ATOM      9  S   UNL d   1      -0.263   1.908   0.000  0.00  0.00    -0.046 SA
BRANCH   9  10
ATOM     10  C   UNL d   1       0.529   1.700   0.000  0.00  0.00     0.194 A 
ATOM     11  N   UNL d   1       1.104   2.288   0.000  0.00  0.00    -0.221 NA
ATOM     12  C   UNL d   1       1.892   2.083   0.000  0.00  0.00     0.085 A 
ATOM     13  C   UNL d   1       2.467   2.671   0.000  0.00  0.00     0.021 C 
ATOM     14  C   UNL d   1       2.117   1.288   0.000  0.00  0.00     0.038 A 
ATOM     15  C   UNL d   1       1.529   0.708   0.000  0.00  0.00     0.085 A 
ATOM     16  N   UNL d   1       0.742   0.921   0.000  0.00  0.00    -0.221 NA
ATOM     17  C   UNL d   1       1.754  -0.087   0.000  0.00  0.00     0.021 C 
ENDBRANCH   9  10
ENDBRANCH   8   9
ENDBRANCH   5   8
BRANCH   1  18
ATOM     18  O   UNL d   1      -3.783   2.775   0.000  0.00  0.00    -0.266 OA
BRANCH  18  19
ATOM     19  C   UNL d   1      -3.996   3.571   0.000  0.00  0.00     0.323 C 
ATOM     20  O   UNL d   1      -3.421   4.142   0.000  0.00  0.00    -0.257 OA
BRANCH  19  21
ATOM     21  C   UNL d   1      -4.796   3.796   0.000  0.00  0.00     0.164 A 
ATOM     22  O   UNL d   1      -5.421   3.275   0.000  0.00  0.00    -0.295 OA
ATOM     23  C   UNL d   1      -6.104   3.733   0.000  0.00  0.00     0.134 A 
ATOM     24 BR   UNL d   1      -6.867   3.433   0.000  0.00  0.00    -0.022 Br
ATOM     25  C   UNL d   1      -5.896   4.504   0.000  0.00  0.00     0.034 A 
ATOM     26  C   UNL d   1      -5.083   4.542   0.000  0.00  0.00     0.033 A 
ENDBRANCH  19  21
ENDBRANCH  18  19
ENDBRANCH   1  18
TORSDOF 6
