REMARK  10 active torsions:
REMARK  status: ('A' for Active; 'I' for Inactive)
REMARK    1  A    between atoms: C_11  and  S_1 
REMARK    2  A    between atoms: N_12  and  S_1 
REMARK    3  A    between atoms: C_2  and  O_7 
REMARK    4  A    between atoms: C_3  and  S_18 
REMARK    5  A    between atoms: C_6  and  C_17 
REMARK    6  A    between atoms: O_7  and  C_6 
REMARK    7  A    between atoms: C_29  and  N_12 
REMARK    8  A    between atoms: C_30  and  N_12 
REMARK    9  A    between atoms: C_28  and  C_14 
REMARK   10  A    between atoms: S_18  and  C_28 
ROOT
ATOM      1  C   UNL d   1      -2.988   2.562   0.000  0.00  0.00     0.167 A 
ATOM      2  C   UNL d   1      -2.274   2.988   0.000  0.00  0.00     0.222 A 
ATOM      3  C   UNL d   1      -1.561   2.562   0.000  0.00  0.00     0.069 A 
ATOM      4  C   UNL d   1      -2.988   1.736   0.000  0.00  0.00     0.151 A 
ATOM      5  O   UNL d   1      -2.274   1.327   0.000  0.00  0.00    -0.302 OA
ATOM      6  C   UNL d   1      -1.561   1.736   0.000  0.00  0.00     0.110 A 
ATOM      7  O   UNL d   1      -2.274   3.806   0.000  0.00  0.00    -0.284 OA
ENDROOT
BRANCH   1   8
ATOM      8  O   UNL d   1      -3.789   2.779   0.000  0.00  0.00    -0.268 OA
BRANCH   8   9
ATOM      9  C   UNL d   1      -4.002   3.576   0.000  0.00  0.00     0.300 C 
ATOM     10  O   UNL d   1      -3.413   4.148   0.000  0.00  0.00    -0.259 OA
BRANCH   9  11
ATOM     11  C   UNL d   1      -4.795   3.789   0.000  0.00  0.00     0.064 A 
ATOM     12  C   UNL d   1      -5.392   3.213   0.000  0.00  0.00     0.006 A 
ATOM     13  C   UNL d   1      -6.164   3.430   0.000  0.00  0.00     0.013 A 
ATOM     14  C   UNL d   1      -6.377   4.211   0.000  0.00  0.00     0.104 A 
ATOM     15  C   UNL d   1      -5.796   4.787   0.000  0.00  0.00     0.013 A 
ATOM     16  C   UNL d   1      -5.008   4.586   0.000  0.00  0.00     0.006 A 
BRANCH  14  17
ATOM     17  S   UNL d   1      -7.178   4.436   0.000  0.00  0.00     0.271 S 
ATOM     18  O   UNL d   1      -7.178   3.601   0.000  0.00  0.00    -0.200 OA
ATOM     19  O   UNL d   1      -8.004   4.423   0.000  0.00  0.00    -0.200 OA
BRANCH  17  20
ATOM     20  N   UNL d   1      -7.391   5.225   0.000  0.00  0.00    -0.229 N 
BRANCH  20  21
ATOM     21  C   UNL d   1      -6.815   5.801   0.000  0.00  0.00     0.092 C 
ATOM     22  C   UNL d   1      -7.023   6.602   0.000  0.00  0.00     0.021 C 
ENDBRANCH  20  21
BRANCH  20  23
ATOM     23  C   UNL d   1      -8.188   5.438   0.000  0.00  0.00     0.092 C 
ATOM     24  C   UNL d   1      -8.405   6.226   0.000  0.00  0.00     0.021 C 
ENDBRANCH  20  23
ENDBRANCH  17  20
ENDBRANCH  14  17
ENDBRANCH   9  11
ENDBRANCH   8   9
ENDBRANCH   1   8
BRANCH   6  25
ATOM     25  C   UNL d   1      -0.847   1.323   0.000  0.00  0.00     0.063 C 
BRANCH  25  26
ATOM     26  S   UNL d   1      -0.263   1.911   0.000  0.00  0.00    -0.046 SA
BRANCH  26  27
ATOM     27  C   UNL d   1       0.530   1.703   0.000  0.00  0.00     0.194 A 
ATOM     28  N   UNL d   1       1.106   2.291   0.000  0.00  0.00    -0.221 NA
ATOM     29  C   UNL d   1       1.895   2.087   0.000  0.00  0.00     0.085 A 
ATOM     30  C   UNL d   1       2.470   2.675   0.000  0.00  0.00     0.021 C 
ATOM     31  C   UNL d   1       2.120   1.290   0.000  0.00  0.00     0.038 A 
ATOM     32  C   UNL d   1       1.532   0.709   0.000  0.00  0.00     0.085 A 
ATOM     33  N   UNL d   1       0.743   0.922   0.000  0.00  0.00    -0.221 NA
ATOM     34  C   UNL d   1       1.757  -0.088   0.000  0.00  0.00     0.021 C 
ENDBRANCH  26  27
ENDBRANCH  25  26
ENDBRANCH   6  25
TORSDOF 10
