REMARK  7 active torsions:
REMARK  status: ('A' for Active; 'I' for Inactive)
REMARK    1  A    between atoms: N_3  and  C_1 
REMARK       I    between atoms: C_7  and  N_3 
REMARK    2  A    between atoms: C_11  and  N_3 
REMARK    3  A    between atoms: S_5  and  C_10 
REMARK    4  A    between atoms: C_14  and  S_5 
REMARK    5  A    between atoms: C_9  and  C_7 
REMARK    6  A    between atoms: C_10  and  C_9 
REMARK    7  A    between atoms: C_18  and  C_11 
ROOT
ATOM      1  N   UNL d   1      -3.846   2.558   0.000  0.00  0.00    -0.253 N 
ATOM      2  C   UNL d   1      -3.846   3.396   0.000  0.00  0.00     0.267 C 
ATOM      3  O   UNL d   1      -4.562   3.800   0.000  0.00  0.00    -0.267 OA
ENDROOT
BRANCH   1   4
ATOM      4  C   UNL d   1      -4.562   2.150   0.000  0.00  0.00     0.182 A 
ATOM      5  N   UNL d   1      -4.658   1.325   0.000  0.00  0.00    -0.219 NA
ATOM      6  C   UNL d   1      -5.471   1.158   0.000  0.00  0.00     0.117 A 
ATOM      7  C   UNL d   1      -5.871   0.446   0.000  0.00  0.00     0.158 A 
ATOM      8  C   UNL d   1      -5.875   1.871   0.000  0.00  0.00     0.052 A 
ATOM      9  F   UNL d   1      -5.471  -0.267   0.000  0.00  0.00    -0.203 F 
ATOM     10  C   UNL d   1      -6.688   0.450   0.000  0.00  0.00     0.031 A 
ATOM     11  C   UNL d   1      -7.104   1.163   0.000  0.00  0.00     0.003 A 
ATOM     12  C   UNL d   1      -6.692   1.875   0.000  0.00  0.00     0.008 A 
ATOM     13  S   UNL d   1      -5.321   2.487   0.000  0.00  0.00    -0.048 SA
ENDBRANCH   1   4
BRANCH   1  14
ATOM     14  C   UNL d   1      -3.133   2.146   0.000  0.00  0.00     0.086 C 
BRANCH  14  15
ATOM     15  C   UNL d   1      -3.133   1.321   0.000  0.00  0.00     0.037 A 
ATOM     16  C   UNL d   1      -2.421   0.908   0.000  0.00  0.00     0.100 A 
ATOM     17  N   UNL d   1      -2.421   0.083   0.000  0.00  0.00    -0.242 NA
ATOM     18  C   UNL d   1      -3.133  -0.329   0.000  0.00  0.00     0.099 A 
ATOM     19  C   UNL d   1      -3.850   0.083   0.000  0.00  0.00     0.021 A 
ATOM     20  C   UNL d   1      -3.850   0.908   0.000  0.00  0.00     0.005 A 
ENDBRANCH  14  15
ENDBRANCH   1  14
BRANCH   2  21
ATOM     21  C   UNL d   1      -3.133   3.800   0.000  0.00  0.00     0.073 C 
BRANCH  21  22
ATOM     22  C   UNL d   1      -3.133   4.629   0.000  0.00  0.00     0.104 C 
BRANCH  22  23
ATOM     23  S   UNL d   1      -3.850   5.042   0.000  0.00  0.00     0.211 S 
ATOM     24  O   UNL d   1      -4.271   4.317   0.000  0.00  0.00    -0.217 OA
ATOM     25  O   UNL d   1      -3.433   5.763   0.000  0.00  0.00    -0.217 OA
BRANCH  23  26
ATOM     26  C   UNL d   1      -4.571   5.454   0.000  0.00  0.00     0.088 A 
ATOM     27  C   UNL d   1      -4.571   6.279   0.000  0.00  0.00     0.011 A 
ATOM     28  C   UNL d   1      -5.283   6.692   0.000  0.00  0.00     0.001 A 
ATOM     29  C   UNL d   1      -5.996   6.279   0.000  0.00  0.00     0.000 A 
ATOM     30  C   UNL d   1      -6.000   5.463   0.000  0.00  0.00     0.001 A 
ATOM     31  C   UNL d   1      -5.287   5.042   0.000  0.00  0.00     0.011 A 
ENDBRANCH  23  26
ENDBRANCH  22  23
ENDBRANCH  21  22
ENDBRANCH   2  21
TORSDOF 7
