REMARK  7 active torsions:
REMARK  status: ('A' for Active; 'I' for Inactive)
REMARK    1  A    between atoms: C_7  and  N_1 
REMARK    2  A    between atoms: S_15  and  C_3 
REMARK    3  A    between atoms: O_8  and  C_7 
REMARK    4  A    between atoms: C_10  and  O_8 
REMARK    5  A    between atoms: C_19  and  C_10 
REMARK    6  A    between atoms: C_13  and  O_14 
REMARK    7  A    between atoms: O_14  and  C_19 
ROOT
ATOM      1  O   UNL d   1      -2.113   4.056   0.000  0.00  0.00    -0.251 OA
ENDROOT
BRANCH   1   2
ATOM      2  C   UNL d   1      -2.113   3.231   0.000  0.00  0.00     0.215 C 
BRANCH   2   3
ATOM      3  N   UNL d   1      -2.828   2.814   0.000  0.00  0.00    -0.229 N 
ATOM      4  C   UNL d   1      -3.543   3.227   0.000  0.00  0.00     0.287 A 
ATOM      5  C   UNL d   1      -4.258   2.814   0.000  0.00  0.00     0.159 A 
ATOM      6  O   UNL d   1      -3.543   4.052   0.000  0.00  0.00    -0.265 OA
ATOM      7  C   UNL d   1      -4.973   3.240   0.000  0.00  0.00     0.028 C 
ATOM      8  N   UNL d   1      -4.258   1.989   0.000  0.00  0.00    -0.141 NA
ATOM      9  N   UNL d   1      -3.543   1.577   0.000  0.00  0.00    -0.123 NA
ATOM     10  C   UNL d   1      -2.828   1.989   0.000  0.00  0.00     0.200 A 
BRANCH  10  11
ATOM     11  S   UNL d   1      -2.113   1.577   0.000  0.00  0.00    -0.074 SA
ATOM     12  C   UNL d   1      -2.113   0.752   0.000  0.00  0.00     0.077 C 
ENDBRANCH  10  11
ENDBRANCH   2   3
ENDBRANCH   1   2
BRANCH   1  13
ATOM     13  C   UNL d   1      -1.398   4.469   0.000  0.00  0.00     0.327 C 
ATOM     14  O   UNL d   1      -0.683   4.056   0.000  0.00  0.00    -0.256 OA
BRANCH  13  15
ATOM     15  C   UNL d   1      -1.398   5.294   0.000  0.00  0.00     0.191 C 
BRANCH  15  16
ATOM     16  O   UNL d   1      -0.688   5.706   0.000  0.00  0.00    -0.299 OA
BRANCH  16  17
ATOM     17  C   UNL d   1      -0.688   6.531   0.000  0.00  0.00     0.111 A 
ATOM     18  C   UNL d   1       0.018   6.944   0.000  0.00  0.00     0.081 A 
ATOM     19  C   UNL d   1       0.018   7.769   0.000  0.00  0.00     0.025 A 
ATOM     20 CL   UNL d   1       0.743   6.522   0.000  0.00  0.00    -0.080 Cl
ATOM     21  C   UNL d   1      -0.688   8.181   0.000  0.00  0.00     0.059 A 
ATOM     22  C   UNL d   1      -1.403   7.769   0.000  0.00  0.00     0.013 A 
ATOM     23 CL   UNL d   1      -0.683   9.006   0.000  0.00  0.00    -0.082 Cl
ATOM     24  C   UNL d   1      -1.403   6.944   0.000  0.00  0.00     0.026 A 
ENDBRANCH  16  17
ENDBRANCH  15  16
ENDBRANCH  13  15
ENDBRANCH   1  13
TORSDOF 7
