REMARK  5 active torsions:
REMARK  status: ('A' for Active; 'I' for Inactive)
REMARK    1  A    between atoms: N_4  and  C_1 
REMARK       I    between atoms: C_7  and  N_4 
REMARK    2  A    between atoms: C_8  and  C_7 
REMARK    3  A    between atoms: C_12  and  C_8 
REMARK    4  A    between atoms: S_10  and  C_12 
REMARK    5  A    between atoms: C_11  and  S_10 
ROOT
ATOM      1  C   UNL d   1      -3.149   5.034   0.000  0.00  0.00     0.070 C 
ENDROOT
BRANCH   1   2
ATOM      2  C   UNL d   1      -3.162   4.217   0.000  0.00  0.00     0.281 C 
ATOM      3  N   UNL d   1      -3.875   3.804   0.000  0.00  0.00    -0.187 NA
ATOM      4  O   UNL d   1      -2.436   3.812   0.000  0.00  0.00    -0.265 OA
BRANCH   3   5
ATOM      5  C   UNL d   1      -3.875   2.928   0.000  0.00  0.00     0.194 A 
ATOM      6  N   UNL d   1      -3.124   2.586   0.000  0.00  0.00    -0.107 NA
ATOM      7  O   UNL d   1      -3.212   1.773   0.000  0.00  0.00    -0.210 OA
ATOM      8  C   UNL d   1      -4.025   1.610   0.000  0.00  0.00     0.128 A 
ATOM      9  C   UNL d   1      -4.425   2.336   0.000  0.00  0.00     0.068 A 
ATOM     10  C   UNL d   1      -4.363   0.863   0.000  0.00  0.00     0.029 C 
ENDBRANCH   3   5
ENDBRANCH   1   2
BRANCH   1  11
ATOM     11  C   UNL d   1      -2.448   5.460   0.000  0.00  0.00     0.040 C 
BRANCH  11  12
ATOM     12  S   UNL d   1      -2.461   6.285   0.000  0.00  0.00    -0.086 SA
BRANCH  12  13
ATOM     13  C   UNL d   1      -1.739   6.711   0.000  0.00  0.00     0.029 A 
ATOM     14  C   UNL d   1      -1.748   7.537   0.000  0.00  0.00     0.007 A 
ATOM     15  C   UNL d   1      -1.026   7.962   0.000  0.00  0.00     0.012 A 
ATOM     16  C   UNL d   1      -0.313   7.549   0.000  0.00  0.00     0.058 A 
ATOM     17  C   UNL d   1      -0.309   6.723   0.000  0.00  0.00     0.012 A 
ATOM     18 CL   UNL d   1       0.405   7.975   0.000  0.00  0.00    -0.082 Cl
ATOM     19  C   UNL d   1      -1.022   6.306   0.000  0.00  0.00     0.007 A 
ENDBRANCH  12  13
ENDBRANCH  11  12
ENDBRANCH   1  11
TORSDOF 5
