REMARK  6 active torsions:
REMARK  status: ('A' for Active; 'I' for Inactive)
REMARK    1  A    between atoms: S_9  and  C_3 
REMARK    2  A    between atoms: C_4  and  C_17 
REMARK       I    between atoms: N_8  and  C_4 
REMARK    3  A    between atoms: C_5  and  C_16 
REMARK    4  A    between atoms: C_14  and  C_6 
REMARK    5  A    between atoms: C_16  and  N_8 
REMARK    6  A    between atoms: C_17  and  S_9 
ROOT
ATOM      1  N   UNL d   1       3.462  -0.846   0.000  0.00  0.00    -0.148 NA
ATOM      2  N   UNL d   1       3.470  -1.671   0.000  0.00  0.00    -0.141 NA
ATOM      3  C   UNL d   1       4.183  -2.081   0.000  0.00  0.00     0.133 A 
ATOM      4  C   UNL d   1       4.183  -0.435   0.000  0.00  0.00     0.103 A 
ATOM      5  C   UNL d   1       4.892  -0.837   0.000  0.00  0.00     0.023 A 
ATOM      6  C   UNL d   1       4.904  -1.658   0.000  0.00  0.00     0.029 A 
ENDROOT
BRANCH   3   7
ATOM      7  S   UNL d   1       4.183  -2.902   0.000  0.00  0.00    -0.061 SA
BRANCH   7   8
ATOM      8  C   UNL d   1       3.470  -3.312   0.000  0.00  0.00     0.099 C 
BRANCH   8   9
ATOM      9  C   UNL d   1       2.753  -2.902   0.000  0.00  0.00     0.286 C 
ATOM     10  N   UNL d   1       2.044  -3.312   0.000  0.00  0.00    -0.204 NA
ATOM     11  O   UNL d   1       2.753  -2.081   0.000  0.00  0.00    -0.265 OA
BRANCH  10  12
ATOM     12  C   UNL d   1       1.335  -2.910   0.000  0.00  0.00     0.127 C 
BRANCH  12  13
ATOM     13  C   UNL d   1       0.626  -3.325   0.000  0.00  0.00     0.119 A 
ATOM     14  O   UNL d   1       0.539  -4.141   0.000  0.00  0.00    -0.304 OA
ATOM     15  C   UNL d   1      -0.261  -4.316   0.000  0.00  0.00     0.123 A 
ATOM     16  C   UNL d   1      -0.672  -3.607   0.000  0.00  0.00     0.029 A 
ATOM     17  C   UNL d   1      -0.133  -2.989   0.000  0.00  0.00     0.028 A 
ENDBRANCH  12  13
ENDBRANCH  10  12
ENDBRANCH   8   9
ENDBRANCH   7   8
ENDBRANCH   3   7
BRANCH   4  18
ATOM     18  C   UNL d   1       4.179   0.394   0.000  0.00  0.00     0.019 A 
ATOM     19  C   UNL d   1       3.457   0.817   0.000  0.00  0.00     0.002 A 
ATOM     20  C   UNL d   1       3.462   1.642   0.000  0.00  0.00     0.000 A 
ATOM     21  C   UNL d   1       4.170   2.052   0.000  0.00  0.00     0.000 A 
ATOM     22  C   UNL d   1       4.892   1.642   0.000  0.00  0.00     0.000 A 
ATOM     23  C   UNL d   1       4.892   0.817   0.000  0.00  0.00     0.002 A 
ENDBRANCH   4  18
TORSDOF 6
