REMARK  4 active torsions:
REMARK  status: ('A' for Active; 'I' for Inactive)
REMARK    1  A    between atoms: N_7  and  C_1 
REMARK    2  A    between atoms: S_2  and  C_8 
REMARK    3  A    between atoms: C_10  and  S_2 
REMARK       I    between atoms: C_9  and  N_7 
REMARK    4  A    between atoms: C_8  and  C_9 
ROOT
ATOM      1  N   UNL d   1      -3.869   3.798   0.000  0.00  0.00    -0.182 NA
ATOM      2  C   UNL d   1      -3.157   4.210   0.000  0.00  0.00     0.293 C 
ATOM      3  O   UNL d   1      -2.436   3.806   0.000  0.00  0.00    -0.264 OA
ENDROOT
BRANCH   2   4
ATOM      4  C   UNL d   1      -3.144   5.027   0.000  0.00  0.00     0.161 C 
BRANCH   4   5
ATOM      5  S   UNL d   1      -3.873   5.447   0.000  0.00  0.00     0.215 S 
ATOM      6  O   UNL d   1      -3.457   6.172   0.000  0.00  0.00    -0.217 OA
ATOM      7  O   UNL d   1      -4.281   4.727   0.000  0.00  0.00    -0.217 OA
BRANCH   5   8
ATOM      8  C   UNL d   1      -4.593   5.864   0.000  0.00  0.00     0.088 A 
ATOM      9  C   UNL d   1      -5.306   5.452   0.000  0.00  0.00     0.012 A 
ATOM     10  C   UNL d   1      -6.014   5.864   0.000  0.00  0.00     0.012 A 
ATOM     11  C   UNL d   1      -6.010   6.688   0.000  0.00  0.00     0.058 A 
ATOM     12  C   UNL d   1      -5.306   7.101   0.000  0.00  0.00     0.012 A 
ATOM     13 CL   UNL d   1      -6.726   7.101   0.000  0.00  0.00    -0.082 Cl
ATOM     14  C   UNL d   1      -4.593   6.684   0.000  0.00  0.00     0.012 A 
ENDBRANCH   5   8
ENDBRANCH   4   5
ENDBRANCH   2   4
BRANCH   1  15
ATOM     15  C   UNL d   1      -3.869   3.007   0.000  0.00  0.00     0.197 A 
ATOM     16  N   UNL d   1      -3.182   2.520   0.000  0.00  0.00    -0.221 NA
ATOM     17  C   UNL d   1      -3.432   1.724   0.000  0.00  0.00     0.090 A 
ATOM     18  C   UNL d   1      -3.011   1.012   0.000  0.00  0.00     0.018 A 
ATOM     19  C   UNL d   1      -4.269   1.720   0.000  0.00  0.00     0.060 A 
ATOM     20  C   UNL d   1      -3.423   0.287   0.000  0.00  0.00     0.002 A 
ATOM     21  C   UNL d   1      -2.220   1.020   0.000  0.00  0.00     0.002 C 
ATOM     22  C   UNL d   1      -4.269   0.271   0.000  0.00  0.00     0.012 A 
ATOM     23  C   UNL d   1      -4.685   0.995   0.000  0.00  0.00     0.065 A 
ATOM     24 CL   UNL d   1      -5.506   0.995   0.000  0.00  0.00    -0.082 Cl
ATOM     25  S   UNL d   1      -4.531   2.520   0.000  0.00  0.00    -0.046 SA
ENDBRANCH   1  15
TORSDOF 4
