REMARK  5 active torsions:
REMARK  status: ('A' for Active; 'I' for Inactive)
REMARK    1  A    between atoms: C_5  and  S_1 
REMARK    2  A    between atoms: C_12  and  S_1 
REMARK    3  A    between atoms: C_2  and  N_6 
REMARK    4  A    between atoms: C_13  and  C_4 
REMARK    5  A    between atoms: C_7  and  C_5 
REMARK       I    between atoms: N_6  and  C_7 
ROOT
ATOM      1  N   UNL d   1      -3.894   3.823   0.000  0.00  0.00    -0.182 NA
ATOM      2  C   UNL d   1      -3.177   4.230   0.000  0.00  0.00     0.293 C 
ATOM      3  O   UNL d   1      -2.461   3.831   0.000  0.00  0.00    -0.264 OA
ENDROOT
BRANCH   1   4
ATOM      4  C   UNL d   1      -3.894   3.001   0.000  0.00  0.00     0.197 A 
ATOM      5  N   UNL d   1      -3.215   2.515   0.000  0.00  0.00    -0.221 NA
ATOM      6  C   UNL d   1      -3.467   1.719   0.000  0.00  0.00     0.090 A 
ATOM      7  C   UNL d   1      -4.309   1.723   0.000  0.00  0.00     0.058 A 
ATOM      8  S   UNL d   1      -4.561   2.515   0.000  0.00  0.00    -0.046 SA
BRANCH   6   9
ATOM      9  C   UNL d   1      -2.980   1.052   0.000  0.00  0.00     0.018 A 
ATOM     10  C   UNL d   1      -2.171   1.144   0.000  0.00  0.00     0.004 A 
ATOM     11  C   UNL d   1      -1.681   0.490   0.000  0.00  0.00     0.030 A 
ATOM     12  C   UNL d   1      -2.008  -0.268   0.000  0.00  0.00     0.140 A 
ATOM     13  C   UNL d   1      -2.829  -0.365   0.000  0.00  0.00     0.030 A 
ATOM     14  F   UNL d   1      -1.517  -0.935   0.000  0.00  0.00    -0.204 F 
ATOM     15  C   UNL d   1      -3.316   0.302   0.000  0.00  0.00     0.004 A 
ENDBRANCH   6   9
ENDBRANCH   1   4
BRANCH   2  16
ATOM     16  C   UNL d   1      -3.177   5.059   0.000  0.00  0.00     0.161 C 
BRANCH  16  17
ATOM     17  S   UNL d   1      -3.894   5.474   0.000  0.00  0.00     0.215 S 
ATOM     18  O   UNL d   1      -4.309   4.745   0.000  0.00  0.00    -0.217 OA
ATOM     19  O   UNL d   1      -3.479   6.191   0.000  0.00  0.00    -0.217 OA
BRANCH  17  20
ATOM     20  C   UNL d   1      -4.611   5.889   0.000  0.00  0.00     0.088 A 
ATOM     21  C   UNL d   1      -4.611   6.707   0.000  0.00  0.00     0.011 A 
ATOM     22  C   UNL d   1      -5.328   7.122   0.000  0.00  0.00     0.001 A 
ATOM     23  C   UNL d   1      -6.036   6.707   0.000  0.00  0.00     0.000 A 
ATOM     24  C   UNL d   1      -6.036   5.889   0.000  0.00  0.00     0.001 A 
ATOM     25  C   UNL d   1      -5.328   5.474   0.000  0.00  0.00     0.011 A 
ENDBRANCH  17  20
ENDBRANCH  16  17
ENDBRANCH   2  16
TORSDOF 5
