REMARK  8 active torsions:
REMARK  status: ('A' for Active; 'I' for Inactive)
REMARK    1  A    between atoms: N_3  and  C_1 
REMARK       I    between atoms: C_8  and  N_3 
REMARK    2  A    between atoms: O_12  and  C_4 
REMARK    3  A    between atoms: S_20  and  C_5 
REMARK    4  A    between atoms: C_13  and  C_8 
REMARK    5  A    between atoms: C_9  and  O_12 
REMARK    6  A    between atoms: C_14  and  C_9 
REMARK    7  A    between atoms: C_16  and  C_28 
REMARK    8  A    between atoms: C_28  and  S_20 
ROOT
ATOM      1  C   UNL d   1      -3.035   2.556   0.000  0.00  0.00     0.167 A 
ATOM      2  C   UNL d   1      -2.332   2.981   0.000  0.00  0.00     0.222 A 
ATOM      3  C   UNL d   1      -1.619   2.556   0.000  0.00  0.00     0.069 A 
ATOM      4  C   UNL d   1      -3.035   1.732   0.000  0.00  0.00     0.151 A 
ATOM      5  C   UNL d   1      -1.619   1.732   0.000  0.00  0.00     0.110 A 
ATOM      6  O   UNL d   1      -2.332   1.324   0.000  0.00  0.00    -0.302 OA
ATOM      7  O   UNL d   1      -2.332   3.797   0.000  0.00  0.00    -0.284 OA
ENDROOT
BRANCH   5   8
ATOM      8  C   UNL d   1      -0.908   1.320   0.000  0.00  0.00     0.062 C 
BRANCH   8   9
ATOM      9  S   UNL d   1      -0.196   1.736   0.000  0.00  0.00    -0.057 SA
BRANCH   9  10
ATOM     10  C   UNL d   1       0.749   1.719   0.000  0.00  0.00     0.166 A 
ATOM     11  S   UNL d   1       1.416   1.236   0.000  0.00  0.00    -0.006 SA
ATOM     12  C   UNL d   1       2.086   1.719   0.000  0.00  0.00     0.269 A 
ATOM     13  N   UNL d   1       1.828   2.506   0.000  0.00  0.00    -0.107 NA
ATOM     14  N   UNL d   1       1.003   2.506   0.000  0.00  0.00    -0.132 NA
BRANCH  12  15
ATOM     15  N   UNL d   1       2.910   1.719   0.000  0.00  0.00    -0.337 NA
ATOM     16  C   UNL d   1       3.735   1.719   0.000  0.00  0.00     0.330 C 
ATOM     17  O   UNL d   1       3.726   2.544   0.000  0.00  0.00    -0.251 OA
BRANCH  16  18
ATOM     18  C   UNL d   1       4.322   1.137   0.000  0.00  0.00     0.070 A 
ATOM     19  C   UNL d   1       5.121   0.933   0.000  0.00  0.00     0.006 A 
ATOM     20  C   UNL d   1       4.534   0.333   0.000  0.00  0.00     0.006 A 
ENDBRANCH  16  18
ENDBRANCH  12  15
ENDBRANCH   9  10
ENDBRANCH   8   9
ENDBRANCH   5   8
BRANCH   1  21
ATOM     21  O   UNL d   1      -3.755   2.969   0.000  0.00  0.00    -0.268 OA
BRANCH  21  22
ATOM     22  C   UNL d   1      -3.755   3.797   0.000  0.00  0.00     0.300 C 
ATOM     23  O   UNL d   1      -3.035   4.209   0.000  0.00  0.00    -0.259 OA
BRANCH  22  24
ATOM     24  C   UNL d   1      -4.484   4.213   0.000  0.00  0.00     0.064 A 
ATOM     25  C   UNL d   1      -4.480   5.038   0.000  0.00  0.00     0.005 A 
ATOM     26  C   UNL d   1      -5.204   5.462   0.000  0.00  0.00     0.000 A 
ATOM     27  C   UNL d   1      -5.192   6.287   0.000  0.00  0.00     0.000 C 
ATOM     28  C   UNL d   1      -5.916   5.038   0.000  0.00  0.00     0.000 A 
ATOM     29  C   UNL d   1      -5.920   4.201   0.000  0.00  0.00     0.000 A 
ATOM     30  C   UNL d   1      -5.204   3.805   0.000  0.00  0.00     0.005 A 
ATOM     31  C   UNL d   1      -6.636   3.805   0.000  0.00  0.00     0.000 C 
ENDBRANCH  22  24
ENDBRANCH  21  22
ENDBRANCH   1  21
TORSDOF 8
