REMARK  5 active torsions:
REMARK  status: ('A' for Active; 'I' for Inactive)
REMARK    1  A    between atoms: S_2  and  C_1 
REMARK    2  A    between atoms: C_9  and  S_2 
REMARK    3  A    between atoms: C_8  and  N_3 
REMARK    4  A    between atoms: C_7  and  C_8 
REMARK       I    between atoms: N_12  and  C_7 
REMARK    5  A    between atoms: C_14  and  C_9 
ROOT
ATOM      1  C   UNL d   1      -2.021   2.350   0.000  0.00  0.00     0.107 A 
ATOM      2  N   UNL d   1      -2.433   1.083   0.000  0.00  0.00    -0.299 N 
ATOM      3  C   UNL d   1      -1.762   1.562   0.000  0.00  0.00     0.092 A 
ATOM      4  C   UNL d   1      -2.846   2.350   0.000  0.00  0.00     0.028 A 
ATOM      5  C   UNL d   1      -3.100   1.562   0.000  0.00  0.00     0.065 A 
ATOM      6  C   UNL d   1      -3.396   2.962   0.000  0.00  0.00     0.002 A 
ATOM      7  C   UNL d   1      -3.908   1.396   0.000  0.00  0.00     0.018 A 
ATOM      8  C   UNL d   1      -4.208   2.796   0.000  0.00  0.00     0.000 A 
ATOM      9  C   UNL d   1      -4.458   2.008   0.000  0.00  0.00     0.002 A 
ENDROOT
BRANCH   1  10
ATOM     10  S   UNL d   1      -1.533   3.021   0.000  0.00  0.00     0.212 S 
ATOM     11  O   UNL d   1      -0.908   2.483   0.000  0.00  0.00    -0.217 OA
ATOM     12  O   UNL d   1      -2.163   3.558   0.000  0.00  0.00    -0.217 OA
BRANCH  10  13
ATOM     13  C   UNL d   1      -1.050   3.688   0.000  0.00  0.00     0.099 C 
BRANCH  13  14
ATOM     14  C   UNL d   1      -1.387   4.438   0.000  0.00  0.00     0.011 A 
ATOM     15  C   UNL d   1      -2.208   4.517   0.000  0.00  0.00     0.001 A 
ATOM     16  C   UNL d   1      -2.546   5.279   0.000  0.00  0.00     0.000 A 
ATOM     17  C   UNL d   1      -2.058   5.950   0.000  0.00  0.00     0.000 A 
ATOM     18  C   UNL d   1      -1.238   5.854   0.000  0.00  0.00     0.000 A 
ATOM     19  C   UNL d   1      -0.908   5.104   0.000  0.00  0.00     0.001 A 
ENDBRANCH  13  14
ENDBRANCH  10  13
ENDBRANCH   1  10
BRANCH   2  20
ATOM     20  C   UNL d   1      -2.433   0.258   0.000  0.00  0.00     0.142 C 
BRANCH  20  21
ATOM     21  C   UNL d   1      -3.146  -0.154   0.000  0.00  0.00     0.283 C 
ATOM     22  N   UNL d   1      -3.146  -0.979   0.000  0.00  0.00    -0.268 N 
ATOM     23  C   UNL d   1      -3.862  -1.400   0.000  0.00  0.00     0.102 C 
ATOM     24  C   UNL d   1      -2.433  -1.392   0.000  0.00  0.00     0.102 C 
ATOM     25  O   UNL d   1      -3.858   0.258   0.000  0.00  0.00    -0.265 OA
ENDBRANCH  20  21
ENDBRANCH   2  20
TORSDOF 5
