REMARK  3 active torsions:
REMARK  status: ('A' for Active; 'I' for Inactive)
REMARK       I    between atoms: N_2  and  C_1 
REMARK    1  A    between atoms: C_4  and  C_1 
REMARK    2  A    between atoms: C_3  and  N_2 
REMARK    3  A    between atoms: S_11  and  C_7 
ROOT
ATOM      1  C   UNL d   1      -2.446   2.183   0.000  0.00  0.00     0.064 A 
ATOM      2  C   UNL d   1      -3.158   2.596   0.000  0.00  0.00     0.030 A 
ATOM      3  C   UNL d   1      -1.725   2.596   0.000  0.00  0.00     0.005 A 
ATOM      4  C   UNL d   1      -3.158   3.421   0.000  0.00  0.00     0.006 A 
ATOM      5  C   UNL d   1      -1.725   3.421   0.000  0.00  0.00     0.000 A 
ATOM      6  C   UNL d   1      -2.446   3.833   0.000  0.00  0.00     0.001 A 
ENDROOT
BRANCH   1   7
ATOM      7  C   UNL d   1      -2.446   1.358   0.000  0.00  0.00     0.281 C 
ATOM      8  N   UNL d   1      -1.725   0.946   0.000  0.00  0.00    -0.183 NA
ATOM      9  O   UNL d   1      -3.158   0.946   0.000  0.00  0.00    -0.265 OA
BRANCH   8  10
ATOM     10  C   UNL d   1      -1.021   1.350   0.000  0.00  0.00     0.197 A 
ATOM     11  N   UNL d   1      -0.933   2.175   0.000  0.00  0.00    -0.219 NA
ATOM     12  C   UNL d   1      -0.121   2.350   0.000  0.00  0.00     0.108 A 
ATOM     13  C   UNL d   1       0.300   1.633   0.000  0.00  0.00     0.059 A 
ATOM     14  S   UNL d   1      -0.258   1.021   0.000  0.00  0.00    -0.046 SA
ENDBRANCH   8  10
ENDBRANCH   1   7
BRANCH   2  15
ATOM     15  S   UNL d   1      -3.871   2.183   0.000  0.00  0.00    -0.113 SA
ATOM     16  C   UNL d   1      -4.583   2.596   0.000  0.00  0.00     0.074 C 
ENDBRANCH   2  15
TORSDOF 3
