REMARK  5 active torsions:
REMARK  status: ('A' for Active; 'I' for Inactive)
REMARK    1  A    between atoms: N_4  and  C_1 
REMARK    2  A    between atoms: S_3  and  C_9 
REMARK       I    between atoms: C_6  and  N_4 
REMARK    3  A    between atoms: C_11  and  C_5 
REMARK    4  A    between atoms: C_10  and  C_6 
REMARK    5  A    between atoms: O_25  and  C_22 
ROOT
ATOM      1  C   UNL d   1       0.678   3.944   0.000  0.00  0.00     0.197 A 
ATOM      2  N   UNL d   1       1.237   4.553   0.000  0.00  0.00    -0.221 NA
ATOM      3  C   UNL d   1       1.984   4.219   0.000  0.00  0.00     0.090 A 
ATOM      4  S   UNL d   1       1.090   3.239   0.000  0.00  0.00    -0.046 SA
ATOM      5  C   UNL d   1       1.901   3.417   0.000  0.00  0.00     0.058 A 
ENDROOT
BRANCH   1   6
ATOM      6  N   UNL d   1      -0.146   3.944   0.000  0.00  0.00    -0.183 NA
ATOM      7  C   UNL d   1      -0.559   3.229   0.000  0.00  0.00     0.281 C 
ATOM      8  O   UNL d   1      -0.146   2.524   0.000  0.00  0.00    -0.265 OA
BRANCH   7   9
ATOM      9  C   UNL d   1      -1.383   3.229   0.000  0.00  0.00     0.058 A 
ATOM     10  C   UNL d   1      -1.796   3.939   0.000  0.00  0.00     0.005 A 
ATOM     11  C   UNL d   1      -2.620   3.939   0.000  0.00  0.00     0.011 A 
ATOM     12  C   UNL d   1      -3.032   3.229   0.000  0.00  0.00     0.084 A 
ATOM     13  C   UNL d   1      -2.620   2.515   0.000  0.00  0.00     0.011 A 
ATOM     14  C   UNL d   1      -1.796   2.515   0.000  0.00  0.00     0.005 A 
BRANCH  12  15
ATOM     15  S   UNL d   1      -3.857   3.229   0.000  0.00  0.00     0.191 S 
ATOM     16  O   UNL d   1      -3.857   2.405   0.000  0.00  0.00    -0.222 OA
ATOM     17  O   UNL d   1      -3.857   4.054   0.000  0.00  0.00    -0.222 OA
ATOM     18  C   UNL d   1      -4.681   3.229   0.000  0.00  0.00     0.145 C 
ENDBRANCH  12  15
ENDBRANCH   7   9
ENDBRANCH   1   6
BRANCH   3  19
ATOM     19  C   UNL d   1       2.680   4.663   0.000  0.00  0.00     0.018 A 
ATOM     20  C   UNL d   1       2.629   5.497   0.000  0.00  0.00     0.004 A 
ATOM     21  C   UNL d   1       3.326   5.941   0.000  0.00  0.00     0.024 A 
ATOM     22  C   UNL d   1       4.072   5.570   0.000  0.00  0.00     0.094 A 
ATOM     23  C   UNL d   1       4.114   4.746   0.000  0.00  0.00     0.024 A 
ATOM     24  C   UNL d   1       3.413   4.297   0.000  0.00  0.00     0.004 A 
BRANCH  22  25
ATOM     25  O   UNL d   1       4.773   6.024   0.000  0.00  0.00    -0.328 OA
ATOM     26  C   UNL d   1       5.515   5.648   0.000  0.00  0.00     0.181 C 
ENDBRANCH  22  25
ENDBRANCH   3  19
TORSDOF 5
