REMARK  7 active torsions:
REMARK  status: ('A' for Active; 'I' for Inactive)
REMARK    1  A    between atoms: N_2  and  S_1 
REMARK    2  A    between atoms: C_3  and  S_1 
REMARK       I    between atoms: C_4  and  N_9 
REMARK    3  A    between atoms: C_10  and  C_4 
REMARK    4  A    between atoms: C_12  and  C_6 
REMARK    5  A    between atoms: N_9  and  C_12 
REMARK    6  A    between atoms: O_22  and  C_19 
REMARK    7  A    between atoms: C_25  and  O_22 
ROOT
ATOM      1  N   UNL d   1      -1.345   4.188   0.000  0.00  0.00    -0.229 N 
ATOM      2  C   UNL d   1      -2.061   4.600   0.000  0.00  0.00     0.094 A 
ATOM      3  C   UNL d   1      -0.726   4.746   0.000  0.00  0.00     0.092 A 
ATOM      4  C   UNL d   1      -1.879   5.407   0.000  0.00  0.00     0.021 A 
ATOM      5  C   UNL d   1      -1.060   5.492   0.000  0.00  0.00     0.021 A 
ENDROOT
BRANCH   2   6
ATOM      6  C   UNL d   1      -2.776   4.188   0.000  0.00  0.00     0.120 C 
BRANCH   6   7
ATOM      7  N   UNL d   1      -3.484   4.600   0.000  0.00  0.00    -0.205 NA
ATOM      8  C   UNL d   1      -4.186   4.188   0.000  0.00  0.00     0.279 C 
ATOM      9  O   UNL d   1      -4.200   3.361   0.000  0.00  0.00    -0.265 OA
BRANCH   8  10
ATOM     10  C   UNL d   1      -4.914   4.606   0.000  0.00  0.00     0.058 A 
ATOM     11  C   UNL d   1      -4.914   5.431   0.000  0.00  0.00     0.007 A 
ATOM     12  C   UNL d   1      -5.619   5.844   0.000  0.00  0.00     0.025 A 
ATOM     13  C   UNL d   1      -6.339   5.431   0.000  0.00  0.00     0.100 A 
ATOM     14  C   UNL d   1      -6.339   4.606   0.000  0.00  0.00     0.025 A 
ATOM     15  C   UNL d   1      -5.619   4.200   0.000  0.00  0.00     0.007 A 
BRANCH  13  16
ATOM     16  O   UNL d   1      -7.051   5.854   0.000  0.00  0.00    -0.305 OA
BRANCH  16  17
ATOM     17  C   UNL d   1      -7.051   6.679   0.000  0.00  0.00     0.123 C 
ATOM     18  C   UNL d   1      -7.765   7.091   0.000  0.00  0.00     0.029 C 
ENDBRANCH  16  17
ENDBRANCH  13  16
ENDBRANCH   8  10
ENDBRANCH   6   7
ENDBRANCH   2   6
BRANCH   1  19
ATOM     19  S   UNL d   1      -1.262   3.367   0.000  0.00  0.00     0.277 S 
ATOM     20  O   UNL d   1      -2.085   3.284   0.000  0.00  0.00    -0.199 OA
ATOM     21  O   UNL d   1      -0.437   3.454   0.000  0.00  0.00    -0.199 OA
BRANCH  19  22
ATOM     22  C   UNL d   1      -1.181   2.538   0.000  0.00  0.00     0.133 A 
ATOM     23  S   UNL d   1      -0.510   2.052   0.000  0.00  0.00    -0.074 SA
ATOM     24  C   UNL d   1      -0.770   1.274   0.000  0.00  0.00     0.036 A 
ATOM     25  C   UNL d   1      -1.593   1.284   0.000  0.00  0.00     0.008 A 
ATOM     26  C   UNL d   1      -1.842   2.058   0.000  0.00  0.00     0.020 A 
ENDBRANCH  19  22
ENDBRANCH   1  19
TORSDOF 7
