REMARK  4 active torsions:
REMARK  status: ('A' for Active; 'I' for Inactive)
REMARK    1  A    between atoms: N_3  and  C_8 
REMARK    2  A    between atoms: S_11  and  C_4 
REMARK    3  A    between atoms: C_15  and  S_11 
REMARK    4  A    between atoms: C_16  and  C_15 
ROOT
ATOM      1  C   UNL d   1      -3.858   3.808   0.000  0.00  0.00     0.037 C 
ENDROOT
BRANCH   1   2
ATOM      2  S   UNL d   1      -3.144   4.213   0.000  0.00  0.00    -0.067 SA
BRANCH   2   3
ATOM      3  C   UNL d   1      -3.144   5.040   0.000  0.00  0.00     0.117 A 
ATOM      4  N   UNL d   1      -2.438   5.453   0.000  0.00  0.00    -0.184 NA
ATOM      5  C   UNL d   1      -2.438   6.280   0.000  0.00  0.00     0.369 A 
ATOM      6  N   UNL d   1      -3.144   6.693   0.000  0.00  0.00    -0.191 NA
ATOM      7  O   UNL d   1      -1.724   6.693   0.000  0.00  0.00    -0.242 OA
ATOM      8  C   UNL d   1      -3.858   6.280   0.000  0.00  0.00     0.088 A 
ATOM      9  C   UNL d   1      -3.858   5.453   0.000  0.00  0.00     0.045 A 
ATOM     10  C   UNL d   1      -4.580   6.693   0.000  0.00  0.00     0.021 C 
ENDBRANCH   2   3
ENDBRANCH   1   2
BRANCH   1  11
ATOM     11  C   UNL d   1      -4.572   4.213   0.000  0.00  0.00     0.007 A 
ATOM     12  C   UNL d   1      -5.294   3.808   0.000  0.00  0.00     0.002 A 
ATOM     13  C   UNL d   1      -6.000   4.213   0.000  0.00  0.00     0.024 A 
ATOM     14  C   UNL d   1      -5.996   5.035   0.000  0.00  0.00     0.127 A 
ATOM     15  C   UNL d   1      -5.294   5.441   0.000  0.00  0.00     0.024 A 
ATOM     16  C   UNL d   1      -4.572   5.040   0.000  0.00  0.00     0.002 A 
BRANCH  14  17
ATOM     17  N   UNL d   1      -6.706   5.453   0.000  0.00  0.00    -0.114 N 
ATOM     18  O   UNL d   1      -6.706   6.276   0.000  0.00  0.00    -0.532 OA
ATOM     19  O   UNL d   1      -7.420   5.040   0.000  0.00  0.00    -0.532 OA
ENDBRANCH  14  17
ENDBRANCH   1  11
TORSDOF 4
