REMARK  4 active torsions:
REMARK  status: ('A' for Active; 'I' for Inactive)
REMARK    1  A    between atoms: C_6  and  S_1 
REMARK    2  A    between atoms: N_8  and  S_1 
REMARK    3  A    between atoms: C_17  and  N_8 
REMARK    4  A    between atoms: N_16  and  C_15 
ROOT
ATOM      1  N   UNL d   1      -0.298   6.357   0.000  0.00  0.00    -0.273 N 
ATOM      2  C   UNL d   1      -0.477   7.178   0.000  0.00  0.00     0.265 A 
ATOM      3  C   UNL d   1      -1.013   5.945   0.000  0.00  0.00     0.067 A 
ATOM      4  C   UNL d   1      -1.719   6.357   0.000  0.00  0.00     0.022 A 
ATOM      5  C   UNL d   1      -2.434   5.120   0.000  0.00  0.00     0.105 A 
ATOM      6  C   UNL d   1      -1.013   5.120   0.000  0.00  0.00     0.017 A 
ATOM      7  C   UNL d   1      -1.549   7.178   0.000  0.00  0.00     0.063 A 
ATOM      8  C   UNL d   1      -2.434   5.945   0.000  0.00  0.00     0.015 A 
ATOM      9  C   UNL d   1      -1.719   4.707   0.000  0.00  0.00     0.014 A 
ATOM     10  O   UNL d   1       0.138   7.732   0.000  0.00  0.00    -0.267 OA
ATOM     11  C   UNL d   1       0.417   5.945   0.000  0.00  0.00     0.083 A 
ATOM     12  C   UNL d   1      -0.298   4.721   0.000  0.00  0.00     0.003 A 
ATOM     13  C   UNL d   1       0.417   5.120   0.000  0.00  0.00     0.019 A 
ENDROOT
BRANCH   5  14
ATOM     14  S   UNL d   1      -3.158   4.707   0.000  0.00  0.00     0.285 S 
ATOM     15  O   UNL d   1      -2.736   3.997   0.000  0.00  0.00    -0.198 OA
ATOM     16  O   UNL d   1      -3.570   5.431   0.000  0.00  0.00    -0.198 OA
BRANCH  14  17
ATOM     17  N   UNL d   1      -3.873   4.299   0.000  0.00  0.00    -0.158 NA
BRANCH  17  18
ATOM     18  C   UNL d   1      -3.873   3.474   0.000  0.00  0.00     0.094 A 
ATOM     19  C   UNL d   1      -3.163   3.062   0.000  0.00  0.00     0.021 A 
ATOM     20  C   UNL d   1      -3.163   2.237   0.000  0.00  0.00     0.019 A 
ATOM     21  C   UNL d   1      -3.873   1.824   0.000  0.00  0.00     0.064 A 
ATOM     22  C   UNL d   1      -4.588   2.237   0.000  0.00  0.00     0.019 A 
ATOM     23  C   UNL d   1      -4.588   3.062   0.000  0.00  0.00     0.021 A 
BRANCH  21  24
ATOM     24  N   UNL d   1      -3.873   0.999   0.000  0.00  0.00    -0.301 N 
ATOM     25  C   UNL d   1      -4.588   0.587   0.000  0.00  0.00     0.100 C 
ATOM     26  C   UNL d   1      -3.158   0.587   0.000  0.00  0.00     0.100 C 
ENDBRANCH  21  24
ENDBRANCH  17  18
ENDBRANCH  14  17
ENDBRANCH   5  14
TORSDOF 4
