REMARK  5 active torsions:
REMARK  status: ('A' for Active; 'I' for Inactive)
REMARK    1  A    between atoms: C_2  and  S_1 
REMARK    2  A    between atoms: N_4  and  S_1 
REMARK    3  A    between atoms: C_15  and  N_4 
REMARK    4  A    between atoms: N_7  and  C_6 
REMARK    5  A    between atoms: C_12  and  C_13 
ROOT
ATOM      1  C   UNL d   1      -4.093   6.893   0.000  0.00  0.00     0.021 A 
ATOM      2  C   UNL d   1      -3.378   5.656   0.000  0.00  0.00     0.094 A 
ATOM      3  C   UNL d   1      -4.093   6.068   0.000  0.00  0.00     0.021 A 
ATOM      4  C   UNL d   1      -3.378   7.306   0.000  0.00  0.00     0.002 A 
ATOM      5  C   UNL d   1      -2.667   6.893   0.000  0.00  0.00     0.002 A 
ATOM      6  C   UNL d   1      -2.667   6.068   0.000  0.00  0.00     0.020 A 
ENDROOT
BRANCH   1   7
ATOM      7  C   UNL d   1      -4.808   7.306   0.000  0.00  0.00     0.103 A 
ATOM      8  N   UNL d   1      -5.523   6.893   0.000  0.00  0.00    -0.147 NA
ATOM      9  N   UNL d   1      -6.238   7.306   0.000  0.00  0.00    -0.130 NA
ATOM     10  C   UNL d   1      -6.238   8.131   0.000  0.00  0.00     0.170 A 
ATOM     11  C   UNL d   1      -5.523   8.543   0.000  0.00  0.00     0.041 A 
ATOM     12  C   UNL d   1      -4.808   8.131   0.000  0.00  0.00     0.024 A 
BRANCH  10  13
ATOM     13  N   UNL d   1      -6.944   8.543   0.000  0.00  0.00    -0.284 N 
ATOM     14  C   UNL d   1      -6.944   9.368   0.000  0.00  0.00     0.108 A 
ATOM     15  C   UNL d   1      -7.650   9.781   0.000  0.00  0.00     0.142 A 
ATOM     16  O   UNL d   1      -8.365   9.368   0.000  0.00  0.00    -0.300 OA
ATOM     17  C   UNL d   1      -8.365   8.543   0.000  0.00  0.00     0.142 A 
ATOM     18  C   UNL d   1      -7.650   8.131   0.000  0.00  0.00     0.108 A 
ENDBRANCH  10  13
ENDBRANCH   1   7
BRANCH   2  19
ATOM     19  N   UNL d   1      -3.378   4.831   0.000  0.00  0.00    -0.158 NA
BRANCH  19  20
ATOM     20  S   UNL d   1      -2.667   4.418   0.000  0.00  0.00     0.285 S 
ATOM     21  O   UNL d   1      -2.250   5.133   0.000  0.00  0.00    -0.198 OA
ATOM     22  O   UNL d   1      -3.089   3.699   0.000  0.00  0.00    -0.198 OA
BRANCH  20  23
ATOM     23  C   UNL d   1      -1.948   4.010   0.000  0.00  0.00     0.106 A 
ATOM     24  C   UNL d   1      -1.238   4.414   0.000  0.00  0.00     0.025 A 
ATOM     25  C   UNL d   1      -0.522   4.010   0.000  0.00  0.00     0.069 A 
ATOM     26 CL   UNL d   1       0.197   4.418   0.000  0.00  0.00    -0.082 Cl
ATOM     27  C   UNL d   1      -0.522   3.185   0.000  0.00  0.00     0.068 A 
ATOM     28  C   UNL d   1      -1.238   2.773   0.000  0.00  0.00     0.013 A 
ATOM     29 CL   UNL d   1       0.197   2.759   0.000  0.00  0.00    -0.082 Cl
ATOM     30  C   UNL d   1      -1.948   3.185   0.000  0.00  0.00     0.014 A 
ENDBRANCH  20  23
ENDBRANCH  19  20
ENDBRANCH   2  19
TORSDOF 5
