REMARK  3 active torsions:
REMARK  status: ('A' for Active; 'I' for Inactive)
REMARK    1  A    between atoms: C_13  and  N_6 
REMARK    2  A    between atoms: C_16  and  C_10 
REMARK    3  A    between atoms: O_19  and  C_17 
ROOT
ATOM      1  C   UNL d   1       5.979  -4.137   0.000  0.00  0.00     0.722 A 
ATOM      2  C   UNL d   1       4.722  -4.560   0.000  0.00  0.00     0.191 A 
ATOM      3  N   UNL d   1       5.494  -4.809   0.000  0.00  0.00    -0.042 NA
ATOM      4  N   UNL d   1       5.494  -3.490   0.000  0.00  0.00    -0.131 N 
ATOM      5  C   UNL d   1       4.722  -3.739   0.000  0.00  0.00     0.174 A 
ATOM      6  N   UNL d   1       6.764  -3.888   0.000  0.00  0.00    -0.138 N 
ATOM      7  N   UNL d   1       4.013  -4.971   0.000  0.00  0.00    -0.239 N 
ATOM      8  C   UNL d   1       3.291  -4.560   0.000  0.00  0.00     0.358 A 
ATOM      9  N   UNL d   1       3.291  -3.739   0.000  0.00  0.00    -0.152 NA
ATOM     10  C   UNL d   1       6.776  -3.091   0.000  0.00  0.00     0.100 A 
ATOM     11  C   UNL d   1       4.013  -3.316   0.000  0.00  0.00     0.303 A 
ATOM     12  C   UNL d   1       5.992  -2.818   0.000  0.00  0.00     0.116 A 
ATOM     13  O   UNL d   1       2.581  -4.971   0.000  0.00  0.00    -0.244 OA
ATOM     14  O   UNL d   1       4.013  -2.506   0.000  0.00  0.00    -0.263 OA
ATOM     15  C   UNL d   1       4.013  -5.780   0.000  0.00  0.00     0.105 C 
ENDROOT
BRANCH   6  16
ATOM     16  C   UNL d   1       7.424  -4.386   0.000  0.00  0.00     0.103 A 
ATOM     17  C   UNL d   1       7.324  -5.208   0.000  0.00  0.00     0.111 A 
ATOM     18  C   UNL d   1       7.971  -5.693   0.000  0.00  0.00     0.026 A 
ATOM     19  C   UNL d   1       8.731  -5.382   0.000  0.00  0.00     0.002 A 
ATOM     20  C   UNL d   1       8.830  -4.560   0.000  0.00  0.00     0.002 A 
ATOM     21  C   UNL d   1       8.171  -4.062   0.000  0.00  0.00     0.020 A 
BRANCH  17  22
ATOM     22  O   UNL d   1       6.739  -5.780   0.000  0.00  0.00    -0.327 OA
ATOM     23  C   UNL d   1       5.942  -5.569   0.000  0.00  0.00     0.181 C 
ENDBRANCH  17  22
ENDBRANCH   6  16
BRANCH  10  24
ATOM     24  C   UNL d   1       7.449  -2.606   0.000  0.00  0.00     0.018 A 
ATOM     25  C   UNL d   1       7.374  -1.784   0.000  0.00  0.00     0.002 A 
ATOM     26  C   UNL d   1       8.034  -1.311   0.000  0.00  0.00     0.000 A 
ATOM     27  C   UNL d   1       8.793  -1.647   0.000  0.00  0.00     0.000 A 
ATOM     28  C   UNL d   1       8.868  -2.469   0.000  0.00  0.00     0.000 A 
ATOM     29  C   UNL d   1       8.195  -2.954   0.000  0.00  0.00     0.002 A 
ENDBRANCH  10  24
TORSDOF 3
