REMARK  3 active torsions:
REMARK  status: ('A' for Active; 'I' for Inactive)
REMARK    1  A    between atoms: N_5  and  C_1 
REMARK    2  A    between atoms: C_10  and  C_2 
REMARK       I    between atoms: C_8  and  N_5 
REMARK    3  A    between atoms: C_7  and  C_8 
ROOT
ATOM      1  C   UNL d   1      -3.888   3.013   0.000  0.00  0.00     0.119 A 
ATOM      2  C   UNL d   1      -4.565   2.525   0.000  0.00  0.00     0.084 A 
ATOM      3  S   UNL d   1      -3.227   2.525   0.000  0.00  0.00    -0.068 SA
ATOM      4  C   UNL d   1      -4.313   1.738   0.000  0.00  0.00     0.013 A 
ATOM      5  C   UNL d   1      -3.480   1.738   0.000  0.00  0.00     0.031 A 
ATOM      6  C   UNL d   1      -4.793   1.069   0.000  0.00  0.00     0.001 C 
ATOM      7  C   UNL d   1      -3.000   1.069   0.000  0.00  0.00     0.007 C 
ENDROOT
BRANCH   1   8
ATOM      8  N   UNL d   1      -3.888   3.837   0.000  0.00  0.00    -0.201 NA
ATOM      9  C   UNL d   1      -3.168   4.245   0.000  0.00  0.00     0.286 C 
ATOM     10  O   UNL d   1      -2.457   3.846   0.000  0.00  0.00    -0.265 OA
BRANCH   9  11
ATOM     11  C   UNL d   1      -3.168   5.074   0.000  0.00  0.00     0.088 A 
ATOM     12  S   UNL d   1      -2.499   5.571   0.000  0.00  0.00    -0.075 SA
ATOM     13  C   UNL d   1      -2.760   6.362   0.000  0.00  0.00     0.064 A 
ATOM     14 BR   UNL d   1      -2.280   7.048   0.000  0.00  0.00    -0.042 Br
ATOM     15  C   UNL d   1      -3.585   6.341   0.000  0.00  0.00     0.014 A 
ATOM     16  C   UNL d   1      -3.833   5.558   0.000  0.00  0.00     0.012 A 
ENDBRANCH   9  11
ENDBRANCH   1   8
BRANCH   2  17
ATOM     17  C   UNL d   1      -5.348   2.785   0.000  0.00  0.00     0.299 C 
ATOM     18  O   UNL d   1      -5.971   2.230   0.000  0.00  0.00    -0.264 OA
ATOM     19  N   UNL d   1      -5.525   3.598   0.000  0.00  0.00    -0.102 N 
ENDBRANCH   2  17
TORSDOF 3
