REMARK  4 active torsions:
REMARK  status: ('A' for Active; 'I' for Inactive)
REMARK    1  A    between atoms: N_6  and  C_1 
REMARK       I    between atoms: C_9  and  N_6 
REMARK    2  A    between atoms: C_12  and  C_9 
REMARK    3  A    between atoms: O_11  and  C_12 
REMARK    4  A    between atoms: C_15  and  O_11 
ROOT
ATOM      1  C   UNL d   1      -3.858   2.990   0.000  0.00  0.00     0.124 A 
ATOM      2  C   UNL d   1      -4.530   2.501   0.000  0.00  0.00     0.093 A 
ATOM      3  S   UNL d   1      -3.190   2.501   0.000  0.00  0.00    -0.067 SA
ATOM      4  C   UNL d   1      -4.267   1.716   0.000  0.00  0.00     0.018 A 
ATOM      5  C   UNL d   1      -3.453   1.724   0.000  0.00  0.00     0.032 A 
ATOM      6  C   UNL d   1      -5.319   2.764   0.000  0.00  0.00     0.103 C 
ATOM      7  N   UNL d   1      -6.092   3.014   0.000  0.00  0.00    -0.191 NA
ATOM      8  C   UNL d   1      -4.756   1.048   0.000  0.00  0.00     0.001 C 
ATOM      9  C   UNL d   1      -2.964   1.052   0.000  0.00  0.00     0.007 C 
ENDROOT
BRANCH   1  10
ATOM     10  N   UNL d   1      -3.858   3.808   0.000  0.00  0.00    -0.199 NA
ATOM     11  C   UNL d   1      -3.144   4.213   0.000  0.00  0.00     0.305 C 
ATOM     12  O   UNL d   1      -3.144   5.040   0.000  0.00  0.00    -0.263 OA
BRANCH  11  13
ATOM     13  C   UNL d   1      -2.438   3.816   0.000  0.00  0.00     0.185 C 
BRANCH  13  14
ATOM     14  O   UNL d   1      -1.729   4.213   0.000  0.00  0.00    -0.300 OA
BRANCH  14  15
ATOM     15  C   UNL d   1      -1.010   3.804   0.000  0.00  0.00     0.100 A 
ATOM     16  C   UNL d   1      -1.023   2.977   0.000  0.00  0.00     0.025 A 
ATOM     17  C   UNL d   1      -0.313   2.576   0.000  0.00  0.00     0.002 A 
ATOM     18  C   UNL d   1       0.401   2.990   0.000  0.00  0.00     0.000 A 
ATOM     19  C   UNL d   1       0.405   3.808   0.000  0.00  0.00     0.002 A 
ATOM     20  C   UNL d   1      -0.309   4.213   0.000  0.00  0.00     0.025 A 
ENDBRANCH  14  15
ENDBRANCH  13  14
ENDBRANCH  11  13
ENDBRANCH   1  10
TORSDOF 4
