REMARK  3 active torsions:
REMARK  status: ('A' for Active; 'I' for Inactive)
REMARK    1  A    between atoms: N_5  and  C_1 
REMARK    2  A    between atoms: C_8  and  C_2 
REMARK       I    between atoms: C_7  and  N_5 
REMARK    3  A    between atoms: C_9  and  C_7 
ROOT
ATOM      1  C   UNL d   1      -3.877   3.005   0.000  0.00  0.00     0.119 A 
ATOM      2  C   UNL d   1      -4.553   2.518   0.000  0.00  0.00     0.084 A 
ATOM      3  S   UNL d   1      -3.219   2.518   0.000  0.00  0.00    -0.068 SA
ATOM      4  C   UNL d   1      -4.301   1.733   0.000  0.00  0.00     0.013 A 
ATOM      5  C   UNL d   1      -3.470   1.733   0.000  0.00  0.00     0.031 A 
ATOM      6  C   UNL d   1      -4.780   1.066   0.000  0.00  0.00     0.001 C 
ATOM      7  C   UNL d   1      -2.992   1.066   0.000  0.00  0.00     0.007 C 
ENDROOT
BRANCH   1   8
ATOM      8  N   UNL d   1      -3.877   3.827   0.000  0.00  0.00    -0.200 NA
ATOM      9  C   UNL d   1      -3.160   4.234   0.000  0.00  0.00     0.302 C 
ATOM     10  O   UNL d   1      -2.442   3.827   0.000  0.00  0.00    -0.263 OA
BRANCH   9  11
ATOM     11  C   UNL d   1      -3.168   5.065   0.000  0.00  0.00     0.158 A 
ATOM     12  O   UNL d   1      -2.501   5.552   0.000  0.00  0.00    -0.300 OA
ATOM     13  C   UNL d   1      -2.765   6.349   0.000  0.00  0.00     0.123 A 
ATOM     14  C   UNL d   1      -3.584   6.337   0.000  0.00  0.00     0.029 A 
ATOM     15  C   UNL d   1      -3.848   5.552   0.000  0.00  0.00     0.032 A 
ENDBRANCH   9  11
ENDBRANCH   1   8
BRANCH   2  16
ATOM     16  C   UNL d   1      -5.333   2.778   0.000  0.00  0.00     0.299 C 
ATOM     17  O   UNL d   1      -5.955   2.224   0.000  0.00  0.00    -0.264 OA
ATOM     18  N   UNL d   1      -5.510   3.588   0.000  0.00  0.00    -0.102 N 
ENDBRANCH   2  16
TORSDOF 3
