REMARK  1 active torsions:
REMARK  status: ('A' for Active; 'I' for Inactive)
REMARK    1  A    between atoms: C_15  and  C_6 
ROOT
ATOM      1  C   UNL d   1       2.696  -3.805   0.000  0.00  0.00     0.087 A 
ATOM      2  C   UNL d   1       1.263  -3.801   0.000  0.00  0.00     0.111 A 
ATOM      3  C   UNL d   1       2.696  -2.978   0.000  0.00  0.00     0.109 A 
ATOM      4  C   UNL d   1       3.406  -4.225   0.000  0.00  0.00     0.302 A 
ATOM      5  C   UNL d   1       1.271  -2.970   0.000  0.00  0.00     0.213 A 
ATOM      6  C   UNL d   1       1.986  -4.225   0.000  0.00  0.00     0.020 A 
ATOM      7  O   UNL d   1       1.986  -2.567   0.000  0.00  0.00    -0.287 OA
ATOM      8  C   UNL d   1       3.406  -2.567   0.000  0.00  0.00     0.050 A 
ATOM      9  O   UNL d   1       4.129  -3.805   0.000  0.00  0.00    -0.273 OA
ATOM     10  C   UNL d   1       0.552  -4.216   0.000  0.00  0.00     0.105 C 
ATOM     11  C   UNL d   1       4.129  -2.983   0.000  0.00  0.00     0.105 A 
ATOM     12  N   UNL d   1      -0.170  -4.624   0.000  0.00  0.00    -0.191 NA
ATOM     13  O   UNL d   1       3.406  -5.051   0.000  0.00  0.00    -0.259 OA
ATOM     14  N   UNL d   1       0.552  -2.559   0.000  0.00  0.00    -0.120 N 
ATOM     15  C   UNL d   1       4.848  -2.571   0.000  0.00  0.00     0.027 C 
ENDROOT
BRANCH   6  16
ATOM     16  C   UNL d   1       1.986  -5.039   0.000  0.00  0.00     0.001 C 
ATOM     17  C   UNL d   1       1.275  -5.459   0.000  0.00  0.00     0.000 C 
ATOM     18  C   UNL d   1       2.696  -5.450   0.000  0.00  0.00     0.000 C 
ENDBRANCH   6  16
TORSDOF 1
