REMARK  3 active torsions:
REMARK  status: ('A' for Active; 'I' for Inactive)
REMARK    1  A    between atoms: C_10  and  C_2 
REMARK    2  A    between atoms: C_13  and  C_6 
REMARK    3  A    between atoms: O_17  and  C_10 
ROOT
ATOM      1  C   UNL d   1       5.039  -8.541   0.000  0.00  0.00     0.081 A 
ATOM      2  C   UNL d   1       5.737  -7.303   0.000  0.00  0.00     0.106 A 
ATOM      3  C   UNL d   1       5.014  -6.896   0.000  0.00  0.00     0.208 A 
ATOM      4  C   UNL d   1       4.324  -8.142   0.000  0.00  0.00     0.108 A 
ATOM      5  C   UNL d   1       5.051  -9.376   0.000  0.00  0.00     0.281 A 
ATOM      6  C   UNL d   1       5.745  -8.126   0.000  0.00  0.00     0.015 A 
ATOM      7  O   UNL d   1       4.312  -7.320   0.000  0.00  0.00    -0.288 OA
ATOM      8  N   UNL d   1       4.341  -9.800   0.000  0.00  0.00    -0.208 NA
ATOM      9  C   UNL d   1       3.614  -8.566   0.000  0.00  0.00     0.044 A 
ATOM     10  C   UNL d   1       3.618  -9.388   0.000  0.00  0.00     0.087 A 
ATOM     11  O   UNL d   1       5.774  -9.775   0.000  0.00  0.00    -0.265 OA
ATOM     12  N   UNL d   1       5.014  -6.073   0.000  0.00  0.00    -0.121 N 
ATOM     13  C   UNL d   1       2.916  -9.812   0.000  0.00  0.00     0.021 C 
ENDROOT
BRANCH   6  14
ATOM     14  C   UNL d   1       6.468  -8.528   0.000  0.00  0.00     0.004 A 
ATOM     15  C   UNL d   1       6.472  -9.359   0.000  0.00  0.00     0.021 A 
ATOM     16  C   UNL d   1       7.191  -9.762   0.000  0.00  0.00     0.099 A 
ATOM     17  N   UNL d   1       7.905  -9.339   0.000  0.00  0.00    -0.242 NA
ATOM     18  C   UNL d   1       7.893  -8.504   0.000  0.00  0.00     0.099 A 
ATOM     19  C   UNL d   1       7.170  -8.105   0.000  0.00  0.00     0.021 A 
ENDBRANCH   6  14
BRANCH   2  20
ATOM     20  C   UNL d   1       6.447  -6.883   0.000  0.00  0.00     0.299 C 
ATOM     21  O   UNL d   1       7.170  -7.282   0.000  0.00  0.00    -0.259 OA
BRANCH  20  22
ATOM     22  O   UNL d   1       6.435  -6.048   0.000  0.00  0.00    -0.296 OA
ATOM     23  C   UNL d   1       7.145  -5.637   0.000  0.00  0.00     0.185 C 
ENDBRANCH  20  22
ENDBRANCH   2  20
TORSDOF 3
