REMARK  5 active torsions:
REMARK  status: ('A' for Active; 'I' for Inactive)
REMARK    1  A    between atoms: N_6  and  C_1 
REMARK    2  A    between atoms: C_8  and  C_4 
REMARK       I    between atoms: C_7  and  N_6 
REMARK    3  A    between atoms: C_13  and  C_7 
REMARK    4  A    between atoms: O_14  and  C_8 
REMARK    5  A    between atoms: C_18  and  O_14 
ROOT
ATOM      1  C   UNL d   1      -3.882   3.008   0.000  0.00  0.00     0.124 A 
ATOM      2  C   UNL d   1      -4.558   2.521   0.000  0.00  0.00     0.093 A 
ATOM      3  S   UNL d   1      -3.222   2.516   0.000  0.00  0.00    -0.062 SA
ATOM      4  C   UNL d   1      -3.487   1.735   0.000  0.00  0.00     0.095 A 
ATOM      5  C   UNL d   1      -4.306   1.735   0.000  0.00  0.00     0.023 A 
ATOM      6  C   UNL d   1      -5.352   2.794   0.000  0.00  0.00     0.103 C 
ATOM      7  N   UNL d   1      -6.129   3.050   0.000  0.00  0.00    -0.191 NA
ATOM      8  C   UNL d   1      -4.798   1.067   0.000  0.00  0.00     0.001 C 
ENDROOT
BRANCH   1   9
ATOM      9  N   UNL d   1      -3.882   3.831   0.000  0.00  0.00    -0.201 NA
ATOM     10  C   UNL d   1      -3.163   4.239   0.000  0.00  0.00     0.280 C 
ATOM     11  O   UNL d   1      -3.172   5.058   0.000  0.00  0.00    -0.265 OA
BRANCH  10  12
ATOM     12  C   UNL d   1      -2.453   3.831   0.000  0.00  0.00     0.058 C 
ATOM     13  C   UNL d   1      -2.453   3.008   0.000  0.00  0.00     0.005 C 
ATOM     14  C   UNL d   1      -1.727   4.239   0.000  0.00  0.00     0.005 C 
ENDBRANCH  10  12
ENDBRANCH   1   9
BRANCH   4  15
ATOM     15  C   UNL d   1      -3.008   1.067   0.000  0.00  0.00     0.306 C 
ATOM     16  O   UNL d   1      -2.176   1.143   0.000  0.00  0.00    -0.258 OA
BRANCH  15  17
ATOM     17  O   UNL d   1      -3.336   0.302   0.000  0.00  0.00    -0.271 OA
BRANCH  17  18
ATOM     18  C   UNL d   1      -2.672  -0.193   0.000  0.00  0.00     0.126 C 
ATOM     19  C   UNL d   1      -2.768  -1.012   0.000  0.00  0.00     0.029 C 
ENDBRANCH  17  18
ENDBRANCH  15  17
ENDBRANCH   4  15
TORSDOF 5
