REMARK  3 active torsions:
REMARK  status: ('A' for Active; 'I' for Inactive)
REMARK    1  A    between atoms: N_5  and  S_1 
REMARK    2  A    between atoms: C_6  and  S_1 
REMARK    3  A    between atoms: C_2  and  C_13 
ROOT
ATOM      1  N   UNL d   1       1.032   2.856   0.000  0.00  0.00    -0.229 N 
ATOM      2  C   UNL d   1      -0.861   2.805   0.000  0.00  0.00     0.039 A 
ATOM      3  C   UNL d   1       0.538   3.665   0.000  0.00  0.00     0.092 A 
ATOM      4  C   UNL d   1       0.578   2.020   0.000  0.00  0.00     0.092 A 
ATOM      5  C   UNL d   1      -0.414   3.641   0.000  0.00  0.00     0.023 A 
ATOM      6  C   UNL d   1      -0.366   1.996   0.000  0.00  0.00     0.023 A 
ENDROOT
BRANCH   1   7
ATOM      7  S   UNL d   1       1.892   2.876   0.000  0.00  0.00     0.271 S 
ATOM      8  O   UNL d   1       1.916   2.052   0.000  0.00  0.00    -0.200 OA
ATOM      9  O   UNL d   1       1.869   3.701   0.000  0.00  0.00    -0.200 OA
BRANCH   7  10
ATOM     10  C   UNL d   1       2.717   2.900   0.000  0.00  0.00     0.106 A 
ATOM     11  C   UNL d   1       3.143   2.187   0.000  0.00  0.00     0.040 A 
ATOM     12  C   UNL d   1       3.960   2.219   0.000  0.00  0.00     0.123 A 
ATOM     13  O   UNL d   1       4.402   1.518   0.000  0.00  0.00    -0.301 OA
ATOM     14  C   UNL d   1       4.362   2.948   0.000  0.00  0.00     0.123 A 
ATOM     15  C   UNL d   1       5.394   1.394   0.000  0.00  0.00     0.149 A 
ATOM     16  C   UNL d   1       5.801   2.330   0.000  0.00  0.00     0.149 A 
ATOM     17  O   UNL d   1       5.179   2.972   0.000  0.00  0.00    -0.301 OA
ATOM     18  C   UNL d   1       3.912   3.653   0.000  0.00  0.00     0.028 A 
ATOM     19  C   UNL d   1       3.099   3.629   0.000  0.00  0.00     0.015 A 
ENDBRANCH   7  10
ENDBRANCH   1   7
BRANCH   2  20
ATOM     20  C   UNL d   1      -1.813   2.781   0.000  0.00  0.00     0.163 A 
ATOM     21  N   UNL d   1      -2.279   3.414   0.000  0.00  0.00    -0.225 NA
ATOM     22  C   UNL d   1      -3.024   3.163   0.000  0.00  0.00     0.101 A 
ATOM     23  C   UNL d   1      -3.705   3.570   0.000  0.00  0.00     0.021 A 
ATOM     24  C   UNL d   1      -3.020   2.378   0.000  0.00  0.00     0.101 A 
ATOM     25  C   UNL d   1      -4.382   3.163   0.000  0.00  0.00     0.002 A 
ATOM     26  C   UNL d   1      -4.382   2.374   0.000  0.00  0.00     0.002 A 
ATOM     27  C   UNL d   1      -3.705   1.992   0.000  0.00  0.00     0.021 A 
ATOM     28  N   UNL d   1      -2.271   2.139   0.000  0.00  0.00    -0.225 NA
ENDBRANCH   2  20
TORSDOF 3
