REMARK  3 active torsions:
REMARK  status: ('A' for Active; 'I' for Inactive)
REMARK    1  A    between atoms: N_11  and  C_1 
REMARK    2  A    between atoms: N_5  and  C_4 
REMARK    3  A    between atoms: C_7  and  C_10 
REMARK       I    between atoms: C_10  and  N_12 
ROOT
ATOM      1  C   UNL d   1      -1.713   2.991   0.000  0.00  0.00     0.288 C 
ATOM      2  N   UNL d   1      -3.856   1.742   0.000  0.00  0.00    -0.281 N 
ATOM      3  N   UNL d   1      -2.431   2.569   0.000  0.00  0.00    -0.267 N 
ATOM      4  C   UNL d   1      -3.146   1.337   0.000  0.00  0.00     0.101 A 
ATOM      5  C   UNL d   1      -3.856   2.569   0.000  0.00  0.00     0.101 A 
ATOM      6  C   UNL d   1      -2.431   1.742   0.000  0.00  0.00     0.102 A 
ATOM      7  C   UNL d   1      -3.146   2.991   0.000  0.00  0.00     0.102 A 
ATOM      8  O   UNL d   1      -1.713   3.810   0.000  0.00  0.00    -0.264 OA
ENDROOT
BRANCH   2   9
ATOM      9  C   UNL d   1      -4.570   1.337   0.000  0.00  0.00     0.179 A 
ATOM     10  N   UNL d   1      -4.658   0.514   0.000  0.00  0.00    -0.222 NA
ATOM     11  C   UNL d   1      -5.460   0.338   0.000  0.00  0.00     0.089 A 
ATOM     12  C   UNL d   1      -5.865  -0.368   0.000  0.00  0.00     0.018 A 
ATOM     13  C   UNL d   1      -5.873   1.053   0.000  0.00  0.00     0.050 A 
ATOM     14  C   UNL d   1      -6.684  -0.376   0.000  0.00  0.00     0.002 A 
ATOM     15  C   UNL d   1      -5.451  -1.082   0.000  0.00  0.00     0.002 C 
ATOM     16  C   UNL d   1      -7.097   0.338   0.000  0.00  0.00     0.001 A 
ATOM     17  C   UNL d   1      -6.684   1.053   0.000  0.00  0.00     0.007 A 
ATOM     18  C   UNL d   1      -7.097   1.763   0.000  0.00  0.00     0.001 C 
ATOM     19  S   UNL d   1      -5.334   1.667   0.000  0.00  0.00    -0.048 SA
ENDBRANCH   2   9
BRANCH   1  20
ATOM     20  C   UNL d   1      -1.003   2.569   0.000  0.00  0.00     0.158 A 
ATOM     21  O   UNL d   1      -0.923   1.742   0.000  0.00  0.00    -0.281 OA
ATOM     22  C   UNL d   1      -0.109   1.575   0.000  0.00  0.00     0.228 A 
ATOM     23  C   UNL d   1       0.292   2.293   0.000  0.00  0.00     0.051 A 
ATOM     24  C   UNL d   1      -0.263   2.903   0.000  0.00  0.00     0.034 A 
BRANCH  22  25
ATOM     25  N   UNL d   1       0.242   0.823   0.000  0.00  0.00    -0.089 N 
ATOM     26  O   UNL d   1      -0.246   0.138   0.000  0.00  0.00    -0.530 OA
ATOM     27  O   UNL d   1       1.057   0.739   0.000  0.00  0.00    -0.530 OA
ENDBRANCH  22  25
ENDBRANCH   1  20
TORSDOF 3
