REMARK  4 active torsions:
REMARK  status: ('A' for Active; 'I' for Inactive)
REMARK    1  A    between atoms: N_5  and  S_1 
REMARK    2  A    between atoms: C_8  and  S_1 
REMARK    3  A    between atoms: C_2  and  C_11 
REMARK       I    between atoms: C_12  and  N_13 
REMARK    4  A    between atoms: N_13  and  C_21 
ROOT
ATOM      1  N   UNL d   1       0.993   2.749   0.000  0.00  0.00    -0.229 N 
ATOM      2  C   UNL d   1      -0.828   2.699   0.000  0.00  0.00     0.039 A 
ATOM      3  C   UNL d   1       0.556   1.944   0.000  0.00  0.00     0.092 A 
ATOM      4  C   UNL d   1       0.518   3.527   0.000  0.00  0.00     0.092 A 
ATOM      5  C   UNL d   1      -0.399   3.504   0.000  0.00  0.00     0.023 A 
ATOM      6  C   UNL d   1      -0.353   1.921   0.000  0.00  0.00     0.023 A 
ENDROOT
BRANCH   1   7
ATOM      7  S   UNL d   1       1.821   2.768   0.000  0.00  0.00     0.271 S 
ATOM      8  O   UNL d   1       1.844   1.940   0.000  0.00  0.00    -0.200 OA
ATOM      9  O   UNL d   1       1.794   3.596   0.000  0.00  0.00    -0.200 OA
BRANCH   7  10
ATOM     10  C   UNL d   1       2.646   2.803   0.000  0.00  0.00     0.104 A 
ATOM     11  C   UNL d   1       3.037   3.516   0.000  0.00  0.00     0.015 A 
ATOM     12  C   UNL d   1       3.857   3.550   0.000  0.00  0.00     0.033 A 
ATOM     13  C   UNL d   1       4.294   2.837   0.000  0.00  0.00     0.135 A 
ATOM     14  C   UNL d   1       3.903   2.105   0.000  0.00  0.00     0.033 A 
ATOM     15  C   UNL d   1       3.075   2.090   0.000  0.00  0.00     0.015 A 
BRANCH  13  16
ATOM     16  N   UNL d   1       5.118   2.860   0.000  0.00  0.00    -0.365 NA
ATOM     17  C   UNL d   1       5.947   2.876   0.000  0.00  0.00     0.328 C 
ATOM     18  O   UNL d   1       5.973   2.055   0.000  0.00  0.00    -0.251 OA
ATOM     19  C   UNL d   1       6.767   2.906   0.000  0.00  0.00     0.082 C 
ENDBRANCH  13  16
ENDBRANCH   7  10
ENDBRANCH   1   7
BRANCH   2  20
ATOM     20  C   UNL d   1      -1.744   2.676   0.000  0.00  0.00     0.163 A 
ATOM     21  N   UNL d   1      -2.193   3.286   0.000  0.00  0.00    -0.225 NA
ATOM     22  C   UNL d   1      -2.910   3.044   0.000  0.00  0.00     0.101 A 
ATOM     23  C   UNL d   1      -3.566   3.435   0.000  0.00  0.00     0.021 A 
ATOM     24  C   UNL d   1      -2.906   2.289   0.000  0.00  0.00     0.101 A 
ATOM     25  C   UNL d   1      -4.217   3.044   0.000  0.00  0.00     0.002 A 
ATOM     26  C   UNL d   1      -4.217   2.285   0.000  0.00  0.00     0.002 A 
ATOM     27  C   UNL d   1      -3.566   1.917   0.000  0.00  0.00     0.021 A 
ATOM     28  N   UNL d   1      -2.185   2.059   0.000  0.00  0.00    -0.225 NA
ENDBRANCH   2  20
TORSDOF 4
