REMARK  3 active torsions:
REMARK  status: ('A' for Active; 'I' for Inactive)
REMARK       I    between atoms: N_2  and  C_1 
REMARK    1  A    between atoms: C_9  and  C_1 
REMARK    2  A    between atoms: C_6  and  N_5 
REMARK    3  A    between atoms: N_8  and  C_7 
ROOT
ATOM      1  C   UNL d   1       1.202   2.939   0.000  0.00  0.00     0.265 C 
ATOM      2  N   UNL d   1       0.378   2.964   0.000  0.00  0.00    -0.269 N 
ATOM      3  N   UNL d   1      -1.268   3.018   0.000  0.00  0.00    -0.285 N 
ATOM      4  C   UNL d   1      -0.008   3.700   0.000  0.00  0.00     0.102 A 
ATOM      5  C   UNL d   1      -0.058   2.266   0.000  0.00  0.00     0.102 A 
ATOM      6  C   UNL d   1      -0.836   3.725   0.000  0.00  0.00     0.101 A 
ATOM      7  C   UNL d   1      -0.881   2.282   0.000  0.00  0.00     0.101 A 
ATOM      8  O   UNL d   1       1.597   2.208   0.000  0.00  0.00    -0.267 OA
ENDROOT
BRANCH   3   9
ATOM      9  C   UNL d   1      -2.095   3.043   0.000  0.00  0.00     0.170 A 
ATOM     10  N   UNL d   1      -2.482   3.767   0.000  0.00  0.00    -0.129 NA
ATOM     11  N   UNL d   1      -3.305   3.792   0.000  0.00  0.00    -0.129 NA
ATOM     12  C   UNL d   1      -3.750   3.089   0.000  0.00  0.00     0.170 A 
ATOM     13  C   UNL d   1      -3.351   2.366   0.000  0.00  0.00     0.042 A 
ATOM     14  C   UNL d   1      -2.528   2.341   0.000  0.00  0.00     0.042 A 
BRANCH  12  15
ATOM     15  N   UNL d   1      -4.573   3.114   0.000  0.00  0.00    -0.284 N 
ATOM     16  C   UNL d   1      -5.010   2.415   0.000  0.00  0.00     0.108 A 
ATOM     17  C   UNL d   1      -5.833   2.440   0.000  0.00  0.00     0.142 A 
ATOM     18  O   UNL d   1      -6.215   3.164   0.000  0.00  0.00    -0.300 OA
ATOM     19  C   UNL d   1      -5.787   3.862   0.000  0.00  0.00     0.142 A 
ATOM     20  C   UNL d   1      -4.960   3.850   0.000  0.00  0.00     0.108 A 
ENDBRANCH  12  15
ENDBRANCH   3   9
BRANCH   1  21
ATOM     21  C   UNL d   1       1.646   3.638   0.000  0.00  0.00     0.057 A 
ATOM     22  C   UNL d   1       2.474   3.613   0.000  0.00  0.00     0.005 A 
ATOM     23  C   UNL d   1       2.910   4.307   0.000  0.00  0.00     0.000 A 
ATOM     24  C   UNL d   1       3.733   4.270   0.000  0.00  0.00     0.000 C 
ATOM     25  C   UNL d   1       2.511   5.030   0.000  0.00  0.00     0.000 A 
ATOM     26  C   UNL d   1       1.684   5.064   0.000  0.00  0.00     0.000 A 
ATOM     27  C   UNL d   1       1.260   4.365   0.000  0.00  0.00     0.005 A 
ENDBRANCH   1  21
TORSDOF 3
