REMARK  4 active torsions:
REMARK  status: ('A' for Active; 'I' for Inactive)
REMARK    1  A    between atoms: C_11  and  C_1 
REMARK    2  A    between atoms: C_6  and  C_17 
REMARK       I    between atoms: N_10  and  C_6 
REMARK    3  A    between atoms: C_17  and  N_8 
REMARK    4  A    between atoms: C_15  and  N_10 
ROOT
ATOM      1  N   UNL d   1       0.568   3.027   0.000  0.00  0.00    -0.299 N 
ATOM      2  C   UNL d   1      -1.073   3.027   0.000  0.00  0.00     0.039 A 
ATOM      3  C   UNL d   1      -0.660   2.313   0.000  0.00  0.00     0.022 A 
ATOM      4  C   UNL d   1      -0.672   3.741   0.000  0.00  0.00     0.022 A 
ATOM      5  C   UNL d   1       0.154   3.741   0.000  0.00  0.00     0.081 A 
ATOM      6  C   UNL d   1       0.154   2.313   0.000  0.00  0.00     0.081 A 
ENDROOT
BRANCH   1   7
ATOM      7  C   UNL d   1       1.395   3.027   0.000  0.00  0.00     0.144 C 
BRANCH   7   8
ATOM      8  C   UNL d   1       1.808   3.745   0.000  0.00  0.00     0.297 C 
ATOM      9  N   UNL d   1       1.390   4.438   0.000  0.00  0.00    -0.207 NA
ATOM     10  O   UNL d   1       2.622   3.754   0.000  0.00  0.00    -0.264 OA
BRANCH   9  11
ATOM     11  C   UNL d   1       1.791   5.161   0.000  0.00  0.00     0.087 A 
ATOM     12  C   UNL d   1       1.365   5.854   0.000  0.00  0.00     0.045 A 
ATOM     13  C   UNL d   1       1.766   6.576   0.000  0.00  0.00     0.121 A 
ATOM     14  O   UNL d   1       1.503   7.357   0.000  0.00  0.00    -0.299 OA
ATOM     15  C   UNL d   1       2.584   6.593   0.000  0.00  0.00     0.119 A 
ATOM     16  C   UNL d   1       2.159   7.854   0.000  0.00  0.00     0.304 A 
ATOM     17  O   UNL d   1       2.831   7.378   0.000  0.00  0.00    -0.300 OA
ATOM     18  C   UNL d   1       3.006   5.879   0.000  0.00  0.00     0.028 A 
ATOM     19  C   UNL d   1       2.605   5.165   0.000  0.00  0.00     0.021 A 
ENDBRANCH   9  11
ENDBRANCH   7   8
ENDBRANCH   1   7
BRANCH   2  20
ATOM     20  C   UNL d   1      -1.900   3.027   0.000  0.00  0.00     0.163 A 
ATOM     21  N   UNL d   1      -2.388   3.683   0.000  0.00  0.00    -0.225 NA
ATOM     22  C   UNL d   1      -3.169   3.428   0.000  0.00  0.00     0.101 A 
ATOM     23  C   UNL d   1      -3.883   3.841   0.000  0.00  0.00     0.021 A 
ATOM     24  C   UNL d   1      -3.165   2.601   0.000  0.00  0.00     0.101 A 
ATOM     25  C   UNL d   1      -4.593   3.428   0.000  0.00  0.00     0.002 A 
ATOM     26  C   UNL d   1      -4.593   2.601   0.000  0.00  0.00     0.002 A 
ATOM     27  C   UNL d   1      -3.883   2.188   0.000  0.00  0.00     0.021 A 
ATOM     28  N   UNL d   1      -2.380   2.351   0.000  0.00  0.00    -0.225 NA
ENDBRANCH   2  20
TORSDOF 4
