REMARK  4 active torsions:
REMARK  status: ('A' for Active; 'I' for Inactive)
REMARK    1  A    between atoms: N_6  and  C_1 
REMARK       I    between atoms: C_7  and  N_8 
REMARK    2  A    between atoms: C_9  and  C_7 
REMARK    3  A    between atoms: O_20  and  C_10 
REMARK    4  A    between atoms: O_19  and  C_11 
ROOT
ATOM      1  C   UNL d   1      -4.568   1.336   0.000  0.00  0.00     0.180 A 
ATOM      2  N   UNL d   1      -4.655   0.514   0.000  0.00  0.00    -0.220 NA
ATOM      3  S   UNL d   1      -5.332   1.666   0.000  0.00  0.00    -0.046 SA
ATOM      4  C   UNL d   1      -5.457   0.338   0.000  0.00  0.00     0.114 A 
ATOM      5  C   UNL d   1      -5.870   1.052   0.000  0.00  0.00     0.074 A 
ATOM      6  C   UNL d   1      -5.862  -0.367   0.000  0.00  0.00     0.112 A 
ATOM      7  C   UNL d   1      -6.681   1.052   0.000  0.00  0.00     0.102 A 
ATOM      8  C   UNL d   1      -7.094   0.338   0.000  0.00  0.00     0.027 A 
ATOM      9  C   UNL d   1      -6.681  -0.376   0.000  0.00  0.00     0.028 A 
ENDROOT
BRANCH   1  10
ATOM     10  N   UNL d   1      -3.854   1.741   0.000  0.00  0.00    -0.281 N 
ATOM     11  C   UNL d   1      -3.854   2.568   0.000  0.00  0.00     0.101 A 
ATOM     12  C   UNL d   1      -3.144   2.990   0.000  0.00  0.00     0.102 A 
ATOM     13  N   UNL d   1      -2.430   2.568   0.000  0.00  0.00    -0.272 N 
ATOM     14  C   UNL d   1      -1.712   2.990   0.000  0.00  0.00     0.240 C 
ATOM     15  C   UNL d   1      -2.430   1.741   0.000  0.00  0.00     0.102 A 
ATOM     16  O   UNL d   1      -1.712   3.808   0.000  0.00  0.00    -0.272 OA
ATOM     17  C   UNL d   1      -3.144   1.336   0.000  0.00  0.00     0.101 A 
BRANCH  14  18
ATOM     18  C   UNL d   1      -1.002   2.568   0.000  0.00  0.00     0.072 C 
ATOM     19  C   UNL d   1      -1.035   1.749   0.000  0.00  0.00     0.009 C 
ATOM     20  C   UNL d   1      -0.259   2.944   0.000  0.00  0.00     0.009 C 
ATOM     21  C   UNL d   1      -0.271   2.179   0.000  0.00  0.00     0.009 C 
ENDBRANCH  14  18
ENDBRANCH   1  10
BRANCH   6  22
ATOM     22  O   UNL d   1      -5.449  -1.077   0.000  0.00  0.00    -0.327 OA
ATOM     23  C   UNL d   1      -4.630  -1.069   0.000  0.00  0.00     0.181 C 
ENDBRANCH   6  22
BRANCH   7  24
ATOM     24  O   UNL d   1      -7.094   1.762   0.000  0.00  0.00    -0.328 OA
ATOM     25  C   UNL d   1      -7.921   1.762   0.000  0.00  0.00     0.181 C 
ENDBRANCH   7  24
TORSDOF 4
