REMARK  8 active torsions:
REMARK  status: ('A' for Active; 'I' for Inactive)
REMARK    1  A    between atoms: O_10  and  C_1 
REMARK    2  A    between atoms: C_12  and  C_4 
REMARK    3  A    between atoms: N_7  and  C_12 
REMARK    4  A    between atoms: C_15  and  N_8 
REMARK    5  A    between atoms: C_9  and  C_16 
REMARK       I    between atoms: N_11  and  C_9 
REMARK    6  A    between atoms: C_16  and  O_10 
REMARK    7  A    between atoms: C_22  and  N_11 
REMARK    8  A    between atoms: C_21  and  C_15 
ROOT
ATOM      1  C   UNL d   1      -2.714   2.480   0.000  0.00  0.00     0.164 A 
ATOM      2  C   UNL d   1      -1.341   2.480   0.000  0.00  0.00     0.070 A 
ATOM      3  C   UNL d   1      -2.031   2.892   0.000  0.00  0.00     0.222 A 
ATOM      4  C   UNL d   1      -1.341   1.680   0.000  0.00  0.00     0.121 A 
ATOM      5  C   UNL d   1      -2.714   1.680   0.000  0.00  0.00     0.150 A 
ATOM      6  O   UNL d   1      -2.031   1.284   0.000  0.00  0.00    -0.301 OA
ATOM      7  O   UNL d   1      -2.031   3.683   0.000  0.00  0.00    -0.284 OA
ENDROOT
BRANCH   4   8
ATOM      8  C   UNL d   1      -0.650   1.280   0.000  0.00  0.00     0.105 C 
BRANCH   8   9
ATOM      9  N   UNL d   1      -0.650   0.456   0.000  0.00  0.00    -0.298 N 
ATOM     10  C   UNL d   1       0.065   0.032   0.000  0.00  0.00     0.100 A 
ATOM     11  C   UNL d   1       0.061  -0.800   0.000  0.00  0.00     0.100 A 
ATOM     12  N   UNL d   1      -0.654  -1.212   0.000  0.00  0.00    -0.300 N 
ATOM     13  C   UNL d   1      -1.377  -0.792   0.000  0.00  0.00     0.100 A 
ATOM     14  C   UNL d   1      -1.369   0.036   0.000  0.00  0.00     0.100 A 
BRANCH  12  15
ATOM     15  C   UNL d   1      -0.880  -2.003   0.000  0.00  0.00     0.080 C 
BRANCH  15  16
ATOM     16  C   UNL d   1      -0.472  -2.730   0.000  0.00  0.00     0.018 A 
ATOM     17  C   UNL d   1      -0.892  -3.445   0.000  0.00  0.00     0.002 A 
ATOM     18  C   UNL d   1      -0.480  -4.160   0.000  0.00  0.00     0.000 A 
ATOM     19  C   UNL d   1       0.343  -4.168   0.000  0.00  0.00     0.000 A 
ATOM     20  C   UNL d   1       0.767  -3.445   0.000  0.00  0.00     0.000 A 
ATOM     21  C   UNL d   1       0.351  -2.730   0.000  0.00  0.00     0.002 A 
ENDBRANCH  15  16
ENDBRANCH  12  15
ENDBRANCH   8   9
ENDBRANCH   4   8
BRANCH   1  22
ATOM     22  O   UNL d   1      -3.513   2.480   0.000  0.00  0.00    -0.295 OA
BRANCH  22  23
ATOM     23  C   UNL d   1      -3.933   3.198   0.000  0.00  0.00     0.185 C 
BRANCH  23  24
ATOM     24  C   UNL d   1      -3.513   3.905   0.000  0.00  0.00     0.304 C 
ATOM     25  N   UNL d   1      -3.513   4.737   0.000  0.00  0.00    -0.206 NA
ATOM     26  O   UNL d   1      -2.690   3.917   0.000  0.00  0.00    -0.263 OA
BRANCH  25  27
ATOM     27  C   UNL d   1      -3.933   5.456   0.000  0.00  0.00     0.085 C 
ATOM     28  C   UNL d   1      -3.522   6.171   0.000  0.00  0.00     0.021 C 
ATOM     29  C   UNL d   1      -4.761   5.456   0.000  0.00  0.00     0.021 C 
ENDBRANCH  25  27
ENDBRANCH  23  24
ENDBRANCH  22  23
ENDBRANCH   1  22
TORSDOF 8
