REMARK  5 active torsions:
REMARK  status: ('A' for Active; 'I' for Inactive)
REMARK    1  A    between atoms: C_2  and  C_1 
REMARK       I    between atoms: N_3  and  C_1 
REMARK       I    between atoms: N_4  and  C_2 
REMARK    2  A    between atoms: C_5  and  N_3 
REMARK    3  A    between atoms: C_10  and  N_4 
REMARK    4  A    between atoms: C_12  and  C_10 
REMARK    5  A    between atoms: O_13  and  C_11 
ROOT
ATOM      1  C   UNL d   1      -3.203   5.723   0.000  0.00  0.00     0.337 C 
ATOM      2  N   UNL d   1      -2.497   6.135   0.000  0.00  0.00    -0.204 NA
ATOM      3  O   UNL d   1      -3.918   6.135   0.000  0.00  0.00    -0.260 OA
ENDROOT
BRANCH   1   4
ATOM      4  C   UNL d   1      -3.203   4.898   0.000  0.00  0.00     0.337 C 
ATOM      5  N   UNL d   1      -3.913   4.486   0.000  0.00  0.00    -0.202 NA
ATOM      6  O   UNL d   1      -2.488   4.486   0.000  0.00  0.00    -0.260 OA
BRANCH   5   7
ATOM      7  C   UNL d   1      -3.913   3.666   0.000  0.00  0.00     0.102 C 
BRANCH   7   8
ATOM      8  C   UNL d   1      -4.628   3.253   0.000  0.00  0.00     0.022 A 
ATOM      9  C   UNL d   1      -5.333   3.666   0.000  0.00  0.00     0.022 A 
ATOM     10  C   UNL d   1      -6.048   3.253   0.000  0.00  0.00     0.099 A 
ATOM     11  N   UNL d   1      -6.048   2.429   0.000  0.00  0.00    -0.242 NA
ATOM     12  C   UNL d   1      -5.333   2.016   0.000  0.00  0.00     0.099 A 
ATOM     13  C   UNL d   1      -4.628   2.429   0.000  0.00  0.00     0.022 A 
ENDBRANCH   7   8
ENDBRANCH   5   7
ENDBRANCH   1   4
BRANCH   2  14
ATOM     14  C   UNL d   1      -2.497   6.960   0.000  0.00  0.00     0.087 A 
ATOM     15  C   UNL d   1      -1.782   7.373   0.000  0.00  0.00     0.043 A 
ATOM     16  C   UNL d   1      -1.782   8.197   0.000  0.00  0.00     0.096 A 
ATOM     17  C   UNL d   1      -2.497   8.610   0.000  0.00  0.00     0.024 A 
ATOM     18  C   UNL d   1      -3.212   8.197   0.000  0.00  0.00     0.004 A 
ATOM     19  C   UNL d   1      -3.212   7.373   0.000  0.00  0.00     0.019 A 
BRANCH  16  20
ATOM     20  O   UNL d   1      -1.068   8.623   0.000  0.00  0.00    -0.328 OA
ATOM     21  C   UNL d   1      -0.344   8.211   0.000  0.00  0.00     0.181 C 
ENDBRANCH  16  20
ENDBRANCH   2  14
TORSDOF 5
