REMARK  4 active torsions:
REMARK  status: ('A' for Active; 'I' for Inactive)
REMARK    1  A    between atoms: C_2  and  C_1 
REMARK       I    between atoms: N_3  and  C_1 
REMARK       I    between atoms: N_4  and  C_2 
REMARK    2  A    between atoms: C_8  and  N_3 
REMARK    3  A    between atoms: C_9  and  N_4 
REMARK    4  A    between atoms: C_10  and  C_9 
ROOT
ATOM      1  C   UNL d   1      -1.838   5.670   0.000  0.00  0.00     0.337 C 
ATOM      2  N   UNL d   1      -2.553   6.082   0.000  0.00  0.00    -0.204 NA
ATOM      3  O   UNL d   1      -1.838   4.845   0.000  0.00  0.00    -0.260 OA
ENDROOT
BRANCH   1   4
ATOM      4  C   UNL d   1      -1.127   6.082   0.000  0.00  0.00     0.337 C 
ATOM      5  N   UNL d   1      -0.408   5.670   0.000  0.00  0.00    -0.201 NA
ATOM      6  O   UNL d   1      -1.127   6.907   0.000  0.00  0.00    -0.260 OA
BRANCH   5   7
ATOM      7  C   UNL d   1      -0.408   4.845   0.000  0.00  0.00     0.121 C 
BRANCH   7   8
ATOM      8  C   UNL d   1       0.293   4.432   0.000  0.00  0.00     0.101 A 
ATOM      9  N   UNL d   1       1.008   4.845   0.000  0.00  0.00    -0.242 NA
ATOM     10  C   UNL d   1       1.723   4.432   0.000  0.00  0.00     0.099 A 
ATOM     11  C   UNL d   1       1.723   3.612   0.000  0.00  0.00     0.021 A 
ATOM     12  C   UNL d   1       1.008   3.199   0.000  0.00  0.00     0.003 A 
ATOM     13  C   UNL d   1       0.293   3.612   0.000  0.00  0.00     0.021 A 
ENDBRANCH   7   8
ENDBRANCH   5   7
ENDBRANCH   1   4
BRANCH   2  14
ATOM     14  C   UNL d   1      -2.553   6.907   0.000  0.00  0.00     0.085 A 
ATOM     15  C   UNL d   1      -1.838   7.320   0.000  0.00  0.00     0.019 A 
ATOM     16  C   UNL d   1      -1.838   8.145   0.000  0.00  0.00     0.002 A 
ATOM     17  C   UNL d   1      -2.553   8.557   0.000  0.00  0.00     0.000 A 
ATOM     18  C   UNL d   1      -3.259   8.145   0.000  0.00  0.00     0.002 A 
ATOM     19  C   UNL d   1      -2.553   9.382   0.000  0.00  0.00     0.000 C 
ATOM     20  C   UNL d   1      -3.259   7.320   0.000  0.00  0.00     0.019 A 
ENDBRANCH   2  14
TORSDOF 4
