REMARK  2 active torsions:
REMARK  status: ('A' for Active; 'I' for Inactive)
REMARK    1  A    between atoms: C_9  and  C_2 
REMARK    2  A    between atoms: C_12  and  C_7 
ROOT
ATOM      1  N   UNL d   1      -3.132   2.539   0.000  0.00  0.00    -0.186 N 
ATOM      2  C   UNL d   1      -3.804   3.027   0.000  0.00  0.00     0.187 A 
ATOM      3  N   UNL d   1      -3.053   1.725   0.000  0.00  0.00    -0.162 NA
ATOM      4  C   UNL d   1      -2.464   3.027   0.000  0.00  0.00     0.217 A 
ATOM      5  N   UNL d   1      -3.545   3.808   0.000  0.00  0.00    -0.127 NA
ATOM      6  N   UNL d   1      -2.718   3.808   0.000  0.00  0.00    -0.120 NA
ATOM      7  C   UNL d   1      -2.301   1.378   0.000  0.00  0.00     0.108 A 
ATOM      8  S   UNL d   1      -1.712   2.689   0.000  0.00  0.00    -0.045 SA
ATOM      9  C   UNL d   1      -1.629   1.862   0.000  0.00  0.00     0.059 A 
ENDROOT
BRANCH   2  10
ATOM     10  C   UNL d   1      -4.593   2.764   0.000  0.00  0.00     0.038 A 
ATOM     11  C   UNL d   1      -5.207   3.316   0.000  0.00  0.00     0.003 A 
ATOM     12  C   UNL d   1      -5.984   3.065   0.000  0.00  0.00     0.000 A 
ATOM     13  C   UNL d   1      -6.589   3.616   0.000  0.00  0.00     0.000 C 
ATOM     14  C   UNL d   1      -6.143   2.255   0.000  0.00  0.00     0.000 A 
ATOM     15  C   UNL d   1      -5.533   1.704   0.000  0.00  0.00     0.000 A 
ATOM     16  C   UNL d   1      -4.756   1.963   0.000  0.00  0.00     0.003 A 
ENDBRANCH   2  10
BRANCH   7  17
ATOM     17  C   UNL d   1      -2.217   0.559   0.000  0.00  0.00     0.020 A 
ATOM     18  C   UNL d   1      -1.462   0.221   0.000  0.00  0.00     0.002 A 
ATOM     19  C   UNL d   1      -1.386  -0.601   0.000  0.00  0.00     0.000 A 
ATOM     20  C   UNL d   1      -2.050  -1.082   0.000  0.00  0.00     0.000 A 
ATOM     21  C   UNL d   1      -2.806  -0.743   0.000  0.00  0.00     0.000 A 
ATOM     22  C   UNL d   1      -2.890   0.084   0.000  0.00  0.00     0.002 A 
ENDBRANCH   7  17
TORSDOF 2
