REMARK  6 active torsions:
REMARK  status: ('A' for Active; 'I' for Inactive)
REMARK    1  A    between atoms: C_5  and  N_1 
REMARK    2  A    between atoms: C_2  and  C_4 
REMARK       I    between atoms: N_3  and  C_2 
REMARK    3  A    between atoms: C_7  and  N_3 
REMARK       I    between atoms: C_4  and  N_8 
REMARK    4  A    between atoms: C_10  and  C_5 
REMARK    5  A    between atoms: C_14  and  C_5 
REMARK    6  A    between atoms: N_8  and  C_10 
ROOT
ATOM      1  C   UNL d   1       4.592  -0.579   0.000  0.00  0.00     0.085 C 
ENDROOT
BRANCH   1   2
ATOM      2  N   UNL d   1       3.867  -0.154   0.000  0.00  0.00    -0.302 N 
ATOM      3  C   UNL d   1       3.867   0.671   0.000  0.00  0.00     0.080 A 
ATOM      4  C   UNL d   1       3.154   1.083   0.000  0.00  0.00     0.018 A 
ATOM      5  C   UNL d   1       3.154   1.913   0.000  0.00  0.00     0.002 A 
ATOM      6  C   UNL d   1       2.442   0.671   0.000  0.00  0.00     0.003 A 
ATOM      7  C   UNL d   1       2.442   2.333   0.000  0.00  0.00     0.000 A 
ATOM      8  C   UNL d   1       1.725   1.913   0.000  0.00  0.00     0.000 A 
ATOM      9  C   UNL d   1       1.725   1.083   0.000  0.00  0.00     0.000 A 
ATOM     10  C   UNL d   1       2.442  -0.154   0.000  0.00  0.00     0.019 A 
ATOM     11  C   UNL d   1       3.154  -0.567   0.000  0.00  0.00     0.080 A 
ENDBRANCH   1   2
BRANCH   1  12
ATOM     12  C   UNL d   1       4.588  -1.404   0.000  0.00  0.00     0.120 C 
BRANCH  12  13
ATOM     13  N   UNL d   1       3.875  -1.817   0.000  0.00  0.00    -0.201 NA
ATOM     14  C   UNL d   1       3.875  -2.650   0.000  0.00  0.00     0.337 C 
ATOM     15  O   UNL d   1       4.592  -3.062   0.000  0.00  0.00    -0.260 OA
BRANCH  14  16
ATOM     16  C   UNL d   1       3.163  -3.062   0.000  0.00  0.00     0.337 C 
ATOM     17  N   UNL d   1       3.163  -3.892   0.000  0.00  0.00    -0.202 NA
ATOM     18  O   UNL d   1       2.442  -2.650   0.000  0.00  0.00    -0.260 OA
BRANCH  17  19
ATOM     19  C   UNL d   1       2.442  -4.304   0.000  0.00  0.00     0.112 A 
ATOM     20  C   UNL d   1       2.442  -5.129   0.000  0.00  0.00     0.160 A 
ATOM     21  C   UNL d   1       1.738  -5.542   0.000  0.00  0.00     0.061 A 
ATOM     22  F   UNL d   1       3.167  -5.554   0.000  0.00  0.00    -0.203 F 
ATOM     23  C   UNL d   1       1.017  -5.129   0.000  0.00  0.00     0.142 A 
ATOM     24  C   UNL d   1       1.017  -4.304   0.000  0.00  0.00     0.031 A 
ATOM     25  F   UNL d   1       0.300  -5.554   0.000  0.00  0.00    -0.204 F 
ATOM     26  C   UNL d   1       1.738  -3.892   0.000  0.00  0.00     0.024 A 
ENDBRANCH  17  19
ENDBRANCH  14  16
ENDBRANCH  12  13
ENDBRANCH   1  12
BRANCH   1  27
ATOM     27  C   UNL d   1       5.304  -0.167   0.000  0.00  0.00     0.037 A 
ATOM     28  C   UNL d   1       6.017  -0.579   0.000  0.00  0.00     0.100 A 
ATOM     29  N   UNL d   1       6.729  -0.167   0.000  0.00  0.00    -0.242 NA
ATOM     30  C   UNL d   1       6.729   0.662   0.000  0.00  0.00     0.099 A 
ATOM     31  C   UNL d   1       6.017   1.075   0.000  0.00  0.00     0.021 A 
ATOM     32  C   UNL d   1       5.304   0.662   0.000  0.00  0.00     0.005 A 
ENDBRANCH   1  27
TORSDOF 6
