REMARK  5 active torsions:
REMARK  status: ('A' for Active; 'I' for Inactive)
REMARK    1  A    between atoms: C_2  and  C_1 
REMARK    2  A    between atoms: O_16  and  C_13 
REMARK    3  A    between atoms: C_21  and  O_16 
REMARK    4  A    between atoms: O_22  and  C_17 
REMARK    5  A    between atoms: C_20  and  C_21 
ROOT
ATOM      1  C   UNL d   1       7.969  -3.371   0.000  0.00  0.00     0.030 A 
ATOM      2  C   UNL d   1       7.255  -2.958   0.000  0.00  0.00     0.027 A 
ATOM      3  C   UNL d   1       7.260  -2.132   0.000  0.00  0.00     0.103 A 
ATOM      4  O   UNL d   1       7.974  -1.720   0.000  0.00  0.00    -0.273 OA
ATOM      5  C   UNL d   1       8.688  -2.132   0.000  0.00  0.00     0.300 A 
ATOM      6  C   UNL d   1       8.683  -2.958   0.000  0.00  0.00     0.071 A 
ATOM      7  C   UNL d   1       6.530  -3.365   0.000  0.00  0.00     0.027 A 
ATOM      8  C   UNL d   1       5.831  -2.942   0.000  0.00  0.00     0.100 A 
ATOM      9  C   UNL d   1       6.545  -1.714   0.000  0.00  0.00     0.027 A 
ATOM     10  C   UNL d   1       5.831  -2.117   0.000  0.00  0.00     0.025 A 
ATOM     11  O   UNL d   1       9.403  -1.730   0.000  0.00  0.00    -0.259 OA
ATOM     12  C   UNL d   1       5.127  -1.704   0.000  0.00  0.00     0.002 C 
ENDROOT
BRANCH   1  13
ATOM     13  C   UNL d   1       7.958  -4.196   0.000  0.00  0.00     0.100 A 
ATOM     14  O   UNL d   1       8.625  -4.683   0.000  0.00  0.00    -0.305 OA
ATOM     15  C   UNL d   1       8.371  -5.466   0.000  0.00  0.00     0.122 A 
ATOM     16  C   UNL d   1       8.778  -6.180   0.000  0.00  0.00     0.117 A 
ATOM     17  C   UNL d   1       7.546  -5.466   0.000  0.00  0.00     0.027 A 
ATOM     18  C   UNL d   1       8.371  -6.889   0.000  0.00  0.00     0.026 A 
ATOM     19  C   UNL d   1       7.546  -6.895   0.000  0.00  0.00     0.002 A 
ATOM     20  C   UNL d   1       7.133  -6.180   0.000  0.00  0.00     0.002 A 
ATOM     21  C   UNL d   1       7.292  -4.683   0.000  0.00  0.00     0.027 A 
BRANCH  16  22
ATOM     22  O   UNL d   1       9.593  -6.180   0.000  0.00  0.00    -0.326 OA
ATOM     23  C   UNL d   1      10.006  -5.466   0.000  0.00  0.00     0.181 C 
ENDBRANCH  16  22
ENDBRANCH   1  13
BRANCH   8  24
ATOM     24  O   UNL d   1       5.112  -3.355   0.000  0.00  0.00    -0.302 OA
BRANCH  24  25
ATOM     25  C   UNL d   1       5.112  -4.180   0.000  0.00  0.00     0.165 C 
BRANCH  25  26
ATOM     26  C   UNL d   1       4.402  -4.593   0.000  0.00  0.00     0.220 C 
ATOM     27  O   UNL d   1       3.688  -4.180   0.000  0.00  0.00    -0.284 OA
ATOM     28  C   UNL d   1       4.397  -5.403   0.000  0.00  0.00     0.048 C 
ENDBRANCH  25  26
ENDBRANCH  24  25
ENDBRANCH   8  24
TORSDOF 5
