REMARK  3 active torsions:
REMARK  status: ('A' for Active; 'I' for Inactive)
REMARK    1  A    between atoms: C_10  and  C_4 
REMARK    2  A    between atoms: C_11  and  C_7 
REMARK    3  A    between atoms: C_12  and  C_10 
ROOT
ATOM      1  N   UNL d   1       3.862  -0.191   0.000  0.00  0.00    -0.186 N 
ATOM      2  N   UNL d   1       3.140  -0.614   0.000  0.00  0.00    -0.162 NA
ATOM      3  C   UNL d   1       4.580  -0.614   0.000  0.00  0.00     0.217 A 
ATOM      4  C   UNL d   1       4.037   0.606   0.000  0.00  0.00     0.187 A 
ATOM      5  N   UNL d   1       4.854   0.693   0.000  0.00  0.00    -0.127 NA
ATOM      6  N   UNL d   1       5.182  -0.054   0.000  0.00  0.00    -0.120 NA
ATOM      7  C   UNL d   1       3.140  -1.435   0.000  0.00  0.00     0.108 A 
ATOM      8  S   UNL d   1       4.559  -1.435   0.000  0.00  0.00    -0.045 SA
ATOM      9  C   UNL d   1       3.858  -1.859   0.000  0.00  0.00     0.059 A 
ENDROOT
BRANCH   4  10
ATOM     10  C   UNL d   1       3.510   1.228   0.000  0.00  0.00     0.041 C 
BRANCH  10  11
ATOM     11  C   UNL d   1       2.713   1.079   0.000  0.00  0.00     0.003 A 
ATOM     12  C   UNL d   1       2.431   0.307   0.000  0.00  0.00     0.000 A 
ATOM     13  C   UNL d   1       1.622   0.145   0.000  0.00  0.00     0.000 A 
ATOM     14  C   UNL d   1       1.095   0.767   0.000  0.00  0.00     0.000 A 
ATOM     15  C   UNL d   1       1.373   1.539   0.000  0.00  0.00     0.000 A 
ATOM     16  C   UNL d   1       2.170   1.701   0.000  0.00  0.00     0.000 A 
ENDBRANCH  10  11
ENDBRANCH   4  10
BRANCH   7  17
ATOM     17  C   UNL d   1       2.419  -1.846   0.000  0.00  0.00     0.020 A 
ATOM     18  C   UNL d   1       2.414  -2.676   0.000  0.00  0.00     0.002 A 
ATOM     19  C   UNL d   1       1.697  -3.099   0.000  0.00  0.00     0.000 A 
ATOM     20  C   UNL d   1       0.975  -2.676   0.000  0.00  0.00     0.000 A 
ATOM     21  C   UNL d   1       0.975  -1.859   0.000  0.00  0.00     0.000 A 
ATOM     22  C   UNL d   1       1.697  -1.435   0.000  0.00  0.00     0.002 A 
ENDBRANCH   7  17
TORSDOF 3
