REMARK  4 active torsions:
REMARK  status: ('A' for Active; 'I' for Inactive)
REMARK    1  A    between atoms: C_2  and  C_1 
REMARK    2  A    between atoms: O_18  and  C_16 
REMARK    3  A    between atoms: C_17  and  C_19 
REMARK    4  A    between atoms: C_19  and  O_18 
ROOT
ATOM      1  C   UNL d   1       8.271  -3.371   0.000  0.00  0.00     0.030 A 
ATOM      2  C   UNL d   1       7.556  -2.958   0.000  0.00  0.00     0.027 A 
ATOM      3  C   UNL d   1       8.990  -2.143   0.000  0.00  0.00     0.300 A 
ATOM      4  C   UNL d   1       8.985  -2.958   0.000  0.00  0.00     0.071 A 
ATOM      5  C   UNL d   1       7.561  -2.132   0.000  0.00  0.00     0.103 A 
ATOM      6  O   UNL d   1       8.276  -1.720   0.000  0.00  0.00    -0.273 OA
ATOM      7  C   UNL d   1       6.831  -3.371   0.000  0.00  0.00     0.027 A 
ATOM      8  O   UNL d   1       9.704  -1.736   0.000  0.00  0.00    -0.259 OA
ATOM      9  C   UNL d   1       6.847  -1.720   0.000  0.00  0.00     0.027 A 
ATOM     10  C   UNL d   1       6.133  -2.953   0.000  0.00  0.00     0.100 A 
ATOM     11  C   UNL d   1       6.133  -2.127   0.000  0.00  0.00     0.027 A 
ENDROOT
BRANCH   1  12
ATOM     12  C   UNL d   1       8.260  -4.207   0.000  0.00  0.00     0.100 A 
ATOM     13  O   UNL d   1       7.593  -4.688   0.000  0.00  0.00    -0.307 OA
ATOM     14  C   UNL d   1       7.847  -5.466   0.000  0.00  0.00     0.100 A 
ATOM     15  C   UNL d   1       7.434  -6.180   0.000  0.00  0.00     0.025 A 
ATOM     16  C   UNL d   1       8.673  -5.477   0.000  0.00  0.00     0.025 A 
ATOM     17  C   UNL d   1       7.847  -6.895   0.000  0.00  0.00     0.002 A 
ATOM     18  C   UNL d   1       8.673  -6.895   0.000  0.00  0.00     0.000 A 
ATOM     19  C   UNL d   1       9.080  -6.180   0.000  0.00  0.00     0.002 A 
ATOM     20  C   UNL d   1       8.927  -4.688   0.000  0.00  0.00     0.027 A 
ENDBRANCH   1  12
BRANCH  10  21
ATOM     21  O   UNL d   1       5.413  -3.365   0.000  0.00  0.00    -0.302 OA
BRANCH  21  22
ATOM     22  C   UNL d   1       5.413  -4.180   0.000  0.00  0.00     0.165 C 
BRANCH  22  23
ATOM     23  C   UNL d   1       4.704  -4.593   0.000  0.00  0.00     0.220 C 
ATOM     24  O   UNL d   1       3.990  -4.180   0.000  0.00  0.00    -0.284 OA
ATOM     25  C   UNL d   1       4.699  -5.418   0.000  0.00  0.00     0.048 C 
ENDBRANCH  22  23
ENDBRANCH  21  22
ENDBRANCH  10  21
TORSDOF 4
