REMARK  4 active torsions:
REMARK  status: ('A' for Active; 'I' for Inactive)
REMARK    1  A    between atoms: C_9  and  C_3 
REMARK    2  A    between atoms: C_11  and  C_7 
REMARK    3  A    between atoms: O_22  and  C_16 
REMARK    4  A    between atoms: O_23  and  C_17 
ROOT
ATOM      1  N   UNL d   1       4.277  -0.797   0.000  0.00  0.00    -0.186 N 
ATOM      2  N   UNL d   1       3.555  -1.213   0.000  0.00  0.00    -0.162 NA
ATOM      3  C   UNL d   1       4.452  -0.004   0.000  0.00  0.00     0.187 A 
ATOM      4  C   UNL d   1       4.987  -1.213   0.000  0.00  0.00     0.217 A 
ATOM      5  N   UNL d   1       5.261   0.087   0.000  0.00  0.00    -0.127 NA
ATOM      6  N   UNL d   1       5.594  -0.652   0.000  0.00  0.00    -0.120 NA
ATOM      7  C   UNL d   1       3.555  -2.035   0.000  0.00  0.00     0.108 A 
ATOM      8  S   UNL d   1       4.971  -2.035   0.000  0.00  0.00    -0.045 SA
ATOM      9  C   UNL d   1       4.265  -2.458   0.000  0.00  0.00     0.059 A 
ENDROOT
BRANCH   3  10
ATOM     10  C   UNL d   1       3.879   0.594   0.000  0.00  0.00     0.038 A 
ATOM     11  C   UNL d   1       3.090   0.395   0.000  0.00  0.00     0.005 A 
ATOM     12  C   UNL d   1       2.517   0.993   0.000  0.00  0.00     0.024 A 
ATOM     13  C   UNL d   1       2.757   1.782   0.000  0.00  0.00     0.094 A 
ATOM     14  C   UNL d   1       3.551   1.981   0.000  0.00  0.00     0.024 A 
ATOM     15  C   UNL d   1       4.115   1.383   0.000  0.00  0.00     0.005 A 
BRANCH  13  16
ATOM     16  O   UNL d   1       2.197   2.400   0.000  0.00  0.00    -0.328 OA
ATOM     17  C   UNL d   1       1.375   2.226   0.000  0.00  0.00     0.181 C 
ENDBRANCH  13  16
ENDBRANCH   3  10
BRANCH   7  18
ATOM     18  C   UNL d   1       2.841  -2.442   0.000  0.00  0.00     0.020 A 
ATOM     19  C   UNL d   1       2.832  -3.268   0.000  0.00  0.00     0.004 A 
ATOM     20  C   UNL d   1       2.122  -3.688   0.000  0.00  0.00     0.024 A 
ATOM     21  C   UNL d   1       1.399  -3.268   0.000  0.00  0.00     0.094 A 
ATOM     22  C   UNL d   1       1.399  -2.458   0.000  0.00  0.00     0.024 A 
ATOM     23  C   UNL d   1       2.122  -2.035   0.000  0.00  0.00     0.004 A 
BRANCH  21  24
ATOM     24  O   UNL d   1       0.685  -3.688   0.000  0.00  0.00    -0.328 OA
ATOM     25  C   UNL d   1      -0.037  -3.276   0.000  0.00  0.00     0.181 C 
ENDBRANCH  21  24
ENDBRANCH   7  18
TORSDOF 4
