REMARK  4 active torsions:
REMARK  status: ('A' for Active; 'I' for Inactive)
REMARK    1  A    between atoms: C_3  and  S_1 
REMARK    2  A    between atoms: N_5  and  S_1 
REMARK    3  A    between atoms: C_11  and  N_5 
REMARK    4  A    between atoms: C_21  and  N_5 
ROOT
ATOM      1  N   UNL d   1      -1.178   6.385   0.000  0.00  0.00    -0.273 N 
ATOM      2  C   UNL d   1      -3.309   5.147   0.000  0.00  0.00     0.104 A 
ATOM      3  C   UNL d   1      -1.884   5.972   0.000  0.00  0.00     0.067 A 
ATOM      4  C   UNL d   1      -2.594   6.385   0.000  0.00  0.00     0.017 A 
ATOM      5  C   UNL d   1      -1.884   5.147   0.000  0.00  0.00     0.017 A 
ATOM      6  C   UNL d   1      -1.178   7.210   0.000  0.00  0.00     0.265 A 
ATOM      7  C   UNL d   1      -3.309   5.972   0.000  0.00  0.00     0.014 A 
ATOM      8  C   UNL d   1      -2.594   4.735   0.000  0.00  0.00     0.014 A 
ATOM      9  C   UNL d   1      -2.594   7.210   0.000  0.00  0.00     0.006 A 
ATOM     10  C   UNL d   1      -1.884   7.622   0.000  0.00  0.00     0.061 A 
ATOM     11  O   UNL d   1      -0.454   7.631   0.000  0.00  0.00    -0.267 OA
ATOM     12  C   UNL d   1      -0.463   5.972   0.000  0.00  0.00     0.083 A 
ATOM     13  C   UNL d   1      -1.178   4.735   0.000  0.00  0.00     0.003 A 
ATOM     14  C   UNL d   1      -0.463   5.147   0.000  0.00  0.00     0.019 A 
ENDROOT
BRANCH   2  15
ATOM     15  S   UNL d   1      -4.029   4.735   0.000  0.00  0.00     0.271 S 
ATOM     16  O   UNL d   1      -4.450   5.450   0.000  0.00  0.00    -0.200 OA
ATOM     17  O   UNL d   1      -3.612   4.015   0.000  0.00  0.00    -0.200 OA
BRANCH  15  18
ATOM     18  N   UNL d   1      -4.753   4.317   0.000  0.00  0.00    -0.231 N 
BRANCH  18  19
ATOM     19  C   UNL d   1      -5.468   4.721   0.000  0.00  0.00     0.075 A 
ATOM     20  C   UNL d   1      -5.468   5.546   0.000  0.00  0.00     0.018 A 
ATOM     21  C   UNL d   1      -6.174   5.958   0.000  0.00  0.00     0.002 A 
ATOM     22  C   UNL d   1      -6.174   6.793   0.000  0.00  0.00     0.000 C 
ATOM     23  C   UNL d   1      -6.889   5.546   0.000  0.00  0.00     0.000 A 
ATOM     24  C   UNL d   1      -6.889   4.721   0.000  0.00  0.00     0.002 A 
ATOM     25  C   UNL d   1      -6.174   4.317   0.000  0.00  0.00     0.018 A 
ENDBRANCH  18  19
BRANCH  18  26
ATOM     26  C   UNL d   1      -4.753   3.493   0.000  0.00  0.00     0.092 C 
ATOM     27  C   UNL d   1      -5.468   3.080   0.000  0.00  0.00     0.021 C 
ENDBRANCH  18  26
ENDBRANCH  15  18
ENDBRANCH   2  15
TORSDOF 4
