REMARK  1 active torsions:
REMARK  status: ('A' for Active; 'I' for Inactive)
REMARK    1  A    between atoms: N_8  and  C_7 
REMARK       I    between atoms: C_11  and  N_8 
ROOT
ATOM      1  N   UNL d   1      -4.244   8.089   0.000  0.00  0.00    -0.273 N 
ATOM      2  C   UNL d   1      -4.244   7.264   0.000  0.00  0.00     0.067 A 
ATOM      3  C   UNL d   1      -3.529   6.852   0.000  0.00  0.00     0.019 A 
ATOM      4  C   UNL d   1      -4.950   6.852   0.000  0.00  0.00     0.018 A 
ATOM      5  C   UNL d   1      -4.950   8.502   0.000  0.00  0.00     0.265 A 
ATOM      6  C   UNL d   1      -3.460   8.337   0.000  0.00  0.00     0.083 A 
ATOM      7  C   UNL d   1      -4.244   5.614   0.000  0.00  0.00     0.085 A 
ATOM      8  C   UNL d   1      -3.529   6.027   0.000  0.00  0.00     0.021 A 
ATOM      9  C   UNL d   1      -4.950   6.027   0.000  0.00  0.00     0.021 A 
ATOM     10  C   UNL d   1      -2.910   7.402   0.000  0.00  0.00     0.021 A 
ATOM     11  C   UNL d   1      -5.674   7.264   0.000  0.00  0.00     0.006 A 
ATOM     12  C   UNL d   1      -5.674   8.089   0.000  0.00  0.00     0.061 A 
ATOM     13  O   UNL d   1      -4.950   9.327   0.000  0.00  0.00    -0.267 OA
ENDROOT
BRANCH   7  14
ATOM     14  N   UNL d   1      -4.244   4.790   0.000  0.00  0.00    -0.208 NA
ATOM     15  C   UNL d   1      -4.945   4.382   0.000  0.00  0.00     0.279 C 
ATOM     16  O   UNL d   1      -5.674   4.790   0.000  0.00  0.00    -0.265 OA
ATOM     17  C   UNL d   1      -4.950   3.557   0.000  0.00  0.00     0.068 C 
ENDBRANCH   7  14
TORSDOF 1
