REMARK  5 active torsions:
REMARK  status: ('A' for Active; 'I' for Inactive)
REMARK    1  A    between atoms: C_3  and  S_1 
REMARK    2  A    between atoms: N_10  and  S_1 
REMARK    3  A    between atoms: C_19  and  N_10 
REMARK    4  A    between atoms: C_21  and  C_19 
REMARK    5  A    between atoms: C_22  and  C_21 
ROOT
ATOM      1  N   UNL d   1      -1.169   6.385   0.000  0.00  0.00    -0.273 N 
ATOM      2  C   UNL d   1      -3.309   5.147   0.000  0.00  0.00     0.104 A 
ATOM      3  C   UNL d   1      -1.884   5.972   0.000  0.00  0.00     0.067 A 
ATOM      4  C   UNL d   1      -2.594   6.385   0.000  0.00  0.00     0.017 A 
ATOM      5  C   UNL d   1      -1.884   5.147   0.000  0.00  0.00     0.017 A 
ATOM      6  C   UNL d   1      -1.169   7.210   0.000  0.00  0.00     0.265 A 
ATOM      7  C   UNL d   1      -3.309   5.972   0.000  0.00  0.00     0.014 A 
ATOM      8  C   UNL d   1      -2.594   4.735   0.000  0.00  0.00     0.014 A 
ATOM      9  C   UNL d   1      -2.594   7.210   0.000  0.00  0.00     0.006 A 
ATOM     10  C   UNL d   1      -1.884   7.622   0.000  0.00  0.00     0.061 A 
ATOM     11  O   UNL d   1      -0.449   7.631   0.000  0.00  0.00    -0.267 OA
ATOM     12  C   UNL d   1      -0.454   5.972   0.000  0.00  0.00     0.083 A 
ATOM     13  C   UNL d   1      -1.178   4.735   0.000  0.00  0.00     0.003 A 
ATOM     14  C   UNL d   1      -0.463   5.147   0.000  0.00  0.00     0.019 A 
ENDROOT
BRANCH   2  15
ATOM     15  S   UNL d   1      -4.029   4.735   0.000  0.00  0.00     0.271 S 
ATOM     16  O   UNL d   1      -3.612   4.015   0.000  0.00  0.00    -0.200 OA
ATOM     17  O   UNL d   1      -4.450   5.450   0.000  0.00  0.00    -0.200 OA
BRANCH  15  18
ATOM     18  N   UNL d   1      -4.753   4.317   0.000  0.00  0.00    -0.228 N 
ATOM     19  C   UNL d   1      -5.468   4.721   0.000  0.00  0.00     0.111 C 
BRANCH  18  20
ATOM     20  C   UNL d   1      -4.753   3.493   0.000  0.00  0.00     0.092 C 
BRANCH  20  21
ATOM     21  C   UNL d   1      -5.468   3.080   0.000  0.00  0.00     0.020 C 
BRANCH  21  22
ATOM     22  C   UNL d   1      -5.468   2.255   0.000  0.00  0.00     0.002 C 
ATOM     23  C   UNL d   1      -6.169   1.843   0.000  0.00  0.00     0.000 C 
ENDBRANCH  21  22
ENDBRANCH  20  21
ENDBRANCH  18  20
ENDBRANCH  15  18
ENDBRANCH   2  15
TORSDOF 5
