REMARK  8 active torsions:
REMARK  status: ('A' for Active; 'I' for Inactive)
REMARK    1  A    between atoms: N_6  and  C_1 
REMARK    2  A    between atoms: N_8  and  C_2 
REMARK    3  A    between atoms: N_15  and  C_7 
REMARK    4  A    between atoms: C_12  and  N_8 
REMARK    5  A    between atoms: N_10  and  C_19 
REMARK    6  A    between atoms: C_24  and  N_15 
REMARK    7  A    between atoms: C_19  and  C_20 
REMARK    8  A    between atoms: C_20  and  C_24 
ROOT
ATOM      1  C   UNL d   1       4.375  -1.529   0.000  0.00  0.00     0.201 A 
ATOM      2  C   UNL d   1       3.663  -1.104   0.000  0.00  0.00     0.206 A 
ATOM      3  N   UNL d   1       2.962  -1.529   0.000  0.00  0.00    -0.038 NA
ATOM      4  N   UNL d   1       3.663  -2.750   0.000  0.00  0.00    -0.036 NA
ATOM      5  C   UNL d   1       4.375  -2.350   0.000  0.00  0.00     0.227 A 
ATOM      6  C   UNL d   1       2.962  -2.350   0.000  0.00  0.00     0.753 A 
ATOM      7  N   UNL d   1       5.092  -2.754   0.000  0.00  0.00    -0.125 N 
ENDROOT
BRANCH   6   8
ATOM      8  N   UNL d   1       2.250  -2.763   0.000  0.00  0.00    -0.058 NA
BRANCH   8   9
ATOM      9  C   UNL d   1       2.254  -3.587   0.000  0.00  0.00     0.120 C 
BRANCH   9  10
ATOM     10  C   UNL d   1       1.542  -4.000   0.000  0.00  0.00     0.040 C 
BRANCH  10  11
ATOM     11  C   UNL d   1       1.542  -4.825   0.000  0.00  0.00     0.082 C 
BRANCH  11  12
ATOM     12  N   UNL d   1       0.829  -5.242   0.000  0.00  0.00    -0.299 N 
ATOM     13  C   UNL d   1       0.117  -4.825   0.000  0.00  0.00     0.107 A 
ATOM     14  C   UNL d   1      -0.596  -5.237   0.000  0.00  0.00     0.142 A 
ATOM     15  O   UNL d   1      -0.596  -6.062   0.000  0.00  0.00    -0.300 OA
ATOM     16  C   UNL d   1       0.117  -6.475   0.000  0.00  0.00     0.142 A 
ATOM     17  C   UNL d   1       0.838  -6.062   0.000  0.00  0.00     0.107 A 
ENDBRANCH  11  12
ENDBRANCH  10  11
ENDBRANCH   9  10
ENDBRANCH   8   9
ENDBRANCH   6   8
BRANCH   2  18
ATOM     18  N   UNL d   1       3.663  -0.279   0.000  0.00  0.00    -0.225 NA
BRANCH  18  19
ATOM     19  C   UNL d   1       2.950   0.138   0.000  0.00  0.00     0.085 A 
ATOM     20  C   UNL d   1       2.954   0.971   0.000  0.00  0.00     0.049 A 
ATOM     21  C   UNL d   1       2.250   1.383   0.000  0.00  0.00     0.142 A 
ATOM     22  F   UNL d   1       2.254   2.208   0.000  0.00  0.00    -0.204 F 
ATOM     23  C   UNL d   1       1.529   0.975   0.000  0.00  0.00     0.030 A 
ATOM     24  C   UNL d   1       1.525   0.150   0.000  0.00  0.00     0.004 A 
ATOM     25  C   UNL d   1       2.237  -0.267   0.000  0.00  0.00     0.019 A 
ENDBRANCH  18  19
ENDBRANCH   2  18
BRANCH   1  26
ATOM     26  N   UNL d   1       5.104  -1.104   0.000  0.00  0.00    -0.107 N 
ATOM     27  O   UNL d   1       5.825  -1.529   0.000  0.00  0.00    -0.531 OA
ATOM     28  O   UNL d   1       5.104  -0.267   0.000  0.00  0.00    -0.531 OA
ENDBRANCH   1  26
TORSDOF 8
