REMARK  7 active torsions:
REMARK  status: ('A' for Active; 'I' for Inactive)
REMARK    1  A    between atoms: N_7  and  C_1 
REMARK    2  A    between atoms: N_8  and  C_4 
REMARK    3  A    between atoms: N_9  and  C_5 
REMARK    4  A    between atoms: C_14  and  N_8 
REMARK    5  A    between atoms: C_13  and  N_9 
REMARK    6  A    between atoms: C_20  and  C_14 
REMARK    7  A    between atoms: O_21  and  C_15 
ROOT
ATOM      1  C   UNL d   1       4.418  -2.312   0.000  0.00  0.00     0.201 A 
ATOM      2  N   UNL d   1       3.024  -2.312   0.000  0.00  0.00    -0.038 NA
ATOM      3  N   UNL d   1       3.716  -3.576   0.000  0.00  0.00    -0.036 NA
ATOM      4  C   UNL d   1       3.716  -1.879   0.000  0.00  0.00     0.206 A 
ATOM      5  C   UNL d   1       3.024  -3.164   0.000  0.00  0.00     0.753 A 
ATOM      6  C   UNL d   1       4.418  -3.164   0.000  0.00  0.00     0.227 A 
ATOM      7  N   UNL d   1       5.125  -3.582   0.000  0.00  0.00    -0.125 N 
ENDROOT
BRANCH   5   8
ATOM      8  N   UNL d   1       2.322  -3.582   0.000  0.00  0.00    -0.059 NA
BRANCH   8   9
ATOM      9  C   UNL d   1       2.328  -4.433   0.000  0.00  0.00     0.100 A 
ATOM     10  C   UNL d   1       1.615  -4.862   0.000  0.00  0.00     0.022 A 
ATOM     11  C   UNL d   1       1.615  -5.703   0.000  0.00  0.00     0.026 A 
ATOM     12  C   UNL d   1       2.322  -6.136   0.000  0.00  0.00     0.094 A 
ATOM     13  C   UNL d   1       3.024  -5.703   0.000  0.00  0.00     0.026 A 
ATOM     14  C   UNL d   1       3.024  -4.851   0.000  0.00  0.00     0.022 A 
BRANCH  12  15
ATOM     15  O   UNL d   1       2.322  -6.983   0.000  0.00  0.00    -0.328 OA
ATOM     16  C   UNL d   1       3.024  -7.406   0.000  0.00  0.00     0.181 C 
ENDBRANCH  12  15
ENDBRANCH   8   9
ENDBRANCH   5   8
BRANCH   4  17
ATOM     17  N   UNL d   1       3.721  -1.058   0.000  0.00  0.00    -0.223 NA
BRANCH  17  18
ATOM     18  C   UNL d   1       3.009  -0.650   0.000  0.00  0.00     0.101 C 
BRANCH  18  19
ATOM     19  C   UNL d   1       3.009   0.170   0.000  0.00  0.00     0.019 A 
ATOM     20  C   UNL d   1       3.721   0.583   0.000  0.00  0.00     0.002 A 
ATOM     21  C   UNL d   1       3.721   1.393   0.000  0.00  0.00     0.000 A 
ATOM     22  C   UNL d   1       3.009   1.806   0.000  0.00  0.00     0.000 A 
ATOM     23  C   UNL d   1       2.297   1.404   0.000  0.00  0.00     0.000 A 
ATOM     24  C   UNL d   1       2.297   0.573   0.000  0.00  0.00     0.002 A 
ENDBRANCH  18  19
ENDBRANCH  17  18
ENDBRANCH   4  17
BRANCH   1  25
ATOM     25  N   UNL d   1       5.140  -1.879   0.000  0.00  0.00    -0.107 N 
ATOM     26  O   UNL d   1       5.842  -2.322   0.000  0.00  0.00    -0.531 OA
ATOM     27  O   UNL d   1       5.140  -1.022   0.000  0.00  0.00    -0.531 OA
ENDBRANCH   1  25
TORSDOF 7
