REMARK  7 active torsions:
REMARK  status: ('A' for Active; 'I' for Inactive)
REMARK    1  A    between atoms: N_3  and  S_1 
REMARK    2  A    between atoms: C_6  and  S_1 
REMARK    3  A    between atoms: N_2  and  C_5 
REMARK    4  A    between atoms: C_4  and  N_3 
REMARK    5  A    between atoms: C_5  and  C_4 
REMARK    6  A    between atoms: C_10  and  C_5 
REMARK    7  A    between atoms: O_26  and  C_20 
ROOT
ATOM      1  C   UNL d   1      -5.025   6.230   0.000  0.00  0.00     0.084 C 
ENDROOT
BRANCH   1   2
ATOM      2  N   UNL d   1      -5.740   5.818   0.000  0.00  0.00    -0.300 N 
ATOM      3  C   UNL d   1      -6.445   6.230   0.000  0.00  0.00     0.100 A 
ATOM      4  C   UNL d   1      -7.160   5.818   0.000  0.00  0.00     0.100 A 
ATOM      5  N   UNL d   1      -7.160   4.993   0.000  0.00  0.00    -0.299 N 
ATOM      6  C   UNL d   1      -6.445   4.581   0.000  0.00  0.00     0.100 A 
ATOM      7  C   UNL d   1      -7.879   4.581   0.000  0.00  0.00     0.100 C 
ATOM      8  C   UNL d   1      -5.740   4.993   0.000  0.00  0.00     0.100 A 
ENDBRANCH   1   2
BRANCH   1   9
ATOM      9  C   UNL d   1      -4.311   5.818   0.000  0.00  0.00     0.130 C 
BRANCH   9  10
ATOM     10  N   UNL d   1      -3.596   6.230   0.000  0.00  0.00    -0.155 NA
BRANCH  10  11
ATOM     11  S   UNL d   1      -2.881   5.818   0.000  0.00  0.00     0.285 S 
ATOM     12  O   UNL d   1      -3.298   5.103   0.000  0.00  0.00    -0.198 OA
ATOM     13  O   UNL d   1      -2.167   5.405   0.000  0.00  0.00    -0.198 OA
BRANCH  11  14
ATOM     14  C   UNL d   1      -2.469   6.546   0.000  0.00  0.00     0.105 A 
ATOM     15  C   UNL d   1      -2.881   7.247   0.000  0.00  0.00     0.015 A 
ATOM     16  C   UNL d   1      -2.469   7.971   0.000  0.00  0.00     0.025 A 
ATOM     17  C   UNL d   1      -1.645   7.971   0.000  0.00  0.00     0.094 A 
ATOM     18  C   UNL d   1      -1.232   7.247   0.000  0.00  0.00     0.025 A 
ATOM     19  C   UNL d   1      -1.645   6.546   0.000  0.00  0.00     0.015 A 
BRANCH  17  20
ATOM     20  O   UNL d   1      -1.223   8.690   0.000  0.00  0.00    -0.328 OA
ATOM     21  C   UNL d   1      -0.399   8.690   0.000  0.00  0.00     0.181 C 
ENDBRANCH  17  20
ENDBRANCH  11  14
ENDBRANCH  10  11
ENDBRANCH   9  10
ENDBRANCH   1   9
BRANCH   1  22
ATOM     22  C   UNL d   1      -5.025   7.064   0.000  0.00  0.00     0.018 A 
ATOM     23  C   UNL d   1      -4.311   7.476   0.000  0.00  0.00     0.004 A 
ATOM     24  C   UNL d   1      -4.311   8.300   0.000  0.00  0.00     0.030 A 
ATOM     25  C   UNL d   1      -5.025   8.713   0.000  0.00  0.00     0.140 A 
ATOM     26  C   UNL d   1      -5.740   8.300   0.000  0.00  0.00     0.030 A 
ATOM     27  F   UNL d   1      -5.025   9.537   0.000  0.00  0.00    -0.204 F 
ATOM     28  C   UNL d   1      -5.740   7.476   0.000  0.00  0.00     0.004 A 
ENDBRANCH   1  22
TORSDOF 7
