REMARK  4 active torsions:
REMARK  status: ('A' for Active; 'I' for Inactive)
REMARK    1  A    between atoms: N_2  and  S_1 
REMARK    2  A    between atoms: C_4  and  S_1 
REMARK       I    between atoms: C_3  and  N_7 
REMARK    3  A    between atoms: C_6  and  C_3 
REMARK    4  A    between atoms: N_7  and  C_12 
ROOT
ATOM      1  N   UNL d   1      -5.283   6.684   0.000  0.00  0.00    -0.230 N 
ATOM      2  C   UNL d   1      -4.573   6.264   0.000  0.00  0.00     0.076 A 
ATOM      3  C   UNL d   1      -4.573   5.441   0.000  0.00  0.00     0.037 A 
ATOM      4  C   UNL d   1      -3.849   5.030   0.000  0.00  0.00     0.086 A 
ATOM      5  C   UNL d   1      -3.849   6.676   0.000  0.00  0.00     0.017 A 
ATOM      6  C   UNL d   1      -3.130   6.264   0.000  0.00  0.00     0.003 A 
ATOM      7  C   UNL d   1      -5.275   7.512   0.000  0.00  0.00     0.092 A 
ATOM      8  C   UNL d   1      -3.139   5.441   0.000  0.00  0.00     0.019 A 
ATOM      9  C   UNL d   1      -4.560   7.923   0.000  0.00  0.00     0.020 A 
ATOM     10  C   UNL d   1      -3.849   7.507   0.000  0.00  0.00     0.003 A 
ENDROOT
BRANCH   4  11
ATOM     11  N   UNL d   1      -3.849   4.203   0.000  0.00  0.00    -0.208 NA
ATOM     12  C   UNL d   1      -4.560   3.791   0.000  0.00  0.00     0.282 C 
ATOM     13  O   UNL d   1      -5.283   4.194   0.000  0.00  0.00    -0.265 OA
BRANCH  12  14
ATOM     14  C   UNL d   1      -4.573   2.976   0.000  0.00  0.00     0.096 A 
ATOM     15  C   UNL d   1      -3.853   2.552   0.000  0.00  0.00     0.065 A 
ATOM     16 CL   UNL d   1      -3.139   2.964   0.000  0.00  0.00    -0.082 Cl
ATOM     17  C   UNL d   1      -3.862   1.729   0.000  0.00  0.00     0.012 A 
ATOM     18  C   UNL d   1      -4.585   1.322   0.000  0.00  0.00     0.003 A 
ATOM     19  C   UNL d   1      -5.296   1.742   0.000  0.00  0.00     0.030 A 
ATOM     20  C   UNL d   1      -5.283   2.565   0.000  0.00  0.00     0.146 A 
ATOM     21  F   UNL d   1      -5.990   2.976   0.000  0.00  0.00    -0.204 F 
ENDBRANCH  12  14
ENDBRANCH   4  11
BRANCH   1  22
ATOM     22  S   UNL d   1      -5.998   6.264   0.000  0.00  0.00     0.277 S 
ATOM     23  O   UNL d   1      -6.402   6.988   0.000  0.00  0.00    -0.199 OA
ATOM     24  O   UNL d   1      -5.595   5.554   0.000  0.00  0.00    -0.199 OA
BRANCH  22  25
ATOM     25  C   UNL d   1      -6.713   5.861   0.000  0.00  0.00     0.133 A 
ATOM     26  S   UNL d   1      -6.809   5.042   0.000  0.00  0.00    -0.074 SA
ATOM     27  C   UNL d   1      -7.611   4.876   0.000  0.00  0.00     0.036 A 
ATOM     28  C   UNL d   1      -8.023   5.591   0.000  0.00  0.00     0.008 A 
ATOM     29  C   UNL d   1      -7.462   6.202   0.000  0.00  0.00     0.020 A 
ENDBRANCH  22  25
ENDBRANCH   1  22
TORSDOF 4
