REMARK  5 active torsions:
REMARK  status: ('A' for Active; 'I' for Inactive)
REMARK    1  A    between atoms: C_12  and  C_3 
REMARK    2  A    between atoms: C_14  and  N_5 
REMARK    3  A    between atoms: C_11  and  C_6 
REMARK    4  A    between atoms: O_25  and  C_12 
REMARK    5  A    between atoms: C_24  and  C_14 
ROOT
ATOM      1  C   UNL d   1       6.170  -5.629   0.000  0.00  0.00     0.080 A 
ATOM      2  C   UNL d   1       5.454  -6.045   0.000  0.00  0.00     0.267 A 
ATOM      3  C   UNL d   1       7.605  -5.616   0.000  0.00  0.00     0.106 A 
ATOM      4  C   UNL d   1       6.170  -4.797   0.000  0.00  0.00     0.108 A 
ATOM      5  N   UNL d   1       4.734  -5.629   0.000  0.00  0.00    -0.271 N 
ATOM      6  C   UNL d   1       6.889  -6.032   0.000  0.00  0.00     0.015 A 
ATOM      7  C   UNL d   1       7.601  -4.793   0.000  0.00  0.00     0.208 A 
ATOM      8  O   UNL d   1       6.881  -4.372   0.000  0.00  0.00    -0.288 OA
ATOM      9  C   UNL d   1       5.454  -4.385   0.000  0.00  0.00     0.043 A 
ATOM     10  C   UNL d   1       4.734  -4.797   0.000  0.00  0.00     0.069 A 
ATOM     11  O   UNL d   1       5.454  -6.869   0.000  0.00  0.00    -0.267 OA
ATOM     12  N   UNL d   1       8.316  -4.372   0.000  0.00  0.00    -0.121 N 
ATOM     13  C   UNL d   1       4.023  -4.385   0.000  0.00  0.00     0.019 C 
ENDROOT
BRANCH   6  14
ATOM     14  C   UNL d   1       6.894  -6.856   0.000  0.00  0.00     0.001 A 
ATOM     15  C   UNL d   1       6.178  -7.268   0.000  0.00  0.00     0.012 A 
ATOM     16  C   UNL d   1       6.182  -8.092   0.000  0.00  0.00     0.068 A 
ATOM     17 CL   UNL d   1       5.471  -8.504   0.000  0.00  0.00    -0.082 Cl
ATOM     18  C   UNL d   1       6.894  -8.504   0.000  0.00  0.00     0.068 A 
ATOM     19  C   UNL d   1       7.613  -8.079   0.000  0.00  0.00     0.012 A 
ATOM     20 CL   UNL d   1       6.902  -9.327   0.000  0.00  0.00    -0.082 Cl
ATOM     21  C   UNL d   1       7.605  -7.255   0.000  0.00  0.00     0.001 A 
ENDBRANCH   6  14
BRANCH   3  22
ATOM     22  C   UNL d   1       8.316  -6.020   0.000  0.00  0.00     0.299 C 
ATOM     23  O   UNL d   1       8.325  -6.844   0.000  0.00  0.00    -0.259 OA
BRANCH  22  24
ATOM     24  O   UNL d   1       9.028  -5.608   0.000  0.00  0.00    -0.296 OA
ATOM     25  C   UNL d   1       9.748  -6.016   0.000  0.00  0.00     0.185 C 
ENDBRANCH  22  24
ENDBRANCH   3  22
BRANCH   5  26
ATOM     26  C   UNL d   1       4.023  -6.032   0.000  0.00  0.00     0.108 C 
BRANCH  26  27
ATOM     27  C   UNL d   1       3.312  -5.620   0.000  0.00  0.00     0.118 A 
ATOM     28  O   UNL d   1       3.224  -4.809   0.000  0.00  0.00    -0.304 OA
ATOM     29  C   UNL d   1       2.421  -4.635   0.000  0.00  0.00     0.123 A 
ATOM     30  C   UNL d   1       2.001  -5.346   0.000  0.00  0.00     0.029 A 
ATOM     31  C   UNL d   1       2.559  -5.957   0.000  0.00  0.00     0.028 A 
ENDBRANCH  26  27
ENDBRANCH   5  26
TORSDOF 5
