REMARK  4 active torsions:
REMARK  status: ('A' for Active; 'I' for Inactive)
REMARK       I    between atoms: C_2  and  N_1 
REMARK    1  A    between atoms: C_6  and  C_2 
REMARK       I    between atoms: C_4  and  N_7 
REMARK    2  A    between atoms: C_5  and  C_4 
REMARK       I    between atoms: N_10  and  C_5 
REMARK    3  A    between atoms: N_7  and  C_13 
REMARK    4  A    between atoms: C_19  and  N_10 
ROOT
ATOM      1  N   UNL d   1      -1.852   4.982   0.000  0.00  0.00    -0.273 N 
ATOM      2  C   UNL d   1      -2.571   5.408   0.000  0.00  0.00     0.265 C 
ATOM      3  C   UNL d   1      -1.852   4.162   0.000  0.00  0.00     0.068 A 
ATOM      4  C   UNL d   1      -2.567   3.749   0.000  0.00  0.00     0.037 A 
ATOM      5  C   UNL d   1      -1.141   3.749   0.000  0.00  0.00     0.016 A 
ATOM      6  C   UNL d   1      -2.567   2.924   0.000  0.00  0.00     0.086 A 
ATOM      7  O   UNL d   1      -3.282   4.996   0.000  0.00  0.00    -0.267 OA
ATOM      8  C   UNL d   1      -1.141   2.924   0.000  0.00  0.00     0.003 A 
ATOM      9  C   UNL d   1      -1.141   5.395   0.000  0.00  0.00     0.083 A 
ATOM     10  C   UNL d   1      -1.852   2.512   0.000  0.00  0.00     0.019 A 
ATOM     11  C   UNL d   1      -0.426   4.982   0.000  0.00  0.00     0.019 A 
ATOM     12  C   UNL d   1      -0.426   4.162   0.000  0.00  0.00     0.003 A 
ENDROOT
BRANCH   6  13
ATOM     13  N   UNL d   1      -3.286   2.512   0.000  0.00  0.00    -0.204 NA
ATOM     14  C   UNL d   1      -3.286   1.687   0.000  0.00  0.00     0.337 C 
ATOM     15  O   UNL d   1      -2.571   1.274   0.000  0.00  0.00    -0.260 OA
BRANCH  14  16
ATOM     16  C   UNL d   1      -3.997   1.274   0.000  0.00  0.00     0.337 C 
ATOM     17  N   UNL d   1      -3.997   0.449   0.000  0.00  0.00    -0.204 NA
ATOM     18  O   UNL d   1      -4.712   1.687   0.000  0.00  0.00    -0.260 OA
BRANCH  17  19
ATOM     19  C   UNL d   1      -4.712   0.037   0.000  0.00  0.00     0.085 A 
ATOM     20  C   UNL d   1      -5.418   0.449   0.000  0.00  0.00     0.019 A 
ATOM     21  C   UNL d   1      -6.142   0.037   0.000  0.00  0.00     0.002 A 
ATOM     22  C   UNL d   1      -6.142  -0.788   0.000  0.00  0.00     0.000 A 
ATOM     23  C   UNL d   1      -5.418  -1.201   0.000  0.00  0.00     0.002 A 
ATOM     24  C   UNL d   1      -4.712  -0.788   0.000  0.00  0.00     0.019 A 
ENDBRANCH  17  19
ENDBRANCH  14  16
ENDBRANCH   6  13
BRANCH   2  25
ATOM     25  C   UNL d   1      -2.567   6.233   0.000  0.00  0.00     0.057 A 
ATOM     26  C   UNL d   1      -2.567   7.058   0.000  0.00  0.00     0.005 A 
ATOM     27  C   UNL d   1      -3.282   6.646   0.000  0.00  0.00     0.005 A 
ENDBRANCH   2  25
TORSDOF 4
