REMARK  5 active torsions:
REMARK  status: ('A' for Active; 'I' for Inactive)
REMARK    1  A    between atoms: N_6  and  C_1 
REMARK    2  A    between atoms: S_10  and  C_4 
REMARK       I    between atoms: C_7  and  N_6 
REMARK       I    between atoms: N_8  and  C_7 
REMARK    3  A    between atoms: C_11  and  N_8 
REMARK    4  A    between atoms: C_18  and  S_10 
REMARK    5  A    between atoms: C_19  and  C_18 
ROOT
ATOM      1  N   UNL d   1      -1.489   2.546   0.000  0.00  0.00    -0.321 NA
ATOM      2  C   UNL d   1      -2.196   2.557   0.000  0.00  0.00     0.422 C 
ATOM      3  N   UNL d   1      -3.071   2.546   0.000  0.00  0.00    -0.180 NA
ATOM      4  O   UNL d   1      -2.204   3.257   0.000  0.00  0.00    -0.228 OA
ENDROOT
BRANCH   1   5
ATOM      5  C   UNL d   1      -0.639   2.357   0.000  0.00  0.00     0.271 A 
ATOM      6  S   UNL d   1      -0.032   2.718   0.000  0.00  0.00    -0.006 SA
ATOM      7  C   UNL d   1       0.582   2.357   0.000  0.00  0.00     0.166 A 
ATOM      8  N   UNL d   1       0.582   1.650   0.000  0.00  0.00    -0.132 NA
ATOM      9  N   UNL d   1      -0.639   1.650   0.000  0.00  0.00    -0.107 NA
BRANCH   7  10
ATOM     10  S   UNL d   1       1.264   2.600   0.000  0.00  0.00    -0.059 SA
BRANCH  10  11
ATOM     11  C   UNL d   1       1.889   2.068   0.000  0.00  0.00     0.037 C 
BRANCH  11  12
ATOM     12  C   UNL d   1       1.739   1.261   0.000  0.00  0.00     0.007 C 
ATOM     13  C   UNL d   1       0.968   0.982   0.000  0.00  0.00     0.001 C 
ENDBRANCH  11  12
ENDBRANCH  10  11
ENDBRANCH   7  10
ENDBRANCH   1   5
BRANCH   3  14
ATOM     14  C   UNL d   1      -3.489   3.264   0.000  0.00  0.00     0.087 A 
ATOM     15  C   UNL d   1      -3.075   3.979   0.000  0.00  0.00     0.022 A 
ATOM     16  C   UNL d   1      -3.500   4.686   0.000  0.00  0.00     0.031 A 
ATOM     17  C   UNL d   1      -4.325   4.686   0.000  0.00  0.00     0.140 A 
ATOM     18  C   UNL d   1      -4.732   3.968   0.000  0.00  0.00     0.031 A 
ATOM     19  F   UNL d   1      -4.743   5.404   0.000  0.00  0.00    -0.204 F 
ATOM     20  C   UNL d   1      -4.314   3.257   0.000  0.00  0.00     0.022 A 
ENDBRANCH   3  14
TORSDOF 5
