REMARK  5 active torsions:
REMARK  status: ('A' for Active; 'I' for Inactive)
REMARK    1  A    between atoms: N_6  and  C_1 
REMARK    2  A    between atoms: S_10  and  C_4 
REMARK       I    between atoms: C_7  and  N_6 
REMARK       I    between atoms: N_8  and  C_7 
REMARK    3  A    between atoms: C_11  and  N_8 
REMARK    4  A    between atoms: C_12  and  S_10 
REMARK    5  A    between atoms: C_15  and  C_12 
ROOT
ATOM      1  N   UNL d   1      -1.497   2.559   0.000  0.00  0.00    -0.321 NA
ATOM      2  C   UNL d   1      -2.207   2.570   0.000  0.00  0.00     0.422 C 
ATOM      3  N   UNL d   1      -3.086   2.559   0.000  0.00  0.00    -0.180 NA
ATOM      4  O   UNL d   1      -2.214   3.273   0.000  0.00  0.00    -0.228 OA
ENDROOT
BRANCH   1   5
ATOM      5  C   UNL d   1      -0.642   2.369   0.000  0.00  0.00     0.271 A 
ATOM      6  S   UNL d   1      -0.032   2.731   0.000  0.00  0.00    -0.006 SA
ATOM      7  C   UNL d   1       0.585   2.369   0.000  0.00  0.00     0.166 A 
ATOM      8  N   UNL d   1       0.585   1.658   0.000  0.00  0.00    -0.132 NA
ATOM      9  N   UNL d   1      -0.642   1.658   0.000  0.00  0.00    -0.107 NA
BRANCH   7  10
ATOM     10  S   UNL d   1       1.270   2.613   0.000  0.00  0.00    -0.059 SA
BRANCH  10  11
ATOM     11  C   UNL d   1       1.899   2.078   0.000  0.00  0.00     0.037 C 
BRANCH  11  12
ATOM     12  C   UNL d   1       1.748   1.267   0.000  0.00  0.00     0.007 C 
ATOM     13  C   UNL d   1       0.973   0.987   0.000  0.00  0.00     0.001 C 
ENDBRANCH  11  12
ENDBRANCH  10  11
ENDBRANCH   7  10
ENDBRANCH   1   5
BRANCH   3  14
ATOM     14  C   UNL d   1      -3.506   3.280   0.000  0.00  0.00     0.087 A 
ATOM     15  C   UNL d   1      -3.097   3.987   0.000  0.00  0.00     0.019 A 
ATOM     16  C   UNL d   1      -3.517   4.709   0.000  0.00  0.00     0.002 A 
ATOM     17  C   UNL d   1      -4.339   4.709   0.000  0.00  0.00     0.000 A 
ATOM     18  C   UNL d   1      -4.755   3.987   0.000  0.00  0.00     0.002 A 
ATOM     19  C   UNL d   1      -4.335   3.273   0.000  0.00  0.00     0.019 A 
ENDBRANCH   3  14
TORSDOF 5
