REMARK  8 active torsions:
REMARK  status: ('A' for Active; 'I' for Inactive)
REMARK    1  A    between atoms: S_13  and  C_4 
REMARK    2  A    between atoms: C_5  and  N_10 
REMARK    3  A    between atoms: C_20  and  N_6 
REMARK       I    between atoms: N_10  and  C_14 
REMARK    4  A    between atoms: C_19  and  S_13 
REMARK    5  A    between atoms: C_14  and  C_19 
REMARK    6  A    between atoms: C_22  and  C_20 
REMARK    7  A    between atoms: C_28  and  C_22 
REMARK    8  A    between atoms: N_25  and  C_28 
ROOT
ATOM      1  N   UNL d   1      -4.120   5.986   0.000  0.00  0.00    -0.185 NA
ATOM      2  C   UNL d   1      -4.120   6.811   0.000  0.00  0.00     0.354 A 
ATOM      3  C   UNL d   1      -2.690   5.986   0.000  0.00  0.00     0.040 A 
ATOM      4  C   UNL d   1      -3.405   5.573   0.000  0.00  0.00     0.117 A 
ATOM      5  N   UNL d   1      -3.405   7.223   0.000  0.00  0.00    -0.258 N 
ATOM      6  C   UNL d   1      -2.690   6.811   0.000  0.00  0.00     0.070 A 
ATOM      7  O   UNL d   1      -4.835   7.232   0.000  0.00  0.00    -0.244 OA
ATOM      8  C   UNL d   1      -1.907   5.738   0.000  0.00  0.00     0.004 A 
ATOM      9  C   UNL d   1      -1.907   7.067   0.000  0.00  0.00     0.018 A 
ATOM     10  C   UNL d   1      -1.425   6.412   0.000  0.00  0.00     0.002 A 
ENDROOT
BRANCH   4  11
ATOM     11  S   UNL d   1      -3.405   4.748   0.000  0.00  0.00    -0.062 SA
BRANCH  11  12
ATOM     12  C   UNL d   1      -4.111   4.340   0.000  0.00  0.00     0.099 C 
BRANCH  12  13
ATOM     13  C   UNL d   1      -4.111   3.515   0.000  0.00  0.00     0.288 C 
ATOM     14  N   UNL d   1      -4.822   3.103   0.000  0.00  0.00    -0.182 NA
ATOM     15  O   UNL d   1      -3.396   3.103   0.000  0.00  0.00    -0.265 OA
BRANCH  14  16
ATOM     16  C   UNL d   1      -4.822   2.278   0.000  0.00  0.00     0.197 A 
ATOM     17  N   UNL d   1      -5.537   1.865   0.000  0.00  0.00    -0.221 NA
ATOM     18  C   UNL d   1      -5.358   1.054   0.000  0.00  0.00     0.090 A 
ATOM     19  C   UNL d   1      -5.839   0.385   0.000  0.00  0.00     0.020 A 
ATOM     20  C   UNL d   1      -4.547   0.972   0.000  0.00  0.00     0.050 A 
ATOM     21  C   UNL d   1      -5.500  -0.362   0.000  0.00  0.00     0.002 A 
ATOM     22  C   UNL d   1      -4.684  -0.445   0.000  0.00  0.00     0.001 A 
ATOM     23  C   UNL d   1      -4.203   0.220   0.000  0.00  0.00     0.008 A 
ATOM     24  C   UNL d   1      -4.354  -1.215   0.000  0.00  0.00     0.000 C 
ATOM     25  S   UNL d   1      -4.207   1.728   0.000  0.00  0.00    -0.047 SA
ENDBRANCH  14  16
ENDBRANCH  12  13
ENDBRANCH  11  12
ENDBRANCH   4  11
BRANCH   5  26
ATOM     26  C   UNL d   1      -3.405   8.048   0.000  0.00  0.00     0.086 C 
BRANCH  26  27
ATOM     27  C   UNL d   1      -4.111   8.461   0.000  0.00  0.00     0.038 C 
BRANCH  27  28
ATOM     28  C   UNL d   1      -4.111   9.286   0.000  0.00  0.00     0.082 C 
BRANCH  28  29
ATOM     29  N   UNL d   1      -4.822   9.698   0.000  0.00  0.00    -0.300 N 
ATOM     30  C   UNL d   1      -4.822  10.523   0.000  0.00  0.00     0.100 C 
ATOM     31  C   UNL d   1      -5.537   9.286   0.000  0.00  0.00     0.100 C 
ENDBRANCH  28  29
ENDBRANCH  27  28
ENDBRANCH  26  27
ENDBRANCH   5  26
TORSDOF 8
