REMARK  5 active torsions:
REMARK  status: ('A' for Active; 'I' for Inactive)
REMARK    1  A    between atoms: N_6  and  C_1 
REMARK    2  A    between atoms: S_10  and  C_4 
REMARK       I    between atoms: C_7  and  N_6 
REMARK       I    between atoms: N_8  and  C_7 
REMARK    3  A    between atoms: C_11  and  N_8 
REMARK    4  A    between atoms: C_17  and  S_10 
REMARK    5  A    between atoms: C_19  and  C_17 
ROOT
ATOM      1  N   UNL d   1      -1.490   2.548   0.000  0.00  0.00    -0.321 NA
ATOM      2  C   UNL d   1      -2.198   2.559   0.000  0.00  0.00     0.422 C 
ATOM      3  N   UNL d   1      -3.073   2.548   0.000  0.00  0.00    -0.180 NA
ATOM      4  O   UNL d   1      -2.205   3.259   0.000  0.00  0.00    -0.228 OA
ENDROOT
BRANCH   1   5
ATOM      5  C   UNL d   1      -0.640   2.359   0.000  0.00  0.00     0.271 A 
ATOM      6  S   UNL d   1      -0.032   2.720   0.000  0.00  0.00    -0.006 SA
ATOM      7  C   UNL d   1       0.583   2.359   0.000  0.00  0.00     0.166 A 
ATOM      8  N   UNL d   1       0.583   1.651   0.000  0.00  0.00    -0.132 NA
ATOM      9  N   UNL d   1      -0.640   1.651   0.000  0.00  0.00    -0.107 NA
BRANCH   7  10
ATOM     10  S   UNL d   1       1.265   2.602   0.000  0.00  0.00    -0.059 SA
BRANCH  10  11
ATOM     11  C   UNL d   1       1.891   2.069   0.000  0.00  0.00     0.037 C 
BRANCH  11  12
ATOM     12  C   UNL d   1       1.740   1.262   0.000  0.00  0.00     0.007 C 
ATOM     13  C   UNL d   1       0.969   0.983   0.000  0.00  0.00     0.001 C 
ENDBRANCH  11  12
ENDBRANCH  10  11
ENDBRANCH   7  10
ENDBRANCH   1   5
BRANCH   3  14
ATOM     14  C   UNL d   1      -3.491   3.266   0.000  0.00  0.00     0.087 A 
ATOM     15  C   UNL d   1      -4.317   3.256   0.000  0.00  0.00     0.019 A 
ATOM     16  C   UNL d   1      -4.735   3.967   0.000  0.00  0.00     0.002 A 
ATOM     17  C   UNL d   1      -4.317   4.685   0.000  0.00  0.00     0.000 A 
ATOM     18  C   UNL d   1      -3.491   4.689   0.000  0.00  0.00     0.002 A 
ATOM     19  C   UNL d   1      -4.735   5.396   0.000  0.00  0.00     0.000 C 
ATOM     20  C   UNL d   1      -3.073   3.970   0.000  0.00  0.00     0.019 A 
ENDBRANCH   3  14
TORSDOF 5
