REMARK  9 active torsions:
REMARK  status: ('A' for Active; 'I' for Inactive)
REMARK    1  A    between atoms: C_7  and  N_1 
REMARK    2  A    between atoms: C_8  and  C_3 
REMARK    3  A    between atoms: O_9  and  C_6 
REMARK    4  A    between atoms: O_19  and  C_8 
REMARK    5  A    between atoms: C_18  and  O_9 
REMARK    6  A    between atoms: C_10  and  C_18 
REMARK       I    between atoms: N_11  and  C_10 
REMARK    7  A    between atoms: C_14  and  N_11 
REMARK    8  A    between atoms: C_28  and  O_19 
REMARK    9  A    between atoms: O_23  and  C_20 
ROOT
ATOM      1  N   UNL d   1      -0.309   5.040   0.000  0.00  0.00    -0.194 N 
ATOM      2  N   UNL d   1      -0.309   4.213   0.000  0.00  0.00    -0.155 NA
ATOM      3  C   UNL d   1      -1.023   3.808   0.000  0.00  0.00     0.187 A 
ATOM      4  C   UNL d   1      -1.023   5.453   0.000  0.00  0.00     0.282 A 
ATOM      5  C   UNL d   1      -1.737   5.040   0.000  0.00  0.00     0.089 A 
ATOM      6  C   UNL d   1      -1.737   4.221   0.000  0.00  0.00     0.130 A 
ATOM      7  O   UNL d   1      -1.023   6.276   0.000  0.00  0.00    -0.265 OA
ENDROOT
BRANCH   6   8
ATOM      8  O   UNL d   1      -2.451   3.808   0.000  0.00  0.00    -0.298 OA
BRANCH   8   9
ATOM      9  C   UNL d   1      -3.165   4.213   0.000  0.00  0.00     0.185 C 
BRANCH   9  10
ATOM     10  C   UNL d   1      -3.165   5.040   0.000  0.00  0.00     0.304 C 
ATOM     11  N   UNL d   1      -3.879   5.449   0.000  0.00  0.00    -0.206 NA
ATOM     12  O   UNL d   1      -2.455   5.449   0.000  0.00  0.00    -0.263 OA
BRANCH  11  13
ATOM     13  C   UNL d   1      -3.879   6.276   0.000  0.00  0.00     0.087 A 
ATOM     14  C   UNL d   1      -4.580   6.689   0.000  0.00  0.00     0.043 A 
ATOM     15  C   UNL d   1      -4.593   7.507   0.000  0.00  0.00     0.096 A 
ATOM     16  C   UNL d   1      -3.879   7.921   0.000  0.00  0.00     0.024 A 
ATOM     17  C   UNL d   1      -3.165   7.507   0.000  0.00  0.00     0.004 A 
ATOM     18  C   UNL d   1      -3.165   6.689   0.000  0.00  0.00     0.019 A 
BRANCH  15  19
ATOM     19  O   UNL d   1      -5.307   7.908   0.000  0.00  0.00    -0.328 OA
ATOM     20  C   UNL d   1      -5.307   8.735   0.000  0.00  0.00     0.181 C 
ENDBRANCH  15  19
ENDBRANCH  11  13
ENDBRANCH   9  10
ENDBRANCH   8   9
ENDBRANCH   6   8
BRANCH   3  21
ATOM     21  C   UNL d   1      -1.023   2.990   0.000  0.00  0.00     0.322 C 
ATOM     22  O   UNL d   1      -1.737   2.576   0.000  0.00  0.00    -0.257 OA
BRANCH  21  23
ATOM     23  O   UNL d   1      -0.309   2.568   0.000  0.00  0.00    -0.270 OA
BRANCH  23  24
ATOM     24  C   UNL d   1      -0.309   1.749   0.000  0.00  0.00     0.126 C 
ATOM     25  C   UNL d   1       0.405   1.336   0.000  0.00  0.00     0.029 C 
ENDBRANCH  23  24
ENDBRANCH  21  23
ENDBRANCH   3  21
BRANCH   1  26
ATOM     26  C   UNL d   1       0.405   5.449   0.000  0.00  0.00     0.097 A 
ATOM     27  C   UNL d   1       1.127   5.027   0.000  0.00  0.00     0.075 A 
ATOM     28 CL   UNL d   1       1.119   4.209   0.000  0.00  0.00    -0.081 Cl
ATOM     29  C   UNL d   1       1.833   5.441   0.000  0.00  0.00     0.013 A 
ATOM     30  C   UNL d   1       1.841   6.267   0.000  0.00  0.00     0.001 A 
ATOM     31  C   UNL d   1       1.119   6.681   0.000  0.00  0.00     0.002 A 
ATOM     32  C   UNL d   1       0.405   6.267   0.000  0.00  0.00     0.020 A 
ENDBRANCH   1  26
TORSDOF 9
