REMARK  2 active torsions:
REMARK  status: ('A' for Active; 'I' for Inactive)
REMARK    1  A    between atoms: C_10  and  N_1 
REMARK    2  A    between atoms: C_13  and  C_10 
ROOT
ATOM      1  N   UNL d   1       6.849 -10.177   0.000  0.00  0.00    -0.260 N 
ATOM      2  C   UNL d   1       6.275 -10.759   0.000  0.00  0.00     0.174 A 
ATOM      3  C   UNL d   1       6.840  -9.358   0.000  0.00  0.00     0.348 A 
ATOM      4  N   UNL d   1       6.262  -8.793   0.000  0.00  0.00    -0.216 NA
ATOM      5  C   UNL d   1       5.439  -8.802   0.000  0.00  0.00     0.137 A 
ATOM      6  O   UNL d   1       5.461 -10.772   0.000  0.00  0.00    -0.316 OA
ATOM      7  C   UNL d   1       6.172  -9.598   0.000  0.00  0.00     0.079 A 
ATOM      8  C   UNL d   1       4.874  -9.384   0.000  0.00  0.00     0.022 A 
ATOM      9  C   UNL d   1       4.883 -10.194   0.000  0.00  0.00     0.094 A 
ATOM     10  O   UNL d   1       7.585  -9.046   0.000  0.00  0.00    -0.245 OA
ATOM     11  C   UNL d   1       6.442 -11.564   0.000  0.00  0.00     0.055 C 
ATOM     12  C   UNL d   1       4.167  -8.973   0.000  0.00  0.00    -0.001 A 
ATOM     13  C   UNL d   1       4.167 -10.605   0.000  0.00  0.00     0.024 A 
ATOM     14  C   UNL d   1       3.461  -9.384   0.000  0.00  0.00    -0.000 A 
ATOM     15  C   UNL d   1       3.461 -10.202   0.000  0.00  0.00     0.002 A 
ENDROOT
BRANCH   1  16
ATOM     16  C   UNL d   1       7.675 -10.296   0.000  0.00  0.00     0.082 C 
BRANCH  16  17
ATOM     17  C   UNL d   1       7.984 -11.089   0.000  0.00  0.00     0.017 A 
ATOM     18  C   UNL d   1       7.457 -11.748   0.000  0.00  0.00     0.002 A 
ATOM     19  C   UNL d   1       7.765 -12.541   0.000  0.00  0.00     0.000 A 
ATOM     20  C   UNL d   1       8.600 -12.669   0.000  0.00  0.00     0.000 A 
ATOM     21  C   UNL d   1       9.136 -12.001   0.000  0.00  0.00     0.000 A 
ATOM     22  C   UNL d   1       8.819 -11.217   0.000  0.00  0.00     0.002 A 
ENDBRANCH  16  17
ENDBRANCH   1  16
TORSDOF 2
