REMARK  8 active torsions:
REMARK  status: ('A' for Active; 'I' for Inactive)
REMARK    1  A    between atoms: C_7  and  C_2 
REMARK    2  A    between atoms: C_12  and  N_3 
REMARK    3  A    between atoms: O_9  and  C_6 
REMARK    4  A    between atoms: O_22  and  C_7 
REMARK    5  A    between atoms: C_8  and  N_11 
REMARK    6  A    between atoms: C_20  and  O_9 
REMARK    7  A    between atoms: C_10  and  C_20 
REMARK       I    between atoms: N_11  and  C_10 
REMARK    8  A    between atoms: C_27  and  O_22 
ROOT
ATOM      1  N   UNL d   1      -0.309   4.213   0.000  0.00  0.00    -0.155 NA
ATOM      2  C   UNL d   1      -1.023   3.808   0.000  0.00  0.00     0.187 A 
ATOM      3  N   UNL d   1      -0.309   5.040   0.000  0.00  0.00    -0.194 N 
ATOM      4  C   UNL d   1      -1.023   5.453   0.000  0.00  0.00     0.282 A 
ATOM      5  C   UNL d   1      -1.737   5.040   0.000  0.00  0.00     0.089 A 
ATOM      6  C   UNL d   1      -1.737   4.221   0.000  0.00  0.00     0.130 A 
ATOM      7  O   UNL d   1      -1.023   6.280   0.000  0.00  0.00    -0.265 OA
ENDROOT
BRANCH   6   8
ATOM      8  O   UNL d   1      -2.451   3.808   0.000  0.00  0.00    -0.298 OA
BRANCH   8   9
ATOM      9  C   UNL d   1      -3.165   4.213   0.000  0.00  0.00     0.185 C 
BRANCH   9  10
ATOM     10  C   UNL d   1      -3.165   5.040   0.000  0.00  0.00     0.304 C 
ATOM     11  N   UNL d   1      -3.879   5.449   0.000  0.00  0.00    -0.206 NA
ATOM     12  O   UNL d   1      -2.451   5.449   0.000  0.00  0.00    -0.263 OA
BRANCH  11  13
ATOM     13  C   UNL d   1      -3.879   6.276   0.000  0.00  0.00     0.085 A 
ATOM     14  C   UNL d   1      -4.580   6.689   0.000  0.00  0.00     0.019 A 
ATOM     15  C   UNL d   1      -4.593   7.507   0.000  0.00  0.00     0.002 A 
ATOM     16  C   UNL d   1      -5.298   7.908   0.000  0.00  0.00     0.000 C 
ATOM     17  C   UNL d   1      -3.870   7.921   0.000  0.00  0.00     0.000 A 
ATOM     18  C   UNL d   1      -3.165   7.507   0.000  0.00  0.00     0.002 A 
ATOM     19  C   UNL d   1      -3.165   6.689   0.000  0.00  0.00     0.019 A 
ATOM     20  C   UNL d   1      -2.451   7.921   0.000  0.00  0.00     0.000 C 
ENDBRANCH  11  13
ENDBRANCH   9  10
ENDBRANCH   8   9
ENDBRANCH   6   8
BRANCH   2  21
ATOM     21  C   UNL d   1      -1.023   2.990   0.000  0.00  0.00     0.322 C 
ATOM     22  O   UNL d   1      -1.737   2.576   0.000  0.00  0.00    -0.257 OA
BRANCH  21  23
ATOM     23  O   UNL d   1      -0.309   2.568   0.000  0.00  0.00    -0.270 OA
BRANCH  23  24
ATOM     24  C   UNL d   1      -0.309   1.749   0.000  0.00  0.00     0.126 C 
ATOM     25  C   UNL d   1       0.405   1.336   0.000  0.00  0.00     0.029 C 
ENDBRANCH  23  24
ENDBRANCH  21  23
ENDBRANCH   2  21
BRANCH   3  26
ATOM     26  C   UNL d   1       0.405   5.449   0.000  0.00  0.00     0.086 A 
ATOM     27  C   UNL d   1       0.405   6.267   0.000  0.00  0.00     0.019 A 
ATOM     28  C   UNL d   1       1.119   6.681   0.000  0.00  0.00     0.002 A 
ATOM     29  C   UNL d   1       1.841   6.267   0.000  0.00  0.00     0.000 A 
ATOM     30  C   UNL d   1       1.833   5.441   0.000  0.00  0.00     0.002 A 
ATOM     31  C   UNL d   1       1.127   5.035   0.000  0.00  0.00     0.019 A 
ENDBRANCH   3  26
TORSDOF 8
