REMARK  4 active torsions:
REMARK  status: ('A' for Active; 'I' for Inactive)
REMARK    1  A    between atoms: C_10  and  N_1 
REMARK    2  A    between atoms: C_14  and  C_10 
REMARK    3  A    between atoms: O_16  and  C_12 
REMARK    4  A    between atoms: C_19  and  O_16 
ROOT
ATOM      1  N   UNL d   1       7.002  -9.527   0.000  0.00  0.00    -0.260 N 
ATOM      2  C   UNL d   1       6.444 -10.098   0.000  0.00  0.00     0.174 A 
ATOM      3  C   UNL d   1       6.998  -8.726   0.000  0.00  0.00     0.348 A 
ATOM      4  O   UNL d   1       5.643 -10.110   0.000  0.00  0.00    -0.314 OA
ATOM      5  N   UNL d   1       6.431  -8.172   0.000  0.00  0.00    -0.216 NA
ATOM      6  C   UNL d   1       5.626  -8.181   0.000  0.00  0.00     0.137 A 
ATOM      7  C   UNL d   1       6.343  -8.961   0.000  0.00  0.00     0.079 A 
ATOM      8  C   UNL d   1       5.076  -9.544   0.000  0.00  0.00     0.116 A 
ATOM      9  C   UNL d   1       5.072  -8.751   0.000  0.00  0.00     0.025 A 
ATOM     10  O   UNL d   1       7.728  -8.420   0.000  0.00  0.00    -0.245 OA
ATOM     11  C   UNL d   1       4.380  -9.947   0.000  0.00  0.00     0.122 A 
ATOM     12  C   UNL d   1       6.607 -10.886   0.000  0.00  0.00     0.055 C 
ATOM     13  C   UNL d   1       4.380  -8.348   0.000  0.00  0.00    -0.000 A 
ATOM     14  C   UNL d   1       3.688  -8.751   0.000  0.00  0.00     0.002 A 
ATOM     15  C   UNL d   1       3.688  -9.552   0.000  0.00  0.00     0.027 A 
ENDROOT
BRANCH   1  16
ATOM     16  C   UNL d   1       7.820  -9.645   0.000  0.00  0.00     0.082 C 
BRANCH  16  17
ATOM     17  C   UNL d   1       8.122 -10.421   0.000  0.00  0.00     0.017 A 
ATOM     18  C   UNL d   1       7.602 -11.067   0.000  0.00  0.00     0.002 A 
ATOM     19  C   UNL d   1       7.904 -11.843   0.000  0.00  0.00     0.000 A 
ATOM     20  C   UNL d   1       8.726 -11.969   0.000  0.00  0.00     0.000 A 
ATOM     21  C   UNL d   1       9.242 -11.314   0.000  0.00  0.00     0.000 A 
ATOM     22  C   UNL d   1       8.940 -10.547   0.000  0.00  0.00     0.002 A 
ENDBRANCH  16  17
ENDBRANCH   1  16
BRANCH  11  23
ATOM     23  O   UNL d   1       4.384 -10.773   0.000  0.00  0.00    -0.303 OA
BRANCH  23  24
ATOM     24  C   UNL d   1       5.101 -11.180   0.000  0.00  0.00     0.123 C 
ATOM     25  C   UNL d   1       5.101 -12.011   0.000  0.00  0.00     0.029 C 
ENDBRANCH  23  24
ENDBRANCH  11  23
TORSDOF 4
