REMARK  8 active torsions:
REMARK  status: ('A' for Active; 'I' for Inactive)
REMARK    1  A    between atoms: S_7  and  C_3 
REMARK    2  A    between atoms: C_8  and  C_4 
REMARK    3  A    between atoms: C_14  and  S_7 
REMARK    4  A    between atoms: C_17  and  C_8 
REMARK    5  A    between atoms: C_9  and  C_14 
REMARK       I    between atoms: N_12  and  C_9 
REMARK    6  A    between atoms: C_15  and  N_12 
REMARK    7  A    between atoms: O_22  and  C_16 
REMARK    8  A    between atoms: C_23  and  O_22 
ROOT
ATOM      1  N   UNL d   1      -6.500   8.472   0.000  0.00  0.00    -0.149 N 
ATOM      2  C   UNL d   1      -6.500   7.664   0.000  0.00  0.00     0.303 A 
ATOM      3  C   UNL d   1      -5.791   8.893   0.000  0.00  0.00     0.220 A 
ATOM      4  C   UNL d   1      -5.783   7.268   0.000  0.00  0.00     0.161 A 
ATOM      5  N   UNL d   1      -5.073   7.664   0.000  0.00  0.00    -0.141 NA
ATOM      6  N   UNL d   1      -5.073   8.472   0.000  0.00  0.00    -0.121 NA
ATOM      7  O   UNL d   1      -7.218   7.243   0.000  0.00  0.00    -0.263 OA
ATOM      8  N   UNL d   1      -7.218   8.909   0.000  0.00  0.00    -0.037 N 
ENDROOT
BRANCH   3   9
ATOM      9  S   UNL d   1      -5.783   9.710   0.000  0.00  0.00    -0.041 SA
BRANCH   9  10
ATOM     10  C   UNL d   1      -6.500  10.130   0.000  0.00  0.00     0.101 C 
BRANCH  10  11
ATOM     11  C   UNL d   1      -6.484  10.947   0.000  0.00  0.00     0.286 C 
ATOM     12  N   UNL d   1      -7.193  11.368   0.000  0.00  0.00    -0.208 NA
ATOM     13  O   UNL d   1      -5.783  11.384   0.000  0.00  0.00    -0.265 OA
BRANCH  12  14
ATOM     14  C   UNL d   1      -7.193  12.184   0.000  0.00  0.00     0.085 A 
ATOM     15  C   UNL d   1      -6.484  12.621   0.000  0.00  0.00     0.021 A 
ATOM     16  C   UNL d   1      -6.500  13.447   0.000  0.00  0.00     0.026 A 
ATOM     17  C   UNL d   1      -7.202  13.859   0.000  0.00  0.00     0.100 A 
ATOM     18  C   UNL d   1      -7.911  13.422   0.000  0.00  0.00     0.026 A 
ATOM     19  C   UNL d   1      -7.911  12.621   0.000  0.00  0.00     0.021 A 
BRANCH  17  20
ATOM     20  O   UNL d   1      -7.202  14.659   0.000  0.00  0.00    -0.305 OA
BRANCH  20  21
ATOM     21  C   UNL d   1      -6.500  15.096   0.000  0.00  0.00     0.123 C 
ATOM     22  C   UNL d   1      -6.500  15.921   0.000  0.00  0.00     0.029 C 
ENDBRANCH  20  21
ENDBRANCH  17  20
ENDBRANCH  12  14
ENDBRANCH  10  11
ENDBRANCH   9  10
ENDBRANCH   3   9
BRANCH   4  23
ATOM     23  C   UNL d   1      -5.783   6.426   0.000  0.00  0.00     0.026 C 
BRANCH  23  24
ATOM     24  C   UNL d   1      -5.073   6.030   0.000  0.00  0.00     0.002 A 
ATOM     25  C   UNL d   1      -4.356   6.426   0.000  0.00  0.00     0.000 A 
ATOM     26  C   UNL d   1      -3.654   6.030   0.000  0.00  0.00     0.000 A 
ATOM     27  C   UNL d   1      -3.654   5.189   0.000  0.00  0.00     0.000 A 
ATOM     28  C   UNL d   1      -4.372   4.776   0.000  0.00  0.00     0.000 A 
ATOM     29  C   UNL d   1      -5.073   5.189   0.000  0.00  0.00     0.000 A 
ENDBRANCH  23  24
ENDBRANCH   4  23
TORSDOF 8
