REMARK  4 active torsions:
REMARK  status: ('A' for Active; 'I' for Inactive)
REMARK    1  A    between atoms: N_3  and  C_1 
REMARK    2  A    between atoms: C_4  and  C_2 
REMARK       I    between atoms: C_6  and  N_3 
REMARK    3  A    between atoms: C_11  and  C_6 
REMARK    4  A    between atoms: C_13  and  C_11 
ROOT
ATOM      1  N   UNL d   1      -0.295   3.794   0.000  0.00  0.00    -0.201 NA
ATOM      2  C   UNL d   1      -1.007   3.391   0.000  0.00  0.00     0.280 C 
ATOM      3  O   UNL d   1      -1.007   2.559   0.000  0.00  0.00    -0.265 OA
ENDROOT
BRANCH   2   4
ATOM      4  C   UNL d   1      -1.722   3.790   0.000  0.00  0.00     0.062 C 
BRANCH   4   5
ATOM      5  C   UNL d   1      -2.434   3.378   0.000  0.00  0.00     0.005 A 
ATOM      6  C   UNL d   1      -3.154   3.790   0.000  0.00  0.00     0.003 A 
ATOM      7  C   UNL d   1      -3.865   3.370   0.000  0.00  0.00     0.030 A 
ATOM      8  C   UNL d   1      -3.865   2.546   0.000  0.00  0.00     0.140 A 
ATOM      9  C   UNL d   1      -3.154   2.143   0.000  0.00  0.00     0.030 A 
ATOM     10  F   UNL d   1      -4.577   2.143   0.000  0.00  0.00    -0.204 F 
ATOM     11  C   UNL d   1      -2.434   2.546   0.000  0.00  0.00     0.003 A 
ENDBRANCH   4   5
ENDBRANCH   2   4
BRANCH   1  12
ATOM     12  C   UNL d   1      -0.300   4.618   0.000  0.00  0.00     0.119 A 
ATOM     13  C   UNL d   1       0.366   5.097   0.000  0.00  0.00     0.084 A 
ATOM     14  C   UNL d   1       0.112   5.883   0.000  0.00  0.00     0.014 A 
ATOM     15  C   UNL d   1      -0.720   5.883   0.000  0.00  0.00     0.037 A 
ATOM     16  S   UNL d   1      -0.961   5.097   0.000  0.00  0.00    -0.067 SA
BRANCH  13  17
ATOM     17  C   UNL d   1       1.153   4.847   0.000  0.00  0.00     0.299 C 
ATOM     18  O   UNL d   1       1.764   5.396   0.000  0.00  0.00    -0.264 OA
ATOM     19  N   UNL d   1       1.323   4.036   0.000  0.00  0.00    -0.102 N 
ENDBRANCH  13  17
ENDBRANCH   1  12
TORSDOF 4
