REMARK  5 active torsions:
REMARK  status: ('A' for Active; 'I' for Inactive)
REMARK    1  A    between atoms: N_4  and  S_1 
REMARK    2  A    between atoms: C_10  and  S_1 
REMARK    3  A    between atoms: C_2  and  N_9 
REMARK    4  A    between atoms: C_13  and  C_3 
REMARK    5  A    between atoms: C_11  and  C_8 
REMARK       I    between atoms: N_9  and  C_11 
REMARK       I    between atoms: C_15  and  N_12 
ROOT
ATOM      1  N   UNL d   1      -3.483   0.383   0.000  0.00  0.00    -0.200 NA
ATOM      2  C   UNL d   1      -3.108   1.121   0.000  0.00  0.00     0.296 C 
ATOM      3  O   UNL d   1      -2.283   1.158   0.000  0.00  0.00    -0.264 OA
ENDROOT
BRANCH   1   4
ATOM      4  C   UNL d   1      -3.038  -0.312   0.000  0.00  0.00     0.119 A 
ATOM      5  C   UNL d   1      -3.325  -1.079   0.000  0.00  0.00     0.084 A 
ATOM      6  C   UNL d   1      -2.683  -1.604   0.000  0.00  0.00     0.016 A 
ATOM      7  C   UNL d   1      -2.638  -2.425   0.000  0.00  0.00     0.020 A 
ATOM      8  C   UNL d   1      -1.996  -1.150   0.000  0.00  0.00     0.049 A 
ATOM      9  C   UNL d   1      -1.908  -2.792   0.000  0.00  0.00     0.083 A 
ATOM     10  N   UNL d   1      -1.208  -2.337   0.000  0.00  0.00    -0.272 N 
ATOM     11  C   UNL d   1      -1.258  -1.517   0.000  0.00  0.00     0.089 A 
ATOM     12  C   UNL d   1      -0.463  -2.717   0.000  0.00  0.00     0.265 C 
ATOM     13  O   UNL d   1       0.225  -2.263   0.000  0.00  0.00    -0.267 OA
ATOM     14  C   UNL d   1      -0.421  -3.542   0.000  0.00  0.00     0.066 C 
ATOM     15  S   UNL d   1      -2.208  -0.354   0.000  0.00  0.00    -0.066 SA
BRANCH   5  16
ATOM     16  C   UNL d   1      -4.125  -1.300   0.000  0.00  0.00     0.299 C 
ATOM     17  O   UNL d   1      -4.333  -2.092   0.000  0.00  0.00    -0.264 OA
ATOM     18  N   UNL d   1      -4.696  -0.717   0.000  0.00  0.00    -0.102 N 
ENDBRANCH   5  16
ENDBRANCH   1   4
BRANCH   2  19
ATOM     19  C   UNL d   1      -3.550   1.808   0.000  0.00  0.00     0.133 A 
ATOM     20  N   UNL d   1      -3.246   2.583   0.000  0.00  0.00    -0.226 N 
ATOM     21  C   UNL d   1      -3.896   3.108   0.000  0.00  0.00     0.092 A 
ATOM     22  C   UNL d   1      -4.583   2.658   0.000  0.00  0.00     0.021 A 
ATOM     23  C   UNL d   1      -4.375   1.858   0.000  0.00  0.00     0.025 A 
BRANCH  20  24
ATOM     24  S   UNL d   1      -2.446   2.796   0.000  0.00  0.00     0.277 S 
ATOM     25  O   UNL d   1      -2.683   3.583   0.000  0.00  0.00    -0.199 OA
ATOM     26  O   UNL d   1      -2.212   2.000   0.000  0.00  0.00    -0.199 OA
BRANCH  24  27
ATOM     27  C   UNL d   1      -1.663   3.046   0.000  0.00  0.00     0.133 A 
ATOM     28  S   UNL d   1      -0.996   2.562   0.000  0.00  0.00    -0.074 SA
ATOM     29  C   UNL d   1      -0.325   3.046   0.000  0.00  0.00     0.036 A 
ATOM     30  C   UNL d   1      -0.583   3.833   0.000  0.00  0.00     0.008 A 
ATOM     31  C   UNL d   1      -1.408   3.833   0.000  0.00  0.00     0.020 A 
ENDBRANCH  24  27
ENDBRANCH  20  24
ENDBRANCH   2  19
TORSDOF 5
