REMARK  5 active torsions:
REMARK  status: ('A' for Active; 'I' for Inactive)
REMARK    1  A    between atoms: C_4  and  S_1 
REMARK    2  A    between atoms: N_6  and  S_1 
REMARK    3  A    between atoms: C_2  and  C_14 
REMARK    4  A    between atoms: C_7  and  C_16 
REMARK       I    between atoms: N_11  and  C_7 
REMARK    5  A    between atoms: C_26  and  N_11 
ROOT
ATOM      1  C   UNL d   1      -4.005   1.961   0.000  0.00  0.00     0.279 C 
ATOM      2  N   UNL d   1      -4.580   2.548   0.000  0.00  0.00    -0.208 NA
ATOM      3  O   UNL d   1      -4.222   1.170   0.000  0.00  0.00    -0.265 OA
ENDROOT
BRANCH   1   4
ATOM      4  C   UNL d   1      -3.206   2.169   0.000  0.00  0.00     0.061 A 
ATOM      5  C   UNL d   1      -2.619   1.574   0.000  0.00  0.00     0.025 A 
ATOM      6  C   UNL d   1      -1.819   1.782   0.000  0.00  0.00     0.092 A 
ATOM      7  N   UNL d   1      -1.599   2.581   0.000  0.00  0.00    -0.229 N 
ATOM      8  C   UNL d   1      -2.182   3.168   0.000  0.00  0.00     0.092 A 
ATOM      9  C   UNL d   1      -2.981   2.969   0.000  0.00  0.00     0.025 A 
BRANCH   7  10
ATOM     10  S   UNL d   1      -0.799   2.794   0.000  0.00  0.00     0.277 S 
ATOM     11  O   UNL d   1      -1.032   3.580   0.000  0.00  0.00    -0.199 OA
ATOM     12  O   UNL d   1      -0.570   1.998   0.000  0.00  0.00    -0.199 OA
BRANCH  10  13
ATOM     13  C   UNL d   1      -0.021   3.043   0.000  0.00  0.00     0.133 A 
ATOM     14  S   UNL d   1       0.654   2.561   0.000  0.00  0.00    -0.074 SA
ATOM     15  C   UNL d   1       1.316   3.043   0.000  0.00  0.00     0.036 A 
ATOM     16  C   UNL d   1       1.066   3.830   0.000  0.00  0.00     0.008 A 
ATOM     17  C   UNL d   1       0.241   3.830   0.000  0.00  0.00     0.020 A 
ENDBRANCH  10  13
ENDBRANCH   7  10
ENDBRANCH   1   4
BRANCH   2  18
ATOM     18  C   UNL d   1      -5.379   2.344   0.000  0.00  0.00     0.085 A 
ATOM     19  C   UNL d   1      -5.954   2.943   0.000  0.00  0.00     0.019 A 
ATOM     20  C   UNL d   1      -6.745   2.723   0.000  0.00  0.00     0.004 A 
ATOM     21  C   UNL d   1      -6.949   1.936   0.000  0.00  0.00     0.024 A 
ATOM     22  C   UNL d   1      -6.374   1.357   0.000  0.00  0.00     0.004 A 
ATOM     23  C   UNL d   1      -5.596   1.557   0.000  0.00  0.00     0.019 A 
BRANCH  21  24
ATOM     24  C   UNL d   1      -7.748   1.732   0.000  0.00  0.00     0.111 A 
ATOM     25  N   UNL d   1      -8.056   0.958   0.000  0.00  0.00    -0.239 NA
ATOM     26  C   UNL d   1      -8.885   1.008   0.000  0.00  0.00     0.088 A 
ATOM     27  C   UNL d   1      -9.472   0.433   0.000  0.00  0.00     0.020 A 
ATOM     28  C   UNL d   1      -9.085   1.807   0.000  0.00  0.00     0.049 A 
ATOM     29  C   UNL d   1     -10.267   0.658   0.000  0.00  0.00     0.002 A 
ATOM     30  C   UNL d   1     -10.471   1.457   0.000  0.00  0.00     0.001 A 
ATOM     31  C   UNL d   1      -9.884   2.036   0.000  0.00  0.00     0.008 A 
ATOM     32  S   UNL d   1      -8.393   2.269   0.000  0.00  0.00    -0.066 SA
ENDBRANCH  21  24
ENDBRANCH   2  18
TORSDOF 5
