REMARK  4 active torsions:
REMARK  status: ('A' for Active; 'I' for Inactive)
REMARK    1  A    between atoms: C_6  and  C_1 
REMARK       I    between atoms: N_7  and  C_1 
REMARK    2  A    between atoms: N_3  and  C_5 
REMARK    3  A    between atoms: C_19  and  N_7 
REMARK    4  A    between atoms: C_8  and  C_10 
ROOT
ATOM      1  C   UNL d   1      -3.396   7.219   0.000  0.00  0.00     0.019 A 
ATOM      2  C   UNL d   1      -3.396   5.569   0.000  0.00  0.00     0.085 A 
ATOM      3  C   UNL d   1      -2.690   6.806   0.000  0.00  0.00     0.003 A 
ATOM      4  C   UNL d   1      -4.111   6.806   0.000  0.00  0.00     0.003 A 
ATOM      5  C   UNL d   1      -2.690   5.981   0.000  0.00  0.00     0.019 A 
ATOM      6  C   UNL d   1      -4.111   5.981   0.000  0.00  0.00     0.019 A 
ENDROOT
BRANCH   1   7
ATOM      7  C   UNL d   1      -3.396   8.044   0.000  0.00  0.00     0.103 A 
ATOM      8  N   UNL d   1      -4.107   8.456   0.000  0.00  0.00    -0.147 NA
ATOM      9  N   UNL d   1      -4.107   9.281   0.000  0.00  0.00    -0.130 NA
ATOM     10  C   UNL d   1      -3.396   9.694   0.000  0.00  0.00     0.169 A 
ATOM     11  C   UNL d   1      -2.681   9.281   0.000  0.00  0.00     0.041 A 
ATOM     12  C   UNL d   1      -2.681   8.456   0.000  0.00  0.00     0.024 A 
BRANCH  10  13
ATOM     13  N   UNL d   1      -3.396  10.519   0.000  0.00  0.00    -0.288 N 
ATOM     14  C   UNL d   1      -4.107  10.931   0.000  0.00  0.00     0.082 A 
ATOM     15  C   UNL d   1      -4.107  11.756   0.000  0.00  0.00     0.019 A 
ATOM     16  C   UNL d   1      -3.396  12.169   0.000  0.00  0.00     0.003 A 
ATOM     17  C   UNL d   1      -2.681  11.756   0.000  0.00  0.00     0.019 A 
ATOM     18  C   UNL d   1      -3.405  12.994   0.000  0.00  0.00     0.000 C 
ATOM     19  C   UNL d   1      -2.681  10.931   0.000  0.00  0.00     0.082 A 
ENDBRANCH  10  13
ENDBRANCH   1   7
BRANCH   2  20
ATOM     20  N   UNL d   1      -3.396   4.744   0.000  0.00  0.00    -0.206 NA
ATOM     21  C   UNL d   1      -4.107   4.331   0.000  0.00  0.00     0.302 C 
ATOM     22  O   UNL d   1      -4.107   3.502   0.000  0.00  0.00    -0.263 OA
BRANCH  21  23
ATOM     23  C   UNL d   1      -4.822   4.744   0.000  0.00  0.00     0.158 A 
ATOM     24  O   UNL d   1      -5.537   4.331   0.000  0.00  0.00    -0.300 OA
ATOM     25  C   UNL d   1      -6.155   4.886   0.000  0.00  0.00     0.123 A 
ATOM     26  C   UNL d   1      -5.816   5.638   0.000  0.00  0.00     0.029 A 
ATOM     27  C   UNL d   1      -5.000   5.546   0.000  0.00  0.00     0.032 A 
ENDBRANCH  21  23
ENDBRANCH   2  20
TORSDOF 4
