REMARK  6 active torsions:
REMARK  status: ('A' for Active; 'I' for Inactive)
REMARK    1  A    between atoms: N_2  and  S_1 
REMARK    2  A    between atoms: C_6  and  S_1 
REMARK    3  A    between atoms: C_3  and  N_10 
REMARK    4  A    between atoms: C_7  and  C_5 
REMARK       I    between atoms: N_10  and  C_7 
REMARK    5  A    between atoms: C_15  and  C_8 
REMARK    6  A    between atoms: O_27  and  C_24 
ROOT
ATOM      1  C   UNL d   1      -3.103   1.119   0.000  0.00  0.00     0.299 C 
ATOM      2  N   UNL d   1      -3.477   0.383   0.000  0.00  0.00    -0.164 NA
ATOM      3  O   UNL d   1      -2.279   1.156   0.000  0.00  0.00    -0.263 OA
ENDROOT
BRANCH   1   4
ATOM      4  C   UNL d   1      -3.544   1.805   0.000  0.00  0.00     0.133 A 
ATOM      5  N   UNL d   1      -3.240   2.579   0.000  0.00  0.00    -0.226 N 
ATOM      6  C   UNL d   1      -3.889   3.103   0.000  0.00  0.00     0.092 A 
ATOM      7  C   UNL d   1      -4.575   2.654   0.000  0.00  0.00     0.021 A 
ATOM      8  C   UNL d   1      -4.367   1.855   0.000  0.00  0.00     0.025 A 
BRANCH   5   9
ATOM      9  S   UNL d   1      -2.442   2.791   0.000  0.00  0.00     0.277 S 
ATOM     10  O   UNL d   1      -2.209   1.996   0.000  0.00  0.00    -0.199 OA
ATOM     11  O   UNL d   1      -2.679   3.577   0.000  0.00  0.00    -0.199 OA
BRANCH   9  12
ATOM     12  C   UNL d   1      -1.660   3.041   0.000  0.00  0.00     0.133 A 
ATOM     13  S   UNL d   1      -0.994   2.558   0.000  0.00  0.00    -0.074 SA
ATOM     14  C   UNL d   1      -0.324   3.041   0.000  0.00  0.00     0.036 A 
ATOM     15  C   UNL d   1      -0.582   3.827   0.000  0.00  0.00     0.008 A 
ATOM     16  C   UNL d   1      -1.406   3.827   0.000  0.00  0.00     0.020 A 
ENDBRANCH   9  12
ENDBRANCH   5   9
ENDBRANCH   1   4
BRANCH   2  17
ATOM     17  C   UNL d   1      -3.032  -0.312   0.000  0.00  0.00     0.297 A 
ATOM     18  O   UNL d   1      -2.209  -0.354   0.000  0.00  0.00    -0.253 OA
ATOM     19  C   UNL d   1      -1.992  -1.152   0.000  0.00  0.00     0.206 A 
ATOM     20  N   UNL d   1      -2.683  -1.601   0.000  0.00  0.00    -0.119 NA
ATOM     21  N   UNL d   1      -3.328  -1.077   0.000  0.00  0.00    -0.101 NA
BRANCH  19  22
ATOM     22  C   UNL d   1      -1.231  -1.439   0.000  0.00  0.00     0.043 A 
ATOM     23  C   UNL d   1      -0.587  -0.923   0.000  0.00  0.00     0.006 A 
ATOM     24  C   UNL d   1       0.187  -1.227   0.000  0.00  0.00     0.024 A 
ATOM     25  C   UNL d   1       0.312  -2.038   0.000  0.00  0.00     0.094 A 
ATOM     26  C   UNL d   1      -0.333  -2.550   0.000  0.00  0.00     0.024 A 
ATOM     27  C   UNL d   1      -1.098  -2.259   0.000  0.00  0.00     0.006 A 
BRANCH  25  28
ATOM     28  O   UNL d   1       1.077  -2.338   0.000  0.00  0.00    -0.328 OA
ATOM     29  C   UNL d   1       1.726  -1.822   0.000  0.00  0.00     0.181 C 
ENDBRANCH  25  28
ENDBRANCH  19  22
ENDBRANCH   2  17
TORSDOF 6
