REMARK  8 active torsions:
REMARK  status: ('A' for Active; 'I' for Inactive)
REMARK    1  A    between atoms: C_8  and  N_3 
REMARK    2  A    between atoms: S_7  and  C_5 
REMARK    3  A    between atoms: C_17  and  S_7 
REMARK    4  A    between atoms: C_20  and  C_8 
REMARK    5  A    between atoms: C_9  and  C_17 
REMARK       I    between atoms: N_12  and  C_9 
REMARK    6  A    between atoms: C_11  and  C_13 
REMARK    7  A    between atoms: C_13  and  N_12 
REMARK    8  A    between atoms: O_21  and  C_15 
ROOT
ATOM      1  N   UNL d   1      -1.741   5.052   0.000  0.00  0.00    -0.185 NA
ATOM      2  C   UNL d   1      -1.026   5.467   0.000  0.00  0.00     0.354 A 
ATOM      3  N   UNL d   1      -0.310   5.052   0.000  0.00  0.00    -0.258 N 
ATOM      4  C   UNL d   1      -1.026   3.826   0.000  0.00  0.00     0.040 A 
ATOM      5  C   UNL d   1      -1.741   4.232   0.000  0.00  0.00     0.117 A 
ATOM      6  C   UNL d   1      -0.310   4.232   0.000  0.00  0.00     0.070 A 
ATOM      7  O   UNL d   1      -1.026   6.304   0.000  0.00  0.00    -0.244 OA
ATOM      8  C   UNL d   1      -0.841   3.022   0.000  0.00  0.00     0.004 A 
ATOM      9  C   UNL d   1       0.314   3.700   0.000  0.00  0.00     0.018 A 
ATOM     10  C   UNL d   1      -0.025   2.938   0.000  0.00  0.00     0.002 A 
ENDROOT
BRANCH   5  11
ATOM     11  S   UNL d   1      -2.457   3.817   0.000  0.00  0.00    -0.062 SA
BRANCH  11  12
ATOM     12  C   UNL d   1      -3.173   4.223   0.000  0.00  0.00     0.099 C 
BRANCH  12  13
ATOM     13  C   UNL d   1      -3.173   5.052   0.000  0.00  0.00     0.286 C 
ATOM     14  N   UNL d   1      -3.876   5.467   0.000  0.00  0.00    -0.206 NA
ATOM     15  O   UNL d   1      -2.449   5.467   0.000  0.00  0.00    -0.265 OA
BRANCH  14  16
ATOM     16  C   UNL d   1      -3.876   6.295   0.000  0.00  0.00     0.104 C 
BRANCH  16  17
ATOM     17  C   UNL d   1      -4.583   6.710   0.000  0.00  0.00     0.042 A 
ATOM     18  C   UNL d   1      -4.583   7.538   0.000  0.00  0.00     0.096 A 
ATOM     19  C   UNL d   1      -5.295   7.953   0.000  0.00  0.00     0.024 A 
ATOM     20  C   UNL d   1      -6.011   7.551   0.000  0.00  0.00     0.002 A 
ATOM     21  C   UNL d   1      -6.023   6.722   0.000  0.00  0.00     0.000 A 
ATOM     22  C   UNL d   1      -5.307   6.295   0.000  0.00  0.00     0.004 A 
BRANCH  18  23
ATOM     23  O   UNL d   1      -3.863   7.953   0.000  0.00  0.00    -0.328 OA
ATOM     24  C   UNL d   1      -3.152   7.526   0.000  0.00  0.00     0.181 C 
ENDBRANCH  18  23
ENDBRANCH  16  17
ENDBRANCH  14  16
ENDBRANCH  12  13
ENDBRANCH  11  12
ENDBRANCH   5  11
BRANCH   3  25
ATOM     25  C   UNL d   1       0.406   5.467   0.000  0.00  0.00     0.085 C 
BRANCH  25  26
ATOM     26  C   UNL d   1       1.122   5.052   0.000  0.00  0.00     0.021 A 
ATOM     27  C   UNL d   1       1.118   4.232   0.000  0.00  0.00     0.022 A 
ATOM     28  C   UNL d   1       1.838   3.826   0.000  0.00  0.00     0.099 A 
ATOM     29  N   UNL d   1       2.553   4.236   0.000  0.00  0.00    -0.242 NA
ATOM     30  C   UNL d   1       2.549   5.052   0.000  0.00  0.00     0.099 A 
ATOM     31  C   UNL d   1       1.825   5.475   0.000  0.00  0.00     0.022 A 
ENDBRANCH  25  26
ENDBRANCH   3  25
TORSDOF 8
