REMARK  4 active torsions:
REMARK  status: ('A' for Active; 'I' for Inactive)
REMARK    1  A    between atoms: C_2  and  C_1 
REMARK       I    between atoms: N_7  and  C_2 
REMARK    2  A    between atoms: N_6  and  C_5 
REMARK    3  A    between atoms: C_10  and  N_7 
REMARK    4  A    between atoms: C_8  and  C_9 
ROOT
ATOM      1  C   UNL d   1      -4.111   6.893   0.000  0.00  0.00     0.021 A 
ATOM      2  C   UNL d   1      -3.396   5.656   0.000  0.00  0.00     0.085 A 
ATOM      3  C   UNL d   1      -4.111   6.068   0.000  0.00  0.00     0.021 A 
ATOM      4  C   UNL d   1      -3.396   7.306   0.000  0.00  0.00     0.002 A 
ATOM      5  C   UNL d   1      -2.690   6.893   0.000  0.00  0.00     0.002 A 
ATOM      6  C   UNL d   1      -2.690   6.068   0.000  0.00  0.00     0.019 A 
ENDROOT
BRANCH   1   7
ATOM      7  C   UNL d   1      -4.835   7.306   0.000  0.00  0.00     0.103 A 
ATOM      8  N   UNL d   1      -5.541   6.893   0.000  0.00  0.00    -0.147 NA
ATOM      9  N   UNL d   1      -6.256   7.306   0.000  0.00  0.00    -0.130 NA
ATOM     10  C   UNL d   1      -6.256   8.131   0.000  0.00  0.00     0.169 A 
ATOM     11  C   UNL d   1      -5.537   8.543   0.000  0.00  0.00     0.041 A 
ATOM     12  C   UNL d   1      -4.835   8.131   0.000  0.00  0.00     0.024 A 
BRANCH  10  13
ATOM     13  N   UNL d   1      -6.962   8.543   0.000  0.00  0.00    -0.288 N 
ATOM     14  C   UNL d   1      -7.677   8.131   0.000  0.00  0.00     0.082 A 
ATOM     15  C   UNL d   1      -8.392   8.543   0.000  0.00  0.00     0.019 A 
ATOM     16  C   UNL d   1      -8.392   9.368   0.000  0.00  0.00     0.003 A 
ATOM     17  C   UNL d   1      -7.677   9.781   0.000  0.00  0.00     0.019 A 
ATOM     18  C   UNL d   1      -6.962   9.368   0.000  0.00  0.00     0.082 A 
ENDBRANCH  10  13
ENDBRANCH   1   7
BRANCH   2  19
ATOM     19  N   UNL d   1      -3.396   4.831   0.000  0.00  0.00    -0.205 NA
ATOM     20  C   UNL d   1      -2.690   4.418   0.000  0.00  0.00     0.351 C 
ATOM     21  O   UNL d   1      -1.975   4.831   0.000  0.00  0.00    -0.261 OA
BRANCH  20  22
ATOM     22  C   UNL d   1      -2.690   3.598   0.000  0.00  0.00     0.474 C 
ATOM     23  F   UNL d   1      -2.690   2.773   0.000  0.00  0.00    -0.162 F 
ATOM     24  F   UNL d   1      -3.515   3.598   0.000  0.00  0.00    -0.162 F 
ATOM     25  F   UNL d   1      -1.865   3.598   0.000  0.00  0.00    -0.162 F 
ENDBRANCH  20  22
ENDBRANCH   2  19
TORSDOF 4
