REMARK  4 active torsions:
REMARK  status: ('A' for Active; 'I' for Inactive)
REMARK    1  A    between atoms: C_7  and  C_1 
REMARK    2  A    between atoms: N_6  and  C_3 
REMARK       I    between atoms: C_8  and  N_6 
REMARK    3  A    between atoms: C_12  and  C_8 
REMARK    4  A    between atoms: C_15  and  C_12 
ROOT
ATOM      1  C   UNL d   1      -0.746   5.879   0.000  0.00  0.00     0.206 A 
ATOM      2  O   UNL d   1      -0.988   5.092   0.000  0.00  0.00    -0.253 OA
ATOM      3  C   UNL d   1      -0.300   4.604   0.000  0.00  0.00     0.297 A 
ATOM      4  N   UNL d   1       0.092   5.888   0.000  0.00  0.00    -0.119 NA
ATOM      5  N   UNL d   1       0.354   5.104   0.000  0.00  0.00    -0.101 NA
ENDROOT
BRANCH   3   6
ATOM      6  N   UNL d   1      -0.296   3.800   0.000  0.00  0.00    -0.165 NA
ATOM      7  C   UNL d   1      -1.008   3.396   0.000  0.00  0.00     0.282 C 
ATOM      8  O   UNL d   1      -1.008   2.562   0.000  0.00  0.00    -0.265 OA
BRANCH   7   9
ATOM      9  C   UNL d   1      -1.725   3.796   0.000  0.00  0.00     0.063 C 
BRANCH   9  10
ATOM     10  C   UNL d   1      -2.438   3.383   0.000  0.00  0.00     0.005 A 
ATOM     11  C   UNL d   1      -2.438   2.550   0.000  0.00  0.00     0.003 A 
ATOM     12  C   UNL d   1      -3.158   2.146   0.000  0.00  0.00     0.030 A 
ATOM     13  C   UNL d   1      -3.871   2.550   0.000  0.00  0.00     0.140 A 
ATOM     14  C   UNL d   1      -3.871   3.375   0.000  0.00  0.00     0.030 A 
ATOM     15  F   UNL d   1      -4.583   2.146   0.000  0.00  0.00    -0.204 F 
ATOM     16  C   UNL d   1      -3.158   3.796   0.000  0.00  0.00     0.003 A 
ENDBRANCH   9  10
ENDBRANCH   7   9
ENDBRANCH   3   6
BRANCH   1  17
ATOM     17  C   UNL d   1      -1.233   6.529   0.000  0.00  0.00     0.043 A 
ATOM     18  C   UNL d   1      -0.896   7.300   0.000  0.00  0.00     0.004 A 
ATOM     19  C   UNL d   1      -1.383   7.963   0.000  0.00  0.00     0.000 A 
ATOM     20  C   UNL d   1      -0.083   7.392   0.000  0.00  0.00     0.000 C 
ATOM     21  C   UNL d   1      -2.208   7.875   0.000  0.00  0.00     0.000 A 
ATOM     22  C   UNL d   1      -2.533   7.104   0.000  0.00  0.00     0.000 A 
ATOM     23  C   UNL d   1      -2.033   6.442   0.000  0.00  0.00     0.004 A 
ATOM     24  C   UNL d   1      -3.350   6.992   0.000  0.00  0.00     0.000 C 
ENDBRANCH   1  17
TORSDOF 4
