REMARK  6 active torsions:
REMARK  status: ('A' for Active; 'I' for Inactive)
REMARK    1  A    between atoms: N_4  and  C_3 
REMARK       I    between atoms: C_6  and  N_10 
REMARK    2  A    between atoms: C_21  and  C_6 
REMARK    3  A    between atoms: C_11  and  C_7 
REMARK    4  A    between atoms: C_9  and  O_12 
REMARK    5  A    between atoms: N_10  and  C_22 
REMARK    6  A    between atoms: O_12  and  C_21 
ROOT
ATOM      1  C   UNL d   1      -3.396   7.219   0.000  0.00  0.00     0.019 A 
ATOM      2  C   UNL d   1      -2.690   6.806   0.000  0.00  0.00     0.003 A 
ATOM      3  C   UNL d   1      -4.111   6.806   0.000  0.00  0.00     0.003 A 
ATOM      4  C   UNL d   1      -3.396   5.569   0.000  0.00  0.00     0.085 A 
ATOM      5  C   UNL d   1      -4.111   5.981   0.000  0.00  0.00     0.019 A 
ATOM      6  C   UNL d   1      -2.690   5.981   0.000  0.00  0.00     0.019 A 
ENDROOT
BRANCH   4   7
ATOM      7  N   UNL d   1      -3.396   4.744   0.000  0.00  0.00    -0.206 NA
ATOM      8  C   UNL d   1      -4.107   4.331   0.000  0.00  0.00     0.304 C 
ATOM      9  O   UNL d   1      -4.107   3.502   0.000  0.00  0.00    -0.263 OA
BRANCH   8  10
ATOM     10  C   UNL d   1      -4.822   4.744   0.000  0.00  0.00     0.185 C 
BRANCH  10  11
ATOM     11  O   UNL d   1      -4.822   5.569   0.000  0.00  0.00    -0.299 OA
BRANCH  11  12
ATOM     12  C   UNL d   1      -5.537   5.981   0.000  0.00  0.00     0.111 A 
ATOM     13  C   UNL d   1      -5.537   6.806   0.000  0.00  0.00     0.081 A 
ATOM     14  C   UNL d   1      -6.242   7.219   0.000  0.00  0.00     0.025 A 
ATOM     15 CL   UNL d   1      -4.812   7.223   0.000  0.00  0.00    -0.080 Cl
ATOM     16  C   UNL d   1      -6.957   6.806   0.000  0.00  0.00     0.059 A 
ATOM     17  C   UNL d   1      -6.957   5.981   0.000  0.00  0.00     0.013 A 
ATOM     18 CL   UNL d   1      -7.677   7.223   0.000  0.00  0.00    -0.082 Cl
ATOM     19  C   UNL d   1      -6.242   5.569   0.000  0.00  0.00     0.026 A 
ENDBRANCH  11  12
ENDBRANCH  10  11
ENDBRANCH   8  10
ENDBRANCH   4   7
BRANCH   1  20
ATOM     20  C   UNL d   1      -3.396   8.044   0.000  0.00  0.00     0.103 A 
ATOM     21  N   UNL d   1      -4.107   8.456   0.000  0.00  0.00    -0.147 NA
ATOM     22  N   UNL d   1      -4.107   9.281   0.000  0.00  0.00    -0.130 NA
ATOM     23  C   UNL d   1      -3.396   9.694   0.000  0.00  0.00     0.170 A 
ATOM     24  C   UNL d   1      -2.681   9.281   0.000  0.00  0.00     0.041 A 
ATOM     25  C   UNL d   1      -2.681   8.456   0.000  0.00  0.00     0.024 A 
BRANCH  23  26
ATOM     26  N   UNL d   1      -3.396  10.519   0.000  0.00  0.00    -0.284 N 
ATOM     27  C   UNL d   1      -2.690  10.931   0.000  0.00  0.00     0.108 A 
ATOM     28  C   UNL d   1      -2.690  11.756   0.000  0.00  0.00     0.142 A 
ATOM     29  O   UNL d   1      -3.396  12.169   0.000  0.00  0.00    -0.300 OA
ATOM     30  C   UNL d   1      -4.111  11.756   0.000  0.00  0.00     0.142 A 
ATOM     31  C   UNL d   1      -4.111  10.931   0.000  0.00  0.00     0.108 A 
ENDBRANCH  23  26
ENDBRANCH   1  20
TORSDOF 6
