REMARK  3 active torsions:
REMARK  status: ('A' for Active; 'I' for Inactive)
REMARK    1  A    between atoms: N_7  and  C_1 
REMARK       I    between atoms: C_11  and  N_6 
REMARK       I    between atoms: C_10  and  N_7 
REMARK    2  A    between atoms: C_17  and  C_10 
REMARK    3  A    between atoms: C_14  and  C_17 
ROOT
ATOM      1  C   UNL d   1      -0.300   4.624   0.000  0.00  0.00     0.124 A 
ATOM      2  C   UNL d   1       0.355   5.124   0.000  0.00  0.00     0.093 A 
ATOM      3  C   UNL d   1      -0.734   5.896   0.000  0.00  0.00     0.049 A 
ATOM      4  C   UNL d   1       0.088   5.909   0.000  0.00  0.00     0.021 A 
ATOM      5  S   UNL d   1      -0.985   5.099   0.000  0.00  0.00    -0.066 SA
ATOM      6  N   UNL d   1      -0.759   7.328   0.000  0.00  0.00    -0.272 N 
ATOM      7  C   UNL d   1      -1.160   6.602   0.000  0.00  0.00     0.089 A 
ATOM      8  C   UNL d   1       1.143   4.882   0.000  0.00  0.00     0.103 C 
ATOM      9  C   UNL d   1      -1.185   8.041   0.000  0.00  0.00     0.265 C 
ATOM     10  N   UNL d   1       1.932   4.636   0.000  0.00  0.00    -0.191 NA
ATOM     11  C   UNL d   1       0.492   6.627   0.000  0.00  0.00     0.020 A 
ATOM     12  C   UNL d   1       0.067   7.340   0.000  0.00  0.00     0.083 A 
ATOM     13  O   UNL d   1      -2.011   8.029   0.000  0.00  0.00    -0.267 OA
ATOM     14  C   UNL d   1      -0.784   8.767   0.000  0.00  0.00     0.066 C 
ENDROOT
BRANCH   1  15
ATOM     15  N   UNL d   1      -0.296   3.806   0.000  0.00  0.00    -0.201 NA
ATOM     16  C   UNL d   1      -1.010   3.401   0.000  0.00  0.00     0.280 C 
ATOM     17  O   UNL d   1      -1.010   2.566   0.000  0.00  0.00    -0.265 OA
BRANCH  16  18
ATOM     18  C   UNL d   1      -1.728   3.801   0.000  0.00  0.00     0.062 C 
BRANCH  18  19
ATOM     19  C   UNL d   1      -2.441   3.388   0.000  0.00  0.00     0.005 A 
ATOM     20  C   UNL d   1      -2.441   2.554   0.000  0.00  0.00     0.000 A 
ATOM     21  C   UNL d   1      -3.163   2.149   0.000  0.00  0.00     0.000 A 
ATOM     22  C   UNL d   1      -1.723   2.149   0.000  0.00  0.00     0.000 C 
ATOM     23  C   UNL d   1      -3.877   2.554   0.000  0.00  0.00     0.000 A 
ATOM     24  C   UNL d   1      -3.877   3.380   0.000  0.00  0.00     0.000 A 
ATOM     25  C   UNL d   1      -4.590   2.149   0.000  0.00  0.00     0.000 C 
ATOM     26  C   UNL d   1      -3.163   3.801   0.000  0.00  0.00     0.000 A 
ENDBRANCH  18  19
ENDBRANCH  16  18
ENDBRANCH   1  15
TORSDOF 3
