REMARK  4 active torsions:
REMARK  status: ('A' for Active; 'I' for Inactive)
REMARK    1  A    between atoms: C_2  and  C_1 
REMARK       I    between atoms: N_7  and  C_1 
REMARK    2  A    between atoms: N_6  and  C_5 
REMARK    3  A    between atoms: C_12  and  N_7 
REMARK    4  A    between atoms: C_8  and  C_9 
ROOT
ATOM      1  C   UNL d   1      -4.111   6.893   0.000  0.00  0.00     0.021 A 
ATOM      2  C   UNL d   1      -3.396   5.656   0.000  0.00  0.00     0.085 A 
ATOM      3  C   UNL d   1      -4.111   6.068   0.000  0.00  0.00     0.021 A 
ATOM      4  C   UNL d   1      -3.396   7.306   0.000  0.00  0.00     0.002 A 
ATOM      5  C   UNL d   1      -2.690   6.893   0.000  0.00  0.00     0.002 A 
ATOM      6  C   UNL d   1      -2.690   6.068   0.000  0.00  0.00     0.019 A 
ENDROOT
BRANCH   1   7
ATOM      7  C   UNL d   1      -4.835   7.306   0.000  0.00  0.00     0.103 A 
ATOM      8  N   UNL d   1      -5.541   6.893   0.000  0.00  0.00    -0.147 NA
ATOM      9  N   UNL d   1      -6.256   7.306   0.000  0.00  0.00    -0.130 NA
ATOM     10  C   UNL d   1      -6.256   8.131   0.000  0.00  0.00     0.170 A 
ATOM     11  C   UNL d   1      -5.537   8.543   0.000  0.00  0.00     0.041 A 
ATOM     12  C   UNL d   1      -4.835   8.131   0.000  0.00  0.00     0.024 A 
BRANCH  10  13
ATOM     13  N   UNL d   1      -6.962   8.543   0.000  0.00  0.00    -0.284 N 
ATOM     14  C   UNL d   1      -7.677   8.131   0.000  0.00  0.00     0.108 A 
ATOM     15  C   UNL d   1      -8.392   8.543   0.000  0.00  0.00     0.142 A 
ATOM     16  O   UNL d   1      -8.392   9.368   0.000  0.00  0.00    -0.300 OA
ATOM     17  C   UNL d   1      -7.677   9.781   0.000  0.00  0.00     0.142 A 
ATOM     18  C   UNL d   1      -6.962   9.368   0.000  0.00  0.00     0.108 A 
ENDBRANCH  10  13
ENDBRANCH   1   7
BRANCH   2  19
ATOM     19  N   UNL d   1      -3.396   4.831   0.000  0.00  0.00    -0.208 NA
ATOM     20  C   UNL d   1      -2.690   4.418   0.000  0.00  0.00     0.280 C 
ATOM     21  O   UNL d   1      -1.975   4.831   0.000  0.00  0.00    -0.265 OA
BRANCH  20  22
ATOM     22  C   UNL d   1      -2.690   3.598   0.000  0.00  0.00     0.069 A 
ATOM     23  C   UNL d   1      -3.396   3.185   0.000  0.00  0.00     0.062 A 
ATOM     24 CL   UNL d   1      -4.120   3.598   0.000  0.00  0.00    -0.082 Cl
ATOM     25  C   UNL d   1      -3.396   2.360   0.000  0.00  0.00     0.012 A 
ATOM     26  C   UNL d   1      -2.690   1.948   0.000  0.00  0.00     0.001 A 
ATOM     27  C   UNL d   1      -1.975   2.360   0.000  0.00  0.00     0.000 A 
ATOM     28  C   UNL d   1      -1.975   3.185   0.000  0.00  0.00     0.006 A 
ENDBRANCH  20  22
ENDBRANCH   2  19
TORSDOF 4
