REMARK  4 active torsions:
REMARK  status: ('A' for Active; 'I' for Inactive)
REMARK    1  A    between atoms: C_13  and  N_1 
REMARK    2  A    between atoms: N_6  and  C_15 
REMARK    3  A    between atoms: C_14  and  C_13 
REMARK    4  A    between atoms: C_15  and  C_14 
ROOT
ATOM      1  C   UNL d   1      -2.862   1.267   0.000  0.00  0.00     0.087 C 
ENDROOT
BRANCH   1   2
ATOM      2  N   UNL d   1      -2.038   1.329   0.000  0.00  0.00    -0.248 N 
ATOM      3  C   UNL d   1      -1.522   0.710   0.000  0.00  0.00     0.208 A 
ATOM      4  N   UNL d   1      -0.777   1.013   0.000  0.00  0.00    -0.212 NA
ATOM      5  S   UNL d   1      -1.592  -0.053   0.000  0.00  0.00    -0.038 SA
ATOM      6  C   UNL d   1      -0.832   1.811   0.000  0.00  0.00     0.162 A 
ATOM      7  C   UNL d   1      -1.618   2.003   0.000  0.00  0.00     0.286 A 
ATOM      8  O   UNL d   1      -1.656   2.663   0.000  0.00  0.00    -0.265 OA
ENDBRANCH   1   2
BRANCH   1   9
ATOM      9  C   UNL d   1      -3.221   0.523   0.000  0.00  0.00     0.038 C 
BRANCH   9  10
ATOM     10  C   UNL d   1      -2.757  -0.161   0.000  0.00  0.00     0.083 C 
BRANCH  10  11
ATOM     11  N   UNL d   1      -3.116  -0.902   0.000  0.00  0.00    -0.285 N 
ATOM     12  C   UNL d   1      -3.925  -1.046   0.000  0.00  0.00     0.183 A 
ATOM     13  N   UNL d   1      -4.036  -1.869   0.000  0.00  0.00    -0.222 NA
ATOM     14  C   UNL d   1      -3.300  -2.228   0.000  0.00  0.00     0.120 A 
ATOM     15  C   UNL d   1      -2.731  -1.630   0.000  0.00  0.00     0.102 A 
ENDBRANCH  10  11
ENDBRANCH   9  10
ENDBRANCH   1   9
TORSDOF 4
