REMARK  4 active torsions:
REMARK  status: ('A' for Active; 'I' for Inactive)
REMARK    1  A    between atoms: C_6  and  N_2 
REMARK    2  A    between atoms: C_11  and  C_6 
REMARK    3  A    between atoms: C_10  and  C_11 
REMARK       I    between atoms: N_14  and  C_10 
REMARK    4  A    between atoms: C_16  and  N_14 
ROOT
ATOM      1  C   UNL d   1      -0.566   3.238   0.000  0.00  0.00     0.082 C 
ENDROOT
BRANCH   1   2
ATOM      2  C   UNL d   1       0.068   2.858   0.000  0.00  0.00     0.281 C 
ATOM      3  N   UNL d   1       0.308   2.073   0.000  0.00  0.00    -0.208 NA
ATOM      4  O   UNL d   1       0.384   3.554   0.000  0.00  0.00    -0.265 OA
BRANCH   3   5
ATOM      5  C   UNL d   1       1.119   1.895   0.000  0.00  0.00     0.087 A 
ATOM      6  C   UNL d   1       1.359   1.110   0.000  0.00  0.00     0.046 A 
ATOM      7  C   UNL d   1       2.170   0.933   0.000  0.00  0.00     0.124 A 
ATOM      8  O   UNL d   1       2.410   0.148   0.000  0.00  0.00    -0.301 OA
ATOM      9  C   UNL d   1       2.727   1.528   0.000  0.00  0.00     0.123 A 
ATOM     10  C   UNL d   1       3.208  -0.042   0.000  0.00  0.00     0.149 A 
ATOM     11  C   UNL d   1       3.765   0.566   0.000  0.00  0.00     0.149 A 
ATOM     12  O   UNL d   1       3.525   1.351   0.000  0.00  0.00    -0.301 OA
ATOM     13  C   UNL d   1       2.474   2.313   0.000  0.00  0.00     0.028 A 
ATOM     14  C   UNL d   1       1.676   2.503   0.000  0.00  0.00     0.021 A 
ENDBRANCH   3   5
ENDBRANCH   1   2
BRANCH   1  15
ATOM     15  C   UNL d   1      -1.380   3.149   0.000  0.00  0.00     0.100 C 
BRANCH  15  16
ATOM     16  N   UNL d   1      -1.900   2.533   0.000  0.00  0.00    -0.197 N 
ATOM     17  S   UNL d   1      -2.393   1.849   0.000  0.00  0.00     0.274 S 
ATOM     18  C   UNL d   1      -3.200   2.111   0.000  0.00  0.00     0.109 A 
ATOM     19  O   UNL d   1      -3.098   1.325   0.000  0.00  0.00    -0.200 OA
ATOM     20  O   UNL d   1      -2.073   1.072   0.000  0.00  0.00    -0.200 OA
ATOM     21  C   UNL d   1      -3.200   2.951   0.000  0.00  0.00     0.069 A 
ATOM     22  C   UNL d   1      -3.926   1.693   0.000  0.00  0.00     0.013 A 
ATOM     23  C   UNL d   1      -3.926   3.377   0.000  0.00  0.00     0.005 A 
ATOM     24  C   UNL d   1      -2.402   3.212   0.000  0.00  0.00     0.275 A 
ATOM     25  C   UNL d   1      -4.643   2.951   0.000  0.00  0.00     0.000 A 
ATOM     26  C   UNL d   1      -4.643   2.111   0.000  0.00  0.00     0.001 A 
ATOM     27  O   UNL d   1      -2.098   3.850   0.000  0.00  0.00    -0.266 OA
ENDBRANCH  15  16
ENDBRANCH   1  15
TORSDOF 4
