REMARK  4 active torsions:
REMARK  status: ('A' for Active; 'I' for Inactive)
REMARK    1  A    between atoms: C_9  and  N_1 
REMARK    2  A    between atoms: C_6  and  C_2 
REMARK       I    between atoms: N_8  and  C_6 
REMARK    3  A    between atoms: C_15  and  N_8 
REMARK    4  A    between atoms: C_13  and  C_9 
ROOT
ATOM      1  N   UNL d   1      -2.333   1.483   0.000  0.00  0.00    -0.258 N 
ATOM      2  C   UNL d   1      -1.649   2.653   0.000  0.00  0.00     0.114 A 
ATOM      3  C   UNL d   1      -1.649   1.870   0.000  0.00  0.00     0.270 A 
ATOM      4  C   UNL d   1      -3.009   1.874   0.000  0.00  0.00     0.150 A 
ATOM      5  C   UNL d   1      -2.325   3.048   0.000  0.00  0.00     0.013 A 
ATOM      6  C   UNL d   1      -3.001   2.657   0.000  0.00  0.00     0.035 A 
ATOM      7  N   UNL d   1      -3.677   1.490   0.000  0.00  0.00    -0.227 NA
ATOM      8  O   UNL d   1      -0.957   1.775   0.000  0.00  0.00    -0.266 OA
ATOM      9  C   UNL d   1      -3.677   3.056   0.000  0.00  0.00     0.005 A 
ATOM     10  C   UNL d   1      -4.349   1.874   0.000  0.00  0.00     0.101 A 
ATOM     11  C   UNL d   1      -4.349   2.657   0.000  0.00  0.00     0.021 A 
ENDROOT
BRANCH   2  12
ATOM     12  C   UNL d   1      -0.969   3.044   0.000  0.00  0.00     0.284 C 
ATOM     13  N   UNL d   1      -0.174   2.795   0.000  0.00  0.00    -0.208 NA
ATOM     14  O   UNL d   1      -1.242   3.606   0.000  0.00  0.00    -0.265 OA
BRANCH  13  15
ATOM     15  C   UNL d   1       0.451   3.369   0.000  0.00  0.00     0.085 A 
ATOM     16  C   UNL d   1       1.245   3.127   0.000  0.00  0.00     0.019 A 
ATOM     17  C   UNL d   1       1.843   3.697   0.000  0.00  0.00     0.002 A 
ATOM     18  C   UNL d   1       1.653   4.499   0.000  0.00  0.00     0.000 A 
ATOM     19  C   UNL d   1       0.866   4.756   0.000  0.00  0.00     0.002 A 
ATOM     20  C   UNL d   1       0.261   4.179   0.000  0.00  0.00     0.019 A 
ENDBRANCH  13  15
ENDBRANCH   2  12
BRANCH   1  21
ATOM     21  C   UNL d   1      -2.337   0.648   0.000  0.00  0.00     0.084 C 
BRANCH  21  22
ATOM     22  C   UNL d   1      -1.779   0.328   0.000  0.00  0.00     0.018 A 
ATOM     23  C   UNL d   1      -1.056   0.803   0.000  0.00  0.00     0.004 A 
ATOM     24  C   UNL d   1      -0.281   0.415   0.000  0.00  0.00     0.030 A 
ATOM     25  C   UNL d   1      -0.233  -0.443   0.000  0.00  0.00     0.140 A 
ATOM     26  C   UNL d   1      -0.945  -0.925   0.000  0.00  0.00     0.030 A 
ATOM     27  F   UNL d   1       0.522  -0.822   0.000  0.00  0.00    -0.204 F 
ATOM     28  C   UNL d   1      -1.728  -0.538   0.000  0.00  0.00     0.004 A 
ENDBRANCH  21  22
ENDBRANCH   1  21
TORSDOF 4
