REMARK  6 active torsions:
REMARK  status: ('A' for Active; 'I' for Inactive)
REMARK    1  A    between atoms: C_10  and  C_3 
REMARK    2  A    between atoms: S_9  and  C_4 
REMARK       I    between atoms: N_6  and  C_7 
REMARK    3  A    between atoms: C_8  and  N_6 
REMARK    4  A    between atoms: C_7  and  C_14 
REMARK    5  A    between atoms: C_14  and  S_9 
REMARK    6  A    between atoms: O_15  and  C_12 
ROOT
ATOM      1  S   UNL d   1      -7.472   9.808   0.000  0.00  0.00    -0.036 SA
ENDROOT
BRANCH   1   2
ATOM      2  C   UNL d   1      -7.480   8.960   0.000  0.00  0.00     0.236 A 
ATOM      3  O   UNL d   1      -6.774   8.536   0.000  0.00  0.00    -0.263 OA
ATOM      4  C   UNL d   1      -6.948   7.746   0.000  0.00  0.00     0.205 A 
ATOM      5  N   UNL d   1      -7.771   7.671   0.000  0.00  0.00    -0.120 NA
ATOM      6  N   UNL d   1      -8.095   8.411   0.000  0.00  0.00    -0.114 NA
BRANCH   4   7
ATOM      7  C   UNL d   1      -6.433   7.106   0.000  0.00  0.00     0.046 A 
ATOM      8  C   UNL d   1      -5.627   7.231   0.000  0.00  0.00     0.024 A 
ATOM      9  C   UNL d   1      -5.103   6.574   0.000  0.00  0.00     0.099 A 
ATOM     10  N   UNL d   1      -5.411   5.810   0.000  0.00  0.00    -0.242 NA
ATOM     11  C   UNL d   1      -6.250   5.685   0.000  0.00  0.00     0.099 A 
ATOM     12  C   UNL d   1      -6.749   6.333   0.000  0.00  0.00     0.024 A 
ENDBRANCH   4   7
ENDBRANCH   1   2
BRANCH   1  13
ATOM     13  C   UNL d   1      -8.195  10.207   0.000  0.00  0.00     0.101 C 
BRANCH  13  14
ATOM     14  C   UNL d   1      -8.178  11.029   0.000  0.00  0.00     0.286 C 
ATOM     15  N   UNL d   1      -8.893  11.453   0.000  0.00  0.00    -0.206 NA
ATOM     16  O   UNL d   1      -7.472  11.453   0.000  0.00  0.00    -0.265 OA
BRANCH  15  17
ATOM     17  C   UNL d   1      -8.893  12.276   0.000  0.00  0.00     0.107 A 
ATOM     18  C   UNL d   1      -9.616  12.717   0.000  0.00  0.00     0.112 A 
ATOM     19  C   UNL d   1      -9.600  13.523   0.000  0.00  0.00     0.026 A 
ATOM     20  C   UNL d   1      -8.893  13.947   0.000  0.00  0.00     0.002 A 
ATOM     21  C   UNL d   1      -8.170  13.548   0.000  0.00  0.00     0.002 A 
ATOM     22  C   UNL d   1      -8.170  12.717   0.000  0.00  0.00     0.021 A 
BRANCH  18  23
ATOM     23  O   UNL d   1     -10.339  12.276   0.000  0.00  0.00    -0.327 OA
ATOM     24  C   UNL d   1     -11.062  12.717   0.000  0.00  0.00     0.181 C 
ENDBRANCH  18  23
ENDBRANCH  15  17
ENDBRANCH  13  14
ENDBRANCH   1  13
TORSDOF 6
