REMARK  5 active torsions:
REMARK  status: ('A' for Active; 'I' for Inactive)
REMARK    1  A    between atoms: C_10  and  N_1 
REMARK    2  A    between atoms: C_7  and  C_4 
REMARK    3  A    between atoms: O_16  and  C_9 
REMARK    4  A    between atoms: C_15  and  C_10 
REMARK    5  A    between atoms: O_17  and  C_11 
ROOT
ATOM      1  N   UNL d   1      -3.165   4.213   0.000  0.00  0.00    -0.193 N 
ATOM      2  N   UNL d   1      -3.165   5.040   0.000  0.00  0.00    -0.163 NA
ATOM      3  C   UNL d   1      -2.451   3.816   0.000  0.00  0.00     0.281 A 
ATOM      4  C   UNL d   1      -2.451   5.453   0.000  0.00  0.00     0.102 A 
ATOM      5  C   UNL d   1      -1.737   4.213   0.000  0.00  0.00     0.064 A 
ATOM      6  C   UNL d   1      -1.737   5.040   0.000  0.00  0.00     0.026 A 
ATOM      7  O   UNL d   1      -2.451   2.990   0.000  0.00  0.00    -0.265 OA
ENDROOT
BRANCH   4   8
ATOM      8  C   UNL d   1      -2.451   6.267   0.000  0.00  0.00     0.021 A 
ATOM      9  C   UNL d   1      -1.729   6.689   0.000  0.00  0.00     0.028 A 
ATOM     10  C   UNL d   1      -1.737   7.507   0.000  0.00  0.00     0.116 A 
ATOM     11  C   UNL d   1      -2.451   7.921   0.000  0.00  0.00     0.116 A 
ATOM     12  C   UNL d   1      -3.177   7.503   0.000  0.00  0.00     0.026 A 
ATOM     13  C   UNL d   1      -3.165   6.681   0.000  0.00  0.00     0.004 A 
BRANCH  10  14
ATOM     14  O   UNL d   1      -1.027   7.921   0.000  0.00  0.00    -0.326 OA
ATOM     15  C   UNL d   1      -0.309   7.520   0.000  0.00  0.00     0.181 C 
ENDBRANCH  10  14
BRANCH  11  16
ATOM     16  O   UNL d   1      -2.463   8.747   0.000  0.00  0.00    -0.326 OA
ATOM     17  C   UNL d   1      -1.749   9.161   0.000  0.00  0.00     0.181 C 
ENDBRANCH  11  16
ENDBRANCH   4   8
BRANCH   1  18
ATOM     18  C   UNL d   1      -3.879   3.808   0.000  0.00  0.00     0.104 C 
BRANCH  18  19
ATOM     19  C   UNL d   1      -3.879   2.990   0.000  0.00  0.00     0.019 A 
ATOM     20  C   UNL d   1      -4.593   2.576   0.000  0.00  0.00     0.002 A 
ATOM     21  C   UNL d   1      -4.593   1.754   0.000  0.00  0.00     0.000 A 
ATOM     22  C   UNL d   1      -3.866   1.349   0.000  0.00  0.00     0.000 A 
ATOM     23  C   UNL d   1      -3.156   1.762   0.000  0.00  0.00     0.000 A 
ATOM     24  C   UNL d   1      -3.165   2.589   0.000  0.00  0.00     0.002 A 
ENDBRANCH  18  19
ENDBRANCH   1  18
TORSDOF 5
