REMARK  6 active torsions:
REMARK  status: ('A' for Active; 'I' for Inactive)
REMARK    1  A    between atoms: C_13  and  C_3 
REMARK    2  A    between atoms: S_12  and  C_4 
REMARK    3  A    between atoms: C_8  and  C_6 
REMARK    4  A    between atoms: O_17  and  C_8 
REMARK    5  A    between atoms: C_10  and  C_16 
REMARK    6  A    between atoms: C_16  and  S_12 
ROOT
ATOM      1  O   UNL d   1      -1.881   2.821   0.000  0.00  0.00    -0.263 OA
ATOM      2  N   UNL d   1      -2.271   4.096   0.000  0.00  0.00    -0.120 NA
ATOM      3  C   UNL d   1      -2.541   3.326   0.000  0.00  0.00     0.205 A 
ATOM      4  C   UNL d   1      -1.206   3.298   0.000  0.00  0.00     0.236 A 
ATOM      5  N   UNL d   1      -1.445   4.082   0.000  0.00  0.00    -0.114 NA
ENDROOT
BRANCH   4   6
ATOM      6  S   UNL d   1      -0.413   3.037   0.000  0.00  0.00    -0.039 SA
BRANCH   6   7
ATOM      7  C   UNL d   1      -0.243   2.229   0.000  0.00  0.00     0.064 C 
BRANCH   7   8
ATOM      8  C   UNL d   1       0.541   1.977   0.000  0.00  0.00     0.107 A 
ATOM      9  O   UNL d   1       1.257   2.390   0.000  0.00  0.00    -0.301 OA
ATOM     10  C   UNL d   1       1.876   1.830   0.000  0.00  0.00     0.163 A 
ATOM     11  C   UNL d   1       1.532   1.083   0.000  0.00  0.00     0.032 A 
ATOM     12  C   UNL d   1       0.720   1.165   0.000  0.00  0.00     0.027 A 
BRANCH  10  13
ATOM     13  C   UNL d   1       2.688   1.995   0.000  0.00  0.00     0.319 C 
ATOM     14  O   UNL d   1       3.234   1.371   0.000  0.00  0.00    -0.257 OA
BRANCH  13  15
ATOM     15  O   UNL d   1       2.959   2.775   0.000  0.00  0.00    -0.294 OA
ATOM     16  C   UNL d   1       3.771   2.940   0.000  0.00  0.00     0.185 C 
ENDBRANCH  13  15
ENDBRANCH  10  13
ENDBRANCH   7   8
ENDBRANCH   6   7
ENDBRANCH   4   6
BRANCH   3  17
ATOM     17  C   UNL d   1      -3.316   3.037   0.000  0.00  0.00     0.046 A 
ATOM     18  C   UNL d   1      -3.945   3.564   0.000  0.00  0.00     0.024 A 
ATOM     19  C   UNL d   1      -4.720   3.284   0.000  0.00  0.00     0.099 A 
ATOM     20  N   UNL d   1      -4.871   2.472   0.000  0.00  0.00    -0.242 NA
ATOM     21  C   UNL d   1      -4.234   1.940   0.000  0.00  0.00     0.099 A 
ATOM     22  C   UNL d   1      -3.463   2.225   0.000  0.00  0.00     0.024 A 
ENDBRANCH   3  17
TORSDOF 6
