REMARK  5 active torsions:
REMARK  status: ('A' for Active; 'I' for Inactive)
REMARK    1  A    between atoms: C_2  and  N_8 
REMARK    2  A    between atoms: C_14  and  C_4 
REMARK    3  A    between atoms: S_13  and  C_5 
REMARK       I    between atoms: N_8  and  C_11 
REMARK    4  A    between atoms: C_11  and  C_17 
REMARK    5  A    between atoms: C_17  and  S_13 
ROOT
ATOM      1  O   UNL d   1      -1.883   2.824   0.000  0.00  0.00    -0.263 OA
ATOM      2  N   UNL d   1      -2.273   4.100   0.000  0.00  0.00    -0.120 NA
ATOM      3  C   UNL d   1      -2.544   3.329   0.000  0.00  0.00     0.205 A 
ATOM      4  C   UNL d   1      -1.208   3.301   0.000  0.00  0.00     0.236 A 
ATOM      5  N   UNL d   1      -1.446   4.086   0.000  0.00  0.00    -0.114 NA
ENDROOT
BRANCH   4   6
ATOM      6  S   UNL d   1      -0.413   3.039   0.000  0.00  0.00    -0.036 SA
BRANCH   6   7
ATOM      7  C   UNL d   1      -0.243   2.231   0.000  0.00  0.00     0.101 C 
BRANCH   7   8
ATOM      8  C   UNL d   1       0.542   1.979   0.000  0.00  0.00     0.288 C 
ATOM      9  N   UNL d   1       1.157   2.530   0.000  0.00  0.00    -0.182 NA
ATOM     10  O   UNL d   1       0.721   1.166   0.000  0.00  0.00    -0.265 OA
BRANCH   9  11
ATOM     11  C   UNL d   1       0.983   3.329   0.000  0.00  0.00     0.197 A 
ATOM     12  N   UNL d   1       1.474   4.004   0.000  0.00  0.00    -0.221 NA
ATOM     13  C   UNL d   1       0.983   4.660   0.000  0.00  0.00     0.090 A 
ATOM     14  C   UNL d   1       1.240   5.459   0.000  0.00  0.00     0.021 C 
ATOM     15  C   UNL d   1       0.207   4.412   0.000  0.00  0.00     0.058 A 
ATOM     16  S   UNL d   1       0.207   3.591   0.000  0.00  0.00    -0.046 SA
ENDBRANCH   9  11
ENDBRANCH   7   8
ENDBRANCH   6   7
ENDBRANCH   4   6
BRANCH   3  17
ATOM     17  C   UNL d   1      -3.320   3.039   0.000  0.00  0.00     0.046 A 
ATOM     18  C   UNL d   1      -3.466   2.227   0.000  0.00  0.00     0.024 A 
ATOM     19  C   UNL d   1      -4.238   1.942   0.000  0.00  0.00     0.099 A 
ATOM     20  N   UNL d   1      -4.876   2.475   0.000  0.00  0.00    -0.242 NA
ATOM     21  C   UNL d   1      -4.725   3.287   0.000  0.00  0.00     0.099 A 
ATOM     22  C   UNL d   1      -3.949   3.567   0.000  0.00  0.00     0.024 A 
ENDBRANCH   3  17
TORSDOF 5
