REMARK  3 active torsions:
REMARK  status: ('A' for Active; 'I' for Inactive)
REMARK    1  A    between atoms: C_6  and  N_1 
REMARK       I    between atoms: C_2  and  N_4 
REMARK    2  A    between atoms: C_5  and  C_2 
REMARK    3  A    between atoms: N_4  and  C_12 
ROOT
ATOM      1  C   UNL d   1      -3.046   6.688   0.000  0.00  0.00     0.067 A 
ATOM      2  C   UNL d   1      -2.333   6.267   0.000  0.00  0.00     0.019 A 
ATOM      3  C   UNL d   1      -3.758   6.275   0.000  0.00  0.00     0.019 A 
ATOM      4  C   UNL d   1      -3.046   5.029   0.000  0.00  0.00     0.085 A 
ATOM      5  C   UNL d   1      -3.758   5.450   0.000  0.00  0.00     0.021 A 
ATOM      6  C   UNL d   1      -2.333   5.450   0.000  0.00  0.00     0.021 A 
ENDROOT
BRANCH   4   7
ATOM      7  N   UNL d   1      -3.046   4.213   0.000  0.00  0.00    -0.208 NA
ATOM      8  C   UNL d   1      -3.758   3.800   0.000  0.00  0.00     0.279 C 
ATOM      9  O   UNL d   1      -4.471   4.213   0.000  0.00  0.00    -0.265 OA
BRANCH   8  10
ATOM     10  C   UNL d   1      -3.758   2.983   0.000  0.00  0.00     0.060 A 
ATOM     11  C   UNL d   1      -3.038   2.571   0.000  0.00  0.00     0.034 A 
ATOM     12  C   UNL d   1      -3.033   1.733   0.000  0.00  0.00     0.140 A 
ATOM     13  F   UNL d   1      -2.321   1.321   0.000  0.00  0.00    -0.204 F 
ATOM     14  C   UNL d   1      -3.758   1.325   0.000  0.00  0.00     0.030 A 
ATOM     15  C   UNL d   1      -4.475   1.746   0.000  0.00  0.00     0.003 A 
ATOM     16  C   UNL d   1      -4.471   2.571   0.000  0.00  0.00     0.005 A 
ENDBRANCH   8  10
ENDBRANCH   4   7
BRANCH   1  17
ATOM     17  N   UNL d   1      -3.046   7.504   0.000  0.00  0.00    -0.273 N 
ATOM     18  C   UNL d   1      -2.375   7.992   0.000  0.00  0.00     0.265 A 
ATOM     19  O   UNL d   1      -1.583   7.742   0.000  0.00  0.00    -0.267 OA
ATOM     20  C   UNL d   1      -2.625   8.779   0.000  0.00  0.00     0.063 A 
ATOM     21  C   UNL d   1      -3.450   8.779   0.000  0.00  0.00     0.024 A 
ATOM     22  C   UNL d   1      -3.708   8.000   0.000  0.00  0.00     0.083 A 
ENDBRANCH   1  17
TORSDOF 3
