REMARK  6 active torsions:
REMARK  status: ('A' for Active; 'I' for Inactive)
REMARK    1  A    between atoms: C_4  and  C_2 
REMARK       I    between atoms: N_13  and  C_4 
REMARK    2  A    between atoms: O_17  and  C_8 
REMARK    3  A    between atoms: O_18  and  C_9 
REMARK    4  A    between atoms: C_19  and  N_13 
REMARK    5  A    between atoms: C_15  and  C_20 
REMARK    6  A    between atoms: C_20  and  C_19 
ROOT
ATOM      1  C   UNL d   1      -3.447   1.238   0.000  0.00  0.00     0.102 C 
ENDROOT
BRANCH   1   2
ATOM      2  N   UNL d   1      -4.162   1.650   0.000  0.00  0.00    -0.205 NA
ATOM      3  C   UNL d   1      -4.166   2.484   0.000  0.00  0.00     0.299 C 
ATOM      4  O   UNL d   1      -4.890   2.888   0.000  0.00  0.00    -0.263 OA
BRANCH   3   5
ATOM      5  C   UNL d   1      -3.447   2.910   0.000  0.00  0.00     0.161 A 
ATOM      6  N   UNL d   1      -2.736   2.498   0.000  0.00  0.00    -0.140 NA
ATOM      7  N   UNL d   1      -2.030   2.910   0.000  0.00  0.00    -0.105 NA
ATOM      8  C   UNL d   1      -2.030   3.735   0.000  0.00  0.00     0.297 A 
ATOM      9  C   UNL d   1      -2.736   4.148   0.000  0.00  0.00     0.066 A 
ATOM     10  O   UNL d   1      -1.302   4.148   0.000  0.00  0.00    -0.264 OA
ATOM     11  C   UNL d   1      -3.447   3.735   0.000  0.00  0.00     0.031 A 
ENDBRANCH   3   5
ENDBRANCH   1   2
BRANCH   1  12
ATOM     12  C   UNL d   1      -3.447   0.412   0.000  0.00  0.00     0.021 C 
BRANCH  12  13
ATOM     13  C   UNL d   1      -2.736   0.000   0.000  0.00  0.00     0.004 A 
ATOM     14  C   UNL d   1      -2.030   0.412   0.000  0.00  0.00     0.026 A 
ATOM     15  C   UNL d   1      -1.315   0.000   0.000  0.00  0.00     0.116 A 
ATOM     16  C   UNL d   1      -1.315  -0.825   0.000  0.00  0.00     0.116 A 
ATOM     17  C   UNL d   1      -2.030  -1.238   0.000  0.00  0.00     0.026 A 
ATOM     18  C   UNL d   1      -2.736  -0.825   0.000  0.00  0.00     0.002 A 
BRANCH  15  19
ATOM     19  O   UNL d   1      -0.591   0.422   0.000  0.00  0.00    -0.326 OA
ATOM     20  C   UNL d   1      -0.591   1.247   0.000  0.00  0.00     0.181 C 
ENDBRANCH  15  19
BRANCH  16  21
ATOM     21  O   UNL d   1      -0.591  -1.242   0.000  0.00  0.00    -0.326 OA
ATOM     22  C   UNL d   1      -0.591  -2.067   0.000  0.00  0.00     0.181 C 
ENDBRANCH  16  21
ENDBRANCH  12  13
ENDBRANCH   1  12
TORSDOF 6
