REMARK  5 active torsions:
REMARK  status: ('A' for Active; 'I' for Inactive)
REMARK    1  A    between atoms: N_9  and  C_2 
REMARK    2  A    between atoms: N_8  and  C_3 
REMARK    3  A    between atoms: N_10  and  C_6 
REMARK    4  A    between atoms: C_7  and  C_11 
REMARK    5  A    between atoms: C_13  and  N_10 
ROOT
ATOM      1  N   UNL d   1       2.200  -2.182   0.000  0.00  0.00     0.133 NA
ATOM      2  C   UNL d   1       1.481  -1.768   0.000  0.00  0.00     0.765 A 
ATOM      3  C   UNL d   1       2.914  -1.768   0.000  0.00  0.00     0.765 A 
ATOM      4  N   UNL d   1       1.481  -0.941   0.000  0.00  0.00     0.134 NA
ATOM      5  N   UNL d   1       2.914  -0.941   0.000  0.00  0.00     0.134 NA
ATOM      6  C   UNL d   1       2.200  -0.527   0.000  0.00  0.00     0.780 A 
ENDROOT
BRANCH   6   7
ATOM      7  N   UNL d   1       2.195   0.296   0.000  0.00  0.00    -0.058 NA
BRANCH   7   8
ATOM      8  C   UNL d   1       2.905   0.714   0.000  0.00  0.00     0.100 A 
ATOM      9  C   UNL d   1       3.624   0.296   0.000  0.00  0.00     0.024 A 
ATOM     10  C   UNL d   1       4.338   0.714   0.000  0.00  0.00     0.073 A 
ATOM     11  C   UNL d   1       4.330   1.542   0.000  0.00  0.00     0.004 A 
ATOM     12  C   UNL d   1       3.611   1.947   0.000  0.00  0.00     0.002 A 
ATOM     13  C   UNL d   1       2.901   1.538   0.000  0.00  0.00     0.020 A 
BRANCH  10  14
ATOM     14  C   UNL d   1       5.048   0.309   0.000  0.00  0.00     0.419 C 
ATOM     15  F   UNL d   1       5.048  -0.514   0.000  0.00  0.00    -0.166 F 
ATOM     16  F   UNL d   1       5.754   0.719   0.000  0.00  0.00    -0.166 F 
ATOM     17  F   UNL d   1       4.469  -0.279   0.000  0.00  0.00    -0.166 F 
ENDBRANCH  10  14
ENDBRANCH   7   8
ENDBRANCH   6   7
BRANCH   3  18
ATOM     18  N   UNL d   1       3.633  -2.182   0.000  0.00  0.00    -0.137 N 
ATOM     19  C   UNL d   1       3.624  -3.010   0.000  0.00  0.00     0.098 A 
ATOM     20  C   UNL d   1       4.343  -3.415   0.000  0.00  0.00     0.021 A 
ATOM     21  C   UNL d   1       5.048  -2.182   0.000  0.00  0.00     0.021 A 
ATOM     22  C   UNL d   1       4.343  -1.764   0.000  0.00  0.00     0.098 A 
ENDBRANCH   3  18
BRANCH   2  23
ATOM     23  N   UNL d   1       0.762  -2.182   0.000  0.00  0.00    -0.137 N 
ATOM     24  C   UNL d   1       0.057  -1.764   0.000  0.00  0.00     0.098 A 
ATOM     25  C   UNL d   1      -0.649  -2.174   0.000  0.00  0.00     0.021 A 
ATOM     26  C   UNL d   1       0.052  -3.411   0.000  0.00  0.00     0.021 A 
ATOM     27  C   UNL d   1       0.771  -3.006   0.000  0.00  0.00     0.098 A 
ENDBRANCH   2  23
TORSDOF 5
