REMARK  4 active torsions:
REMARK  status: ('A' for Active; 'I' for Inactive)
REMARK    1  A    between atoms: N_2  and  C_1 
REMARK    2  A    between atoms: N_11  and  C_6 
REMARK    3  A    between atoms: C_13  and  N_11 
REMARK    4  A    between atoms: O_20  and  C_14 
ROOT
ATOM      1  C   UNL d   1       4.376  -2.022   0.000  0.00  0.00     0.752 A 
ATOM      2  N   UNL d   1       4.359  -1.196   0.000  0.00  0.00    -0.040 NA
ATOM      3  C   UNL d   1       3.641  -0.797   0.000  0.00  0.00     0.182 A 
ATOM      4  N   UNL d   1       3.666  -2.445   0.000  0.00  0.00    -0.059 NA
ATOM      5  C   UNL d   1       2.931  -1.220   0.000  0.00  0.00     0.059 A 
ATOM      6  C   UNL d   1       2.943  -2.047   0.000  0.00  0.00     0.103 A 
ATOM      7  C   UNL d   1       2.233  -2.470   0.000  0.00  0.00     0.021 C 
ENDROOT
BRANCH   3   8
ATOM      8  N   UNL d   1       3.624   0.025   0.000  0.00  0.00    -0.226 NA
BRANCH   8   9
ATOM      9  C   UNL d   1       2.902   0.432   0.000  0.00  0.00     0.083 A 
ATOM     10  C   UNL d   1       2.196  -0.004   0.000  0.00  0.00     0.021 A 
ATOM     11  C   UNL d   1       1.474   0.407   0.000  0.00  0.00     0.026 A 
ATOM     12  C   UNL d   1       1.461   1.229   0.000  0.00  0.00     0.094 A 
ATOM     13  C   UNL d   1       2.171   1.652   0.000  0.00  0.00     0.026 A 
ATOM     14  C   UNL d   1       2.894   1.254   0.000  0.00  0.00     0.021 A 
BRANCH  12  15
ATOM     15  O   UNL d   1       0.747   1.627   0.000  0.00  0.00    -0.328 OA
ATOM     16  C   UNL d   1       0.042   1.208   0.000  0.00  0.00     0.181 C 
ENDBRANCH  12  15
ENDBRANCH   8   9
ENDBRANCH   3   8
BRANCH   1  17
ATOM     17  N   UNL d   1       5.019  -2.391   0.000  0.00  0.00    -0.058 N 
ATOM     18  N   UNL d   1       6.319  -2.383   0.000  0.00  0.00    -0.151 NA
ATOM     19  C   UNL d   1       6.319  -3.143   0.000  0.00  0.00     0.103 A 
ATOM     20  C   UNL d   1       6.966  -3.516   0.000  0.00  0.00     0.022 C 
ATOM     21  C   UNL d   1       5.667  -3.512   0.000  0.00  0.00     0.041 A 
ATOM     22  C   UNL d   1       5.019  -3.143   0.000  0.00  0.00     0.102 A 
ATOM     23  C   UNL d   1       4.363  -3.516   0.000  0.00  0.00     0.021 C 
ENDBRANCH   1  17
TORSDOF 4
