REMARK  5 active torsions:
REMARK  status: ('A' for Active; 'I' for Inactive)
REMARK    1  A    between atoms: N_2  and  C_1 
REMARK    2  A    between atoms: N_11  and  C_6 
REMARK    3  A    between atoms: C_13  and  N_11 
REMARK    4  A    between atoms: O_20  and  C_14 
REMARK    5  A    between atoms: C_23  and  O_20 
ROOT
ATOM      1  C   UNL d   1       4.396  -2.637   0.000  0.00  0.00     0.752 A 
ATOM      2  N   UNL d   1       4.379  -1.809   0.000  0.00  0.00    -0.040 NA
ATOM      3  C   UNL d   1       3.660  -1.410   0.000  0.00  0.00     0.182 A 
ATOM      4  N   UNL d   1       3.685  -3.061   0.000  0.00  0.00    -0.059 NA
ATOM      5  C   UNL d   1       2.949  -1.834   0.000  0.00  0.00     0.059 A 
ATOM      6  C   UNL d   1       2.961  -2.662   0.000  0.00  0.00     0.103 A 
ATOM      7  C   UNL d   1       2.250  -3.086   0.000  0.00  0.00     0.021 C 
ENDROOT
BRANCH   3   8
ATOM      8  N   UNL d   1       3.643  -0.586   0.000  0.00  0.00    -0.226 NA
BRANCH   8   9
ATOM      9  C   UNL d   1       2.919  -0.179   0.000  0.00  0.00     0.083 A 
ATOM     10  C   UNL d   1       2.212  -0.616   0.000  0.00  0.00     0.021 A 
ATOM     11  C   UNL d   1       1.489  -0.204   0.000  0.00  0.00     0.026 A 
ATOM     12  C   UNL d   1       1.476   0.620   0.000  0.00  0.00     0.100 A 
ATOM     13  C   UNL d   1       2.188   1.044   0.000  0.00  0.00     0.026 A 
ATOM     14  C   UNL d   1       2.911   0.645   0.000  0.00  0.00     0.021 A 
BRANCH  12  15
ATOM     15  O   UNL d   1       0.753   1.023   0.000  0.00  0.00    -0.305 OA
BRANCH  15  16
ATOM     16  C   UNL d   1       0.749   1.846   0.000  0.00  0.00     0.123 C 
ATOM     17  C   UNL d   1       0.029   2.246   0.000  0.00  0.00     0.029 C 
ENDBRANCH  15  16
ENDBRANCH  12  15
ENDBRANCH   8   9
ENDBRANCH   3   8
BRANCH   1  18
ATOM     18  N   UNL d   1       5.040  -3.007   0.000  0.00  0.00    -0.058 N 
ATOM     19  N   UNL d   1       6.342  -2.998   0.000  0.00  0.00    -0.151 NA
ATOM     20  C   UNL d   1       6.342  -3.759   0.000  0.00  0.00     0.103 A 
ATOM     21  C   UNL d   1       6.991  -4.134   0.000  0.00  0.00     0.022 C 
ATOM     22  C   UNL d   1       5.689  -4.121   0.000  0.00  0.00     0.041 A 
ATOM     23  C   UNL d   1       5.040  -3.759   0.000  0.00  0.00     0.102 A 
ATOM     24  C   UNL d   1       4.383  -4.134   0.000  0.00  0.00     0.021 C 
ENDBRANCH   1  18
TORSDOF 5
