REMARK  7 active torsions:
REMARK  status: ('A' for Active; 'I' for Inactive)
REMARK    1  A    between atoms: N_4  and  C_2 
REMARK    2  A    between atoms: C_8  and  C_3 
REMARK       I    between atoms: C_7  and  N_4 
REMARK    3  A    between atoms: C_13  and  C_7 
REMARK    4  A    between atoms: S_11  and  C_16 
REMARK    5  A    between atoms: C_12  and  S_11 
REMARK    6  A    between atoms: C_19  and  C_13 
REMARK    7  A    between atoms: C_16  and  C_19 
ROOT
ATOM      1  N   UNL d   1       1.853   2.561   0.000  0.00  0.00    -0.183 NA
ATOM      2  C   UNL d   1       1.137   2.982   0.000  0.00  0.00     0.281 C 
ATOM      3  O   UNL d   1       1.129   3.798   0.000  0.00  0.00    -0.265 OA
ENDROOT
BRANCH   1   4
ATOM      4  C   UNL d   1       2.565   2.982   0.000  0.00  0.00     0.197 A 
ATOM      5  N   UNL d   1       2.640   3.806   0.000  0.00  0.00    -0.219 NA
ATOM      6  C   UNL d   1       3.448   3.981   0.000  0.00  0.00     0.108 A 
ATOM      7  C   UNL d   1       3.865   3.269   0.000  0.00  0.00     0.059 A 
ATOM      8  S   UNL d   1       3.323   2.649   0.000  0.00  0.00    -0.046 SA
BRANCH   6   9
ATOM      9  C   UNL d   1       3.773   4.727   0.000  0.00  0.00     0.100 A 
ATOM     10  N   UNL d   1       3.277   5.397   0.000  0.00  0.00    -0.242 NA
ATOM     11  C   UNL d   1       3.615   6.151   0.000  0.00  0.00     0.099 A 
ATOM     12  C   UNL d   1       4.435   6.239   0.000  0.00  0.00     0.021 A 
ATOM     13  C   UNL d   1       4.922   5.572   0.000  0.00  0.00     0.003 A 
ATOM     14  C   UNL d   1       4.589   4.814   0.000  0.00  0.00     0.021 A 
ENDBRANCH   6   9
ENDBRANCH   1   4
BRANCH   2  15
ATOM     15  C   UNL d   1       0.425   2.557   0.000  0.00  0.00     0.063 C 
BRANCH  15  16
ATOM     16  C   UNL d   1      -0.296   2.969   0.000  0.00  0.00     0.012 C 
BRANCH  16  17
ATOM     17  C   UNL d   1      -1.008   2.557   0.000  0.00  0.00     0.036 C 
BRANCH  17  18
ATOM     18  S   UNL d   1      -1.720   2.961   0.000  0.00  0.00    -0.086 SA
BRANCH  18  19
ATOM     19  C   UNL d   1      -2.432   2.545   0.000  0.00  0.00     0.029 A 
ATOM     20  C   UNL d   1      -3.148   2.957   0.000  0.00  0.00     0.005 A 
ATOM     21  C   UNL d   1      -3.861   2.545   0.000  0.00  0.00    -0.012 A 
ATOM     22  C   UNL d   1      -3.861   1.720   0.000  0.00  0.00     0.026 A 
ATOM     23  C   UNL d   1      -3.148   1.308   0.000  0.00  0.00    -0.012 A 
ATOM     24  C   UNL d   1      -2.432   1.720   0.000  0.00  0.00     0.005 A 
ENDBRANCH  18  19
ENDBRANCH  17  18
ENDBRANCH  16  17
ENDBRANCH  15  16
ENDBRANCH   2  15
TORSDOF 7
