REMARK  5 active torsions:
REMARK  status: ('A' for Active; 'I' for Inactive)
REMARK    1  A    between atoms: C_9  and  S_1 
REMARK    2  A    between atoms: C_2  and  C_10 
REMARK       I    between atoms: C_8  and  N_15 
REMARK    3  A    between atoms: C_10  and  C_8 
REMARK    4  A    between atoms: N_15  and  C_22 
REMARK    5  A    between atoms: O_26  and  C_21 
ROOT
ATOM      1  C   UNL d   1      -1.703   0.532   0.000  0.00  0.00     0.063 C 
ENDROOT
BRANCH   1   2
ATOM      2  C   UNL d   1      -1.703   1.354   0.000  0.00  0.00     0.012 A 
ATOM      3  C   UNL d   1      -2.418   1.766   0.000  0.00  0.00     0.023 A 
ATOM      4  C   UNL d   1      -2.413   2.592   0.000  0.00  0.00     0.105 A 
ATOM      5  C   UNL d   1      -3.128   1.354   0.000  0.00  0.00     0.004 A 
ATOM      6  C   UNL d   1      -3.128   3.012   0.000  0.00  0.00     0.049 A 
ATOM      7  O   UNL d   1      -1.703   3.012   0.000  0.00  0.00    -0.273 OA
ATOM      8  C   UNL d   1      -3.838   2.592   0.000  0.00  0.00     0.096 A 
ATOM      9  C   UNL d   1      -3.838   1.766   0.000  0.00  0.00     0.024 A 
ATOM     10  C   UNL d   1      -0.980   2.592   0.000  0.00  0.00     0.300 A 
ATOM     11  C   UNL d   1      -0.980   1.766   0.000  0.00  0.00     0.069 A 
ATOM     12  O   UNL d   1      -0.270   2.999   0.000  0.00  0.00    -0.259 OA
BRANCH   8  13
ATOM     13  O   UNL d   1      -4.549   2.999   0.000  0.00  0.00    -0.328 OA
ATOM     14  C   UNL d   1      -4.549   3.822   0.000  0.00  0.00     0.181 C 
ENDBRANCH   8  13
ENDBRANCH   1   2
BRANCH   1  15
ATOM     15  C   UNL d   1      -0.993   0.112   0.000  0.00  0.00     0.279 C 
ATOM     16  N   UNL d   1      -0.993  -0.710   0.000  0.00  0.00    -0.208 NA
ATOM     17  O   UNL d   1      -0.282   0.523   0.000  0.00  0.00    -0.265 OA
BRANCH  16  18
ATOM     18  C   UNL d   1      -0.282  -1.122   0.000  0.00  0.00     0.085 A 
ATOM     19  C   UNL d   1      -0.295  -1.948   0.000  0.00  0.00     0.020 A 
ATOM     20  C   UNL d   1       0.424  -2.360   0.000  0.00  0.00     0.015 A 
ATOM     21  C   UNL d   1       1.138  -1.957   0.000  0.00  0.00     0.107 A 
ATOM     22  C   UNL d   1       1.147  -1.134   0.000  0.00  0.00     0.015 A 
ATOM     23  C   UNL d   1       0.436  -0.715   0.000  0.00  0.00     0.020 A 
BRANCH  21  24
ATOM     24  S   UNL d   1       1.849  -2.372   0.000  0.00  0.00     0.302 S 
ATOM     25  O   UNL d   1       2.634  -2.596   0.000  0.00  0.00    -0.197 OA
ATOM     26  O   UNL d   1       2.061  -1.587   0.000  0.00  0.00    -0.197 OA
ATOM     27  N   UNL d   1       1.836  -3.195   0.000  0.00  0.00    -0.043 N 
ENDBRANCH  21  24
ENDBRANCH  16  18
ENDBRANCH   1  15
TORSDOF 5
