REMARK  3 active torsions:
REMARK  status: ('A' for Active; 'I' for Inactive)
REMARK    1  A    between atoms: N_3  and  C_1 
REMARK       I    between atoms: C_5  and  N_3 
REMARK    2  A    between atoms: C_4  and  C_5 
REMARK    3  A    between atoms: C_12  and  C_6 
ROOT
ATOM      1  C   UNL d   1      -1.058   3.043   0.000  0.00  0.00     0.249 A 
ATOM      2  N   UNL d   1      -0.730   3.803   0.000  0.00  0.00    -0.210 NA
ATOM      3  C   UNL d   1       0.101   3.723   0.000  0.00  0.00     0.091 A 
ATOM      4  S   UNL d   1      -0.449   2.489   0.000  0.00  0.00    -0.033 SA
ATOM      5  C   UNL d   1       0.277   2.917   0.000  0.00  0.00     0.059 A 
ENDROOT
BRANCH   1   6
ATOM      6  N   UNL d   1      -1.864   2.871   0.000  0.00  0.00    -0.337 NA
ATOM      7  C   UNL d   1      -2.577   2.456   0.000  0.00  0.00     0.355 C 
ATOM      8  O   UNL d   1      -2.577   1.625   0.000  0.00  0.00    -0.249 OA
BRANCH   7   9
ATOM      9  C   UNL d   1      -3.299   2.867   0.000  0.00  0.00     0.197 A 
ATOM     10  O   UNL d   1      -4.063   2.527   0.000  0.00  0.00    -0.205 OA
ATOM     11  N   UNL d   1      -4.617   3.144   0.000  0.00  0.00    -0.124 NA
ATOM     12  C   UNL d   1      -4.202   3.862   0.000  0.00  0.00     0.130 A 
ATOM     13  C   UNL d   1      -3.388   3.698   0.000  0.00  0.00     0.056 A 
ENDBRANCH   7   9
ENDBRANCH   1   6
BRANCH   3  14
ATOM     14  C   UNL d   1       0.646   4.336   0.000  0.00  0.00     0.018 A 
ATOM     15  C   UNL d   1       0.390   5.113   0.000  0.00  0.00     0.002 A 
ATOM     16  C   UNL d   1       0.936   5.730   0.000  0.00  0.00     0.000 A 
ATOM     17  C   UNL d   1       1.742   5.558   0.000  0.00  0.00     0.000 A 
ATOM     18  C   UNL d   1       2.006   4.777   0.000  0.00  0.00     0.000 A 
ATOM     19  C   UNL d   1       2.296   6.175   0.000  0.00  0.00     0.000 C 
ATOM     20  C   UNL d   1       1.452   4.160   0.000  0.00  0.00     0.002 A 
ENDBRANCH   3  14
TORSDOF 3
