REMARK  5 active torsions:
REMARK  status: ('A' for Active; 'I' for Inactive)
REMARK    1  A    between atoms: C_12  and  S_1 
REMARK    2  A    between atoms: N_13  and  S_1 
REMARK    3  A    between atoms: C_2  and  N_6 
REMARK    4  A    between atoms: C_5  and  C_3 
REMARK       I    between atoms: N_6  and  C_8 
REMARK    5  A    between atoms: C_8  and  C_18 
ROOT
ATOM      1  N   UNL d   1       0.462   0.720   0.000  0.00  0.00    -0.183 NA
ATOM      2  C   UNL d   1       1.278   0.799   0.000  0.00  0.00     0.281 C 
ATOM      3  O   UNL d   1       1.615   1.557   0.000  0.00  0.00    -0.265 OA
ENDROOT
BRANCH   1   4
ATOM      4  C   UNL d   1      -0.021   1.382   0.000  0.00  0.00     0.197 A 
ATOM      5  N   UNL d   1      -0.845   1.382   0.000  0.00  0.00    -0.218 NA
ATOM      6  C   UNL d   1      -1.099   2.168   0.000  0.00  0.00     0.113 A 
ATOM      7  C   UNL d   1      -0.433   2.655   0.000  0.00  0.00     0.059 A 
ATOM      8  S   UNL d   1       0.229   2.168   0.000  0.00  0.00    -0.046 SA
BRANCH   6   9
ATOM      9  C   UNL d   1      -1.881   2.422   0.000  0.00  0.00     0.118 A 
ATOM     10  O   UNL d   1      -2.547   2.006   0.000  0.00  0.00    -0.306 OA
ATOM     11  C   UNL d   1      -3.217   2.422   0.000  0.00  0.00     0.100 A 
ATOM     12  C   UNL d   1      -4.029   2.256   0.000  0.00  0.00     0.025 A 
ATOM     13  C   UNL d   1      -2.959   3.217   0.000  0.00  0.00     0.025 A 
ATOM     14  C   UNL d   1      -4.578   2.868   0.000  0.00  0.00     0.002 A 
ATOM     15  C   UNL d   1      -4.329   3.667   0.000  0.00  0.00     0.000 A 
ATOM     16  C   UNL d   1      -3.517   3.829   0.000  0.00  0.00     0.002 A 
ATOM     17  C   UNL d   1      -2.135   3.209   0.000  0.00  0.00     0.028 A 
ENDBRANCH   6   9
ENDBRANCH   1   4
BRANCH   2  18
ATOM     18  C   UNL d   1       1.765   0.133   0.000  0.00  0.00     0.058 A 
ATOM     19  C   UNL d   1       2.585   0.221   0.000  0.00  0.00     0.005 A 
ATOM     20  C   UNL d   1       3.063  -0.441   0.000  0.00  0.00     0.013 A 
ATOM     21  C   UNL d   1       2.726  -1.203   0.000  0.00  0.00     0.104 A 
ATOM     22  C   UNL d   1       1.902  -1.278   0.000  0.00  0.00     0.013 A 
ATOM     23  C   UNL d   1       1.428  -0.616   0.000  0.00  0.00     0.005 A 
BRANCH  21  24
ATOM     24  S   UNL d   1       3.213  -1.873   0.000  0.00  0.00     0.271 S 
ATOM     25  O   UNL d   1       2.547  -2.352   0.000  0.00  0.00    -0.200 OA
ATOM     26  O   UNL d   1       3.883  -1.390   0.000  0.00  0.00    -0.200 OA
BRANCH  24  27
ATOM     27  N   UNL d   1       3.696  -2.539   0.000  0.00  0.00    -0.226 N 
ATOM     28  C   UNL d   1       4.512  -2.451   0.000  0.00  0.00     0.111 C 
ATOM     29  C   UNL d   1       3.363  -3.288   0.000  0.00  0.00     0.111 C 
ENDBRANCH  24  27
ENDBRANCH  21  24
ENDBRANCH   2  18
TORSDOF 5
