REMARK  5 active torsions:
REMARK  status: ('A' for Active; 'I' for Inactive)
REMARK    1  A    between atoms: N_4  and  C_1 
REMARK    2  A    between atoms: C_8  and  C_3 
REMARK       I    between atoms: C_7  and  N_4 
REMARK    3  A    between atoms: C_11  and  C_7 
REMARK    4  A    between atoms: C_12  and  C_11 
REMARK    5  A    between atoms: O_18  and  C_13 
ROOT
ATOM      1  N   UNL d   1       0.424   2.153   0.000  0.00  0.00    -0.183 NA
ATOM      2  C   UNL d   1      -0.295   2.557   0.000  0.00  0.00     0.281 C 
ATOM      3  O   UNL d   1      -0.299   3.388   0.000  0.00  0.00    -0.265 OA
ENDROOT
BRANCH   1   4
ATOM      4  C   UNL d   1       1.135   2.577   0.000  0.00  0.00     0.197 A 
ATOM      5  N   UNL d   1       1.210   3.388   0.000  0.00  0.00    -0.221 NA
ATOM      6  C   UNL d   1       2.012   3.575   0.000  0.00  0.00     0.090 A 
ATOM      7  C   UNL d   1       2.432   2.864   0.000  0.00  0.00     0.058 A 
ATOM      8  S   UNL d   1       1.875   2.245   0.000  0.00  0.00    -0.046 SA
BRANCH   6   9
ATOM      9  C   UNL d   1       2.332   4.319   0.000  0.00  0.00     0.021 A 
ATOM     10  C   UNL d   1       3.155   4.406   0.000  0.00  0.00     0.022 A 
ATOM     11  C   UNL d   1       3.483   5.167   0.000  0.00  0.00     0.099 A 
ATOM     12  N   UNL d   1       2.985   5.828   0.000  0.00  0.00    -0.242 NA
ATOM     13  C   UNL d   1       2.174   5.741   0.000  0.00  0.00     0.099 A 
ATOM     14  C   UNL d   1       1.837   4.980   0.000  0.00  0.00     0.022 A 
ENDBRANCH   6   9
ENDBRANCH   1   4
BRANCH   2  15
ATOM     15  C   UNL d   1      -1.006   2.141   0.000  0.00  0.00     0.063 C 
BRANCH  15  16
ATOM     16  C   UNL d   1      -1.717   2.552   0.000  0.00  0.00     0.005 A 
ATOM     17  C   UNL d   1      -1.717   3.388   0.000  0.00  0.00     0.002 A 
ATOM     18  C   UNL d   1      -2.432   3.791   0.000  0.00  0.00     0.024 A 
ATOM     19  C   UNL d   1      -3.143   3.388   0.000  0.00  0.00     0.094 A 
ATOM     20  C   UNL d   1      -3.143   2.552   0.000  0.00  0.00     0.024 A 
ATOM     21  C   UNL d   1      -2.432   2.141   0.000  0.00  0.00     0.002 A 
BRANCH  19  22
ATOM     22  O   UNL d   1      -3.862   3.791   0.000  0.00  0.00    -0.328 OA
ATOM     23  C   UNL d   1      -4.573   3.388   0.000  0.00  0.00     0.181 C 
ENDBRANCH  19  22
ENDBRANCH  15  16
ENDBRANCH   2  15
TORSDOF 5
