REMARK  3 active torsions:
REMARK  status: ('A' for Active; 'I' for Inactive)
REMARK    1  A    between atoms: N_6  and  C_1 
REMARK    2  A    between atoms: C_11  and  C_2 
REMARK    3  A    between atoms: C_5  and  C_8 
REMARK       I    between atoms: C_8  and  N_6 
ROOT
ATOM      1  N   UNL d   1      -0.491   2.756   0.000  0.00  0.00    -0.200 NA
ATOM      2  C   UNL d   1      -1.117   2.201   0.000  0.00  0.00     0.302 C 
ATOM      3  O   UNL d   1      -0.941   1.382   0.000  0.00  0.00    -0.263 OA
ENDROOT
BRANCH   1   4
ATOM      4  C   UNL d   1      -0.655   3.529   0.000  0.00  0.00     0.119 A 
ATOM      5  C   UNL d   1      -0.134   4.100   0.000  0.00  0.00     0.084 A 
ATOM      6  C   UNL d   1      -0.538   4.780   0.000  0.00  0.00     0.013 A 
ATOM      7  C   UNL d   1      -0.286   5.537   0.000  0.00  0.00     0.001 A 
ATOM      8  C   UNL d   1      -1.294   4.617   0.000  0.00  0.00     0.031 A 
ATOM      9  C   UNL d   1      -0.828   6.116   0.000  0.00  0.00     0.001 A 
ATOM     10  C   UNL d   1      -1.596   5.940   0.000  0.00  0.00     0.006 A 
ATOM     11  S   UNL d   1      -1.382   3.844   0.000  0.00  0.00    -0.068 SA
BRANCH   5  12
ATOM     12  C   UNL d   1       0.647   4.033   0.000  0.00  0.00     0.299 C 
ATOM     13  O   UNL d   1       0.975   3.310   0.000  0.00  0.00    -0.264 OA
ATOM     14  N   UNL d   1       1.113   4.667   0.000  0.00  0.00    -0.102 N 
ENDBRANCH   5  12
ENDBRANCH   1   4
BRANCH   2  15
ATOM     15  C   UNL d   1      -1.903   2.453   0.000  0.00  0.00     0.158 A 
ATOM     16  O   UNL d   1      -2.579   1.974   0.000  0.00  0.00    -0.302 OA
ATOM     17  C   UNL d   1      -3.251   2.453   0.000  0.00  0.00     0.100 A 
ATOM     18  C   UNL d   1      -4.066   2.289   0.000  0.00  0.00     0.025 A 
ATOM     19  C   UNL d   1      -2.995   3.247   0.000  0.00  0.00     0.025 A 
ATOM     20  C   UNL d   1      -4.621   2.898   0.000  0.00  0.00     0.002 A 
ATOM     21  C   UNL d   1      -4.369   3.701   0.000  0.00  0.00     0.000 A 
ATOM     22  C   UNL d   1      -3.550   3.865   0.000  0.00  0.00     0.002 A 
ATOM     23  C   UNL d   1      -2.163   3.247   0.000  0.00  0.00     0.032 A 
ENDBRANCH   2  15
TORSDOF 3
