REMARK  6 active torsions:
REMARK  status: ('A' for Active; 'I' for Inactive)
REMARK    1  A    between atoms: N_3  and  C_1 
REMARK    2  A    between atoms: C_4  and  C_2 
REMARK       I    between atoms: C_6  and  N_3 
REMARK    3  A    between atoms: C_11  and  C_6 
REMARK    4  A    between atoms: C_13  and  C_11 
REMARK    5  A    between atoms: O_19  and  C_14 
REMARK    6  A    between atoms: C_20  and  O_19 
ROOT
ATOM      1  N   UNL d   1       1.144   2.163   0.000  0.00  0.00    -0.201 NA
ATOM      2  C   UNL d   1       0.426   2.568   0.000  0.00  0.00     0.280 C 
ATOM      3  O   UNL d   1       0.418   3.403   0.000  0.00  0.00    -0.265 OA
ENDROOT
BRANCH   2   4
ATOM      4  C   UNL d   1      -0.288   2.150   0.000  0.00  0.00     0.062 C 
BRANCH   4   5
ATOM      5  C   UNL d   1      -1.010   2.564   0.000  0.00  0.00     0.005 A 
ATOM      6  C   UNL d   1      -1.724   2.150   0.000  0.00  0.00     0.002 A 
ATOM      7  C   UNL d   1      -2.438   2.564   0.000  0.00  0.00     0.025 A 
ATOM      8  C   UNL d   1      -2.438   3.403   0.000  0.00  0.00     0.100 A 
ATOM      9  C   UNL d   1      -1.724   3.808   0.000  0.00  0.00     0.025 A 
ATOM     10  C   UNL d   1      -1.010   3.403   0.000  0.00  0.00     0.002 A 
BRANCH   8  11
ATOM     11  O   UNL d   1      -3.165   3.808   0.000  0.00  0.00    -0.305 OA
BRANCH  11  12
ATOM     12  C   UNL d   1      -3.879   3.403   0.000  0.00  0.00     0.123 C 
ATOM     13  C   UNL d   1      -4.593   3.808   0.000  0.00  0.00     0.029 C 
ENDBRANCH  11  12
ENDBRANCH   8  11
ENDBRANCH   4   5
ENDBRANCH   2   4
BRANCH   1  14
ATOM     14  C   UNL d   1       1.858   2.589   0.000  0.00  0.00     0.119 A 
ATOM     15  C   UNL d   1       2.610   2.251   0.000  0.00  0.00     0.084 A 
ATOM     16  C   UNL d   1       3.161   2.864   0.000  0.00  0.00     0.014 A 
ATOM     17  C   UNL d   1       2.747   3.591   0.000  0.00  0.00     0.037 A 
ATOM     18  S   UNL d   1       1.942   3.403   0.000  0.00  0.00    -0.067 SA
BRANCH  15  19
ATOM     19  C   UNL d   1       2.797   1.440   0.000  0.00  0.00     0.299 C 
ATOM     20  O   UNL d   1       3.574   1.186   0.000  0.00  0.00    -0.264 OA
ATOM     21  N   UNL d   1       2.179   0.885   0.000  0.00  0.00    -0.102 N 
ENDBRANCH  15  19
ENDBRANCH   1  14
TORSDOF 6
