REMARK  4 active torsions:
REMARK  status: ('A' for Active; 'I' for Inactive)
REMARK    1  A    between atoms: C_5  and  N_1 
REMARK    2  A    between atoms: C_9  and  C_3 
REMARK    3  A    between atoms: C_7  and  C_5 
REMARK    4  A    between atoms: O_10  and  C_8 
ROOT
ATOM      1  N   UNL d   1       4.577  -1.089   0.000  0.00  0.00    -0.289 N 
ATOM      2  N   UNL d   1       4.564   0.262   0.000  0.00  0.00    -0.227 NA
ATOM      3  C   UNL d   1       5.063  -0.411   0.000  0.00  0.00     0.148 A 
ATOM      4  C   UNL d   1       3.779  -0.840   0.000  0.00  0.00     0.083 A 
ATOM      5  C   UNL d   1       3.770  -0.004   0.000  0.00  0.00     0.099 A 
ATOM      6  C   UNL d   1       3.055  -1.251   0.000  0.00  0.00     0.019 A 
ATOM      7  C   UNL d   1       3.055   0.407   0.000  0.00  0.00     0.021 A 
ATOM      8  C   UNL d   1       2.336  -0.840   0.000  0.00  0.00     0.002 A 
ATOM      9  C   UNL d   1       2.336  -0.013   0.000  0.00  0.00     0.002 A 
ENDROOT
BRANCH   1  10
ATOM     10  C   UNL d   1       4.830  -1.875   0.000  0.00  0.00     0.083 C 
BRANCH  10  11
ATOM     11  C   UNL d   1       4.290  -2.486   0.000  0.00  0.00     0.040 A 
ATOM     12  C   UNL d   1       4.552  -3.259   0.000  0.00  0.00     0.096 A 
ATOM     13  C   UNL d   1       4.007  -3.878   0.000  0.00  0.00     0.024 A 
ATOM     14  C   UNL d   1       3.197  -3.716   0.000  0.00  0.00     0.002 A 
ATOM     15  C   UNL d   1       2.935  -2.935   0.000  0.00  0.00     0.000 A 
ATOM     16  C   UNL d   1       3.483  -2.320   0.000  0.00  0.00     0.004 A 
BRANCH  12  17
ATOM     17  O   UNL d   1       5.354  -3.421   0.000  0.00  0.00    -0.328 OA
ATOM     18  C   UNL d   1       5.624  -4.203   0.000  0.00  0.00     0.181 C 
ENDBRANCH  12  17
ENDBRANCH  10  11
ENDBRANCH   1  10
BRANCH   3  19
ATOM     19  C   UNL d   1       5.886  -0.403   0.000  0.00  0.00     0.037 C 
ATOM     20  C   UNL d   1       6.302  -1.114   0.000  0.00  0.00     0.003 C 
ENDBRANCH   3  19
TORSDOF 4
