REMARK  2 active torsions:
REMARK  status: ('A' for Active; 'I' for Inactive)
REMARK       I    between atoms: C_9  and  N_1 
REMARK    1  A    between atoms: C_5  and  C_3 
REMARK    2  A    between atoms: C_8  and  C_4 
ROOT
ATOM      1  N   UNL d   1       3.327   1.324   0.000  0.00  0.00    -0.193 N 
ATOM      2  N   UNL d   1       2.558   1.074   0.000  0.00  0.00    -0.162 NA
ATOM      3  C   UNL d   1       3.327   2.150   0.000  0.00  0.00     0.110 A 
ATOM      4  C   UNL d   1       2.064   1.737   0.000  0.00  0.00     0.109 A 
ATOM      5  C   UNL d   1       2.558   2.390   0.000  0.00  0.00     0.043 A 
ATOM      6  C   UNL d   1       4.128   0.826   0.000  0.00  0.00     0.281 C 
ATOM      7  O   UNL d   1       4.816   1.238   0.000  0.00  0.00    -0.265 OA
ATOM      8  C   UNL d   1       4.128   0.000   0.000  0.00  0.00     0.068 C 
ENDROOT
BRANCH   3   9
ATOM      9  C   UNL d   1       3.990   2.612   0.000  0.00  0.00     0.118 A 
ATOM     10  O   UNL d   1       3.990   3.437   0.000  0.00  0.00    -0.306 OA
ATOM     11  C   UNL d   1       4.786   3.685   0.000  0.00  0.00     0.100 A 
ATOM     12  C   UNL d   1       5.034   4.484   0.000  0.00  0.00     0.027 C 
ATOM     13  C   UNL d   1       5.280   3.024   0.000  0.00  0.00     0.027 A 
ATOM     14  C   UNL d   1       4.786   2.366   0.000  0.00  0.00     0.028 A 
ENDBRANCH   3   9
BRANCH   4  15
ATOM     15  C   UNL d   1       1.238   1.737   0.000  0.00  0.00     0.049 A 
ATOM     16  S   UNL d   1       0.769   2.390   0.000  0.00  0.00    -0.085 SA
ATOM     17  C   UNL d   1       0.000   2.150   0.000  0.00  0.00     0.035 A 
ATOM     18  C   UNL d   1       0.000   1.324   0.000  0.00  0.00     0.007 A 
ATOM     19  C   UNL d   1       0.769   1.074   0.000  0.00  0.00     0.009 A 
ENDBRANCH   4  15
TORSDOF 2
