REMARK  3 active torsions:
REMARK  status: ('A' for Active; 'I' for Inactive)
REMARK    1  A    between atoms: C_7  and  C_3 
REMARK       I    between atoms: N_10  and  C_7 
REMARK    2  A    between atoms: C_18  and  C_9 
REMARK    3  A    between atoms: C_12  and  N_10 
ROOT
ATOM      1  C   UNL d   1       4.617  -3.478   0.000  0.00  0.00     0.059 A 
ATOM      2  C   UNL d   1       4.617  -2.652   0.000  0.00  0.00     0.013 A 
ATOM      3  C   UNL d   1       6.041  -3.478   0.000  0.00  0.00     0.088 A 
ATOM      4  S   UNL d   1       5.327  -3.890   0.000  0.00  0.00    -0.075 SA
ATOM      5  S   UNL d   1       3.903  -3.890   0.000  0.00  0.00    -0.080 SA
ATOM      6  C   UNL d   1       6.041  -2.652   0.000  0.00  0.00     0.012 A 
ATOM      7  C   UNL d   1       3.198  -2.652   0.000  0.00  0.00     0.007 A 
ATOM      8  C   UNL d   1       3.198  -3.478   0.000  0.00  0.00     0.030 A 
ENDROOT
BRANCH   3   9
ATOM      9  C   UNL d   1       6.751  -3.890   0.000  0.00  0.00     0.285 C 
ATOM     10  N   UNL d   1       7.469  -3.478   0.000  0.00  0.00    -0.208 NA
ATOM     11  O   UNL d   1       6.751  -4.715   0.000  0.00  0.00    -0.265 OA
BRANCH  10  12
ATOM     12  C   UNL d   1       8.184  -3.890   0.000  0.00  0.00     0.085 A 
ATOM     13  C   UNL d   1       8.889  -3.478   0.000  0.00  0.00     0.019 A 
ATOM     14  C   UNL d   1       9.598  -3.890   0.000  0.00  0.00     0.002 A 
ATOM     15  C   UNL d   1       9.598  -4.724   0.000  0.00  0.00     0.000 A 
ATOM     16  C   UNL d   1       8.880  -5.128   0.000  0.00  0.00     0.002 A 
ATOM     17  C   UNL d   1      10.312  -5.141   0.000  0.00  0.00     0.000 C 
ATOM     18  C   UNL d   1       8.175  -4.715   0.000  0.00  0.00     0.019 A 
ENDBRANCH  10  12
ENDBRANCH   3   9
BRANCH   8  19
ATOM     19  C   UNL d   1       2.479  -3.885   0.000  0.00  0.00     0.006 C 
ATOM     20  C   UNL d   1       1.770  -3.473   0.000  0.00  0.00     0.001 C 
ENDBRANCH   8  19
TORSDOF 3
