REMARK  3 active torsions:
REMARK  status: ('A' for Active; 'I' for Inactive)
REMARK    1  A    between atoms: C_7  and  C_3 
REMARK       I    between atoms: N_10  and  C_7 
REMARK    2  A    between atoms: C_19  and  C_9 
REMARK    3  A    between atoms: C_12  and  N_10 
ROOT
ATOM      1  C   UNL d   1       4.619  -3.408   0.000  0.00  0.00     0.059 A 
ATOM      2  C   UNL d   1       4.619  -2.583   0.000  0.00  0.00     0.013 A 
ATOM      3  C   UNL d   1       6.044  -3.408   0.000  0.00  0.00     0.088 A 
ATOM      4  S   UNL d   1       5.329  -3.821   0.000  0.00  0.00    -0.075 SA
ATOM      5  S   UNL d   1       3.905  -3.825   0.000  0.00  0.00    -0.080 SA
ATOM      6  C   UNL d   1       6.044  -2.583   0.000  0.00  0.00     0.012 A 
ATOM      7  C   UNL d   1       3.199  -2.583   0.000  0.00  0.00     0.007 A 
ATOM      8  C   UNL d   1       3.199  -3.408   0.000  0.00  0.00     0.030 A 
ENDROOT
BRANCH   3   9
ATOM      9  C   UNL d   1       6.754  -3.821   0.000  0.00  0.00     0.285 C 
ATOM     10  N   UNL d   1       7.473  -3.408   0.000  0.00  0.00    -0.208 NA
ATOM     11  O   UNL d   1       6.754  -4.637   0.000  0.00  0.00    -0.265 OA
BRANCH  10  12
ATOM     12  C   UNL d   1       8.187  -3.821   0.000  0.00  0.00     0.085 A 
ATOM     13  C   UNL d   1       8.178  -4.637   0.000  0.00  0.00     0.021 A 
ATOM     14  C   UNL d   1       8.883  -5.059   0.000  0.00  0.00     0.031 A 
ATOM     15  C   UNL d   1       9.602  -4.650   0.000  0.00  0.00     0.140 A 
ATOM     16  C   UNL d   1       9.602  -3.825   0.000  0.00  0.00     0.031 A 
ATOM     17  F   UNL d   1      10.317  -5.063   0.000  0.00  0.00    -0.204 F 
ATOM     18  C   UNL d   1       8.892  -3.408   0.000  0.00  0.00     0.021 A 
ENDBRANCH  10  12
ENDBRANCH   3   9
BRANCH   8  19
ATOM     19  C   UNL d   1       2.481  -3.812   0.000  0.00  0.00     0.006 C 
ATOM     20  C   UNL d   1       1.770  -3.399   0.000  0.00  0.00     0.001 C 
ENDBRANCH   8  19
TORSDOF 3
