REMARK  3 active torsions:
REMARK  status: ('A' for Active; 'I' for Inactive)
REMARK    1  A    between atoms: N_2  and  C_1 
REMARK    2  A    between atoms: N_3  and  C_1 
REMARK       I    between atoms: C_4  and  N_2 
REMARK    3  A    between atoms: C_9  and  C_4 
ROOT
ATOM      1  C   UNL d   1       4.497  -2.525   0.000  0.00  0.00     0.209 C 
ATOM      2  S   UNL d   1       4.319  -1.722   0.000  0.00  0.00    -0.038 SA
ENDROOT
BRANCH   1   3
ATOM      3  N   UNL d   1       5.292  -2.763   0.000  0.00  0.00    -0.180 NA
ATOM      4  C   UNL d   1       5.471  -3.570   0.000  0.00  0.00     0.281 C 
ATOM      5  O   UNL d   1       4.868  -4.136   0.000  0.00  0.00    -0.265 OA
BRANCH   4   6
ATOM      6  C   UNL d   1       6.257  -3.811   0.000  0.00  0.00     0.058 A 
ATOM      7  C   UNL d   1       6.869  -3.249   0.000  0.00  0.00     0.005 A 
ATOM      8  C   UNL d   1       7.655  -3.486   0.000  0.00  0.00     0.000 A 
ATOM      9  C   UNL d   1       7.838  -4.298   0.000  0.00  0.00     0.000 A 
ATOM     10  C   UNL d   1       7.231  -4.859   0.000  0.00  0.00     0.000 A 
ATOM     11  C   UNL d   1       6.445  -4.610   0.000  0.00  0.00     0.005 A 
ENDBRANCH   4   6
ENDBRANCH   1   3
BRANCH   1  12
ATOM     12  N   UNL d   1       3.898  -3.083   0.000  0.00  0.00    -0.281 N 
ATOM     13  C   UNL d   1       3.108  -2.837   0.000  0.00  0.00     0.082 A 
ATOM     14  C   UNL d   1       2.501  -3.407   0.000  0.00  0.00     0.019 A 
ATOM     15  C   UNL d   1       2.688  -4.210   0.000  0.00  0.00     0.003 A 
ATOM     16  C   UNL d   1       3.474  -4.448   0.000  0.00  0.00     0.019 A 
ATOM     17  C   UNL d   1       2.089  -4.772   0.000  0.00  0.00     0.000 C 
ATOM     18  C   UNL d   1       4.081  -3.886   0.000  0.00  0.00     0.082 A 
ENDBRANCH   1  12
TORSDOF 3
