REMARK  8 active torsions:
REMARK  status: ('A' for Active; 'I' for Inactive)
REMARK    1  A    between atoms: N_5  and  C_1 
REMARK    2  A    between atoms: N_8  and  C_3 
REMARK    3  A    between atoms: C_17  and  N_8 
REMARK    4  A    between atoms: C_28  and  N_9 
REMARK    5  A    between atoms: C_10  and  C_17 
REMARK    6  A    between atoms: C_20  and  O_27 
REMARK    7  A    between atoms: O_27  and  C_29 
REMARK    8  A    between atoms: C_29  and  C_28 
ROOT
ATOM      1  C   UNL d   1       0.420  -1.478   0.000  0.00  0.00     0.737 A 
ATOM      2  N   UNL d   1       0.410  -0.671   0.000  0.00  0.00    -0.041 NA
ATOM      3  C   UNL d   1      -0.285  -0.275   0.000  0.00  0.00     0.182 A 
ATOM      4  N   UNL d   1      -0.275  -1.888   0.000  0.00  0.00    -0.060 NA
ATOM      5  C   UNL d   1      -0.980  -0.681   0.000  0.00  0.00     0.055 A 
ATOM      6  C   UNL d   1      -0.980  -1.483   0.000  0.00  0.00     0.103 A 
ATOM      7  C   UNL d   1      -1.676  -0.280   0.000  0.00  0.00     0.005 A 
ATOM      8  C   UNL d   1      -1.676  -1.888   0.000  0.00  0.00     0.020 A 
ATOM      9  C   UNL d   1      -2.361  -0.681   0.000  0.00  0.00     0.000 A 
ATOM     10  C   UNL d   1      -2.361  -1.483   0.000  0.00  0.00     0.002 A 
ENDROOT
BRANCH   1  11
ATOM     11  N   UNL d   1       1.130  -1.888   0.000  0.00  0.00    -0.134 N 
ATOM     12  C   UNL d   1       1.130  -2.724   0.000  0.00  0.00     0.117 A 
ATOM     13  C   UNL d   1       1.845  -3.134   0.000  0.00  0.00     0.100 A 
ATOM     14  N   UNL d   1       2.564  -2.724   0.000  0.00  0.00    -0.298 N 
ATOM     15  C   UNL d   1       2.564  -1.888   0.000  0.00  0.00     0.100 A 
ATOM     16  C   UNL d   1       1.845  -1.478   0.000  0.00  0.00     0.117 A 
BRANCH  14  17
ATOM     17  C   UNL d   1       3.279  -3.134   0.000  0.00  0.00     0.107 C 
BRANCH  17  18
ATOM     18  C   UNL d   1       3.998  -2.724   0.000  0.00  0.00     0.142 C 
BRANCH  18  19
ATOM     19  O   UNL d   1       4.723  -3.134   0.000  0.00  0.00    -0.304 OA
BRANCH  19  20
ATOM     20  C   UNL d   1       5.438  -2.728   0.000  0.00  0.00     0.100 A 
ATOM     21  C   UNL d   1       6.157  -3.149   0.000  0.00  0.00     0.025 A 
ATOM     22  C   UNL d   1       6.872  -2.738   0.000  0.00  0.00     0.002 A 
ATOM     23  C   UNL d   1       6.881  -1.903   0.000  0.00  0.00     0.000 A 
ATOM     24  C   UNL d   1       6.162  -1.483   0.000  0.00  0.00     0.002 A 
ATOM     25  C   UNL d   1       7.606  -1.492   0.000  0.00  0.00     0.000 C 
ATOM     26  C   UNL d   1       5.438  -1.903   0.000  0.00  0.00     0.025 A 
ENDBRANCH  19  20
ENDBRANCH  18  19
ENDBRANCH  17  18
ENDBRANCH  14  17
ENDBRANCH   1  11
BRANCH   3  27
ATOM     27  N   UNL d   1      -0.285   0.517   0.000  0.00  0.00    -0.223 NA
BRANCH  27  28
ATOM     28  C   UNL d   1       0.377   0.908   0.000  0.00  0.00     0.125 C 
BRANCH  28  29
ATOM     29  C   UNL d   1       1.280   0.908   0.000  0.00  0.00     0.119 A 
ATOM     30  O   UNL d   1       2.120   0.299   0.000  0.00  0.00    -0.304 OA
ATOM     31  C   UNL d   1       2.989   0.937   0.000  0.00  0.00     0.123 A 
ATOM     32  C   UNL d   1       2.439   1.603   0.000  0.00  0.00     0.029 A 
ATOM     33  C   UNL d   1       1.729   1.603   0.000  0.00  0.00     0.028 A 
ENDBRANCH  28  29
ENDBRANCH  27  28
ENDBRANCH   3  27
TORSDOF 8
