REMARK  4 active torsions:
REMARK  status: ('A' for Active; 'I' for Inactive)
REMARK    1  A    between atoms: N_6  and  C_2 
REMARK    2  A    between atoms: N_8  and  C_3 
REMARK    3  A    between atoms: C_10  and  N_8 
REMARK    4  A    between atoms: C_14  and  C_10 
ROOT
ATOM      1  N   UNL d   1       3.125  -0.415   0.000  0.00  0.00    -0.041 NA
ATOM      2  C   UNL d   1       3.130  -1.249   0.000  0.00  0.00     0.737 A 
ATOM      3  C   UNL d   1       2.404  -0.005   0.000  0.00  0.00     0.182 A 
ATOM      4  N   UNL d   1       2.409  -1.669   0.000  0.00  0.00    -0.060 NA
ATOM      5  C   UNL d   1       1.688  -0.424   0.000  0.00  0.00     0.055 A 
ATOM      6  C   UNL d   1       1.688  -1.249   0.000  0.00  0.00     0.103 A 
ATOM      7  C   UNL d   1       0.966  -0.014   0.000  0.00  0.00     0.005 A 
ATOM      8  C   UNL d   1       0.966  -1.673   0.000  0.00  0.00     0.020 A 
ATOM      9  C   UNL d   1       0.259  -0.424   0.000  0.00  0.00     0.000 A 
ATOM     10  C   UNL d   1       0.259  -1.259   0.000  0.00  0.00     0.002 A 
ENDROOT
BRANCH   3  11
ATOM     11  N   UNL d   1       2.395   0.858   0.000  0.00  0.00    -0.225 NA
BRANCH  11  12
ATOM     12  C   UNL d   1       3.026   1.282   0.000  0.00  0.00     0.101 C 
BRANCH  12  13
ATOM     13  C   UNL d   1       3.710   0.943   0.000  0.00  0.00     0.019 A 
ATOM     14  C   UNL d   1       3.752   0.193   0.000  0.00  0.00     0.002 A 
ATOM     15  C   UNL d   1       4.431  -0.141   0.000  0.00  0.00     0.000 A 
ATOM     16  C   UNL d   1       5.063   0.278   0.000  0.00  0.00     0.000 A 
ATOM     17  C   UNL d   1       5.006   1.042   0.000  0.00  0.00     0.000 A 
ATOM     18  C   UNL d   1       4.327   1.367   0.000  0.00  0.00     0.002 A 
ENDBRANCH  12  13
ENDBRANCH  11  12
ENDBRANCH   3  11
BRANCH   2  19
ATOM     19  N   UNL d   1       3.875  -1.673   0.000  0.00  0.00    -0.133 N 
ATOM     20  C   UNL d   1       3.875  -2.531   0.000  0.00  0.00     0.125 A 
ATOM     21  C   UNL d   1       4.610  -2.956   0.000  0.00  0.00     0.142 A 
ATOM     22  O   UNL d   1       5.346  -2.531   0.000  0.00  0.00    -0.300 OA
ATOM     23  C   UNL d   1       5.346  -1.673   0.000  0.00  0.00     0.142 A 
ATOM     24  C   UNL d   1       4.610  -1.244   0.000  0.00  0.00     0.125 A 
ENDBRANCH   2  19
TORSDOF 4
