REMARK  4 active torsions:
REMARK  status: ('A' for Active; 'I' for Inactive)
REMARK    1  A    between atoms: N_5  and  C_1 
REMARK    2  A    between atoms: N_8  and  C_3 
REMARK    3  A    between atoms: C_14  and  N_8 
REMARK    4  A    between atoms: C_16  and  C_14 
ROOT
ATOM      1  C   UNL d   1       2.537  -1.143   0.000  0.00  0.00     0.737 A 
ATOM      2  N   UNL d   1       2.532  -0.313   0.000  0.00  0.00    -0.041 NA
ATOM      3  C   UNL d   1       1.811   0.100   0.000  0.00  0.00     0.182 A 
ATOM      4  N   UNL d   1       1.821  -1.565   0.000  0.00  0.00    -0.060 NA
ATOM      5  C   UNL d   1       1.095  -0.318   0.000  0.00  0.00     0.055 A 
ATOM      6  C   UNL d   1       1.095  -1.143   0.000  0.00  0.00     0.103 A 
ATOM      7  C   UNL d   1       0.375   0.095   0.000  0.00  0.00     0.005 A 
ATOM      8  C   UNL d   1       0.375  -1.569   0.000  0.00  0.00     0.020 A 
ATOM      9  C   UNL d   1      -0.337  -0.318   0.000  0.00  0.00     0.000 A 
ATOM     10  C   UNL d   1      -0.337  -1.152   0.000  0.00  0.00     0.002 A 
ENDROOT
BRANCH   3  11
ATOM     11  N   UNL d   1       1.806   0.963   0.000  0.00  0.00    -0.225 NA
BRANCH  11  12
ATOM     12  C   UNL d   1       2.437   1.389   0.000  0.00  0.00     0.101 C 
BRANCH  12  13
ATOM     13  C   UNL d   1       3.115   1.048   0.000  0.00  0.00     0.019 A 
ATOM     14  C   UNL d   1       3.741   1.474   0.000  0.00  0.00     0.002 A 
ATOM     15  C   UNL d   1       4.414   1.147   0.000  0.00  0.00     0.000 A 
ATOM     16  C   UNL d   1       4.471   0.384   0.000  0.00  0.00     0.000 A 
ATOM     17  C   UNL d   1       3.845  -0.033   0.000  0.00  0.00     0.000 A 
ATOM     18  C   UNL d   1       3.163   0.294   0.000  0.00  0.00     0.002 A 
ENDBRANCH  12  13
ENDBRANCH  11  12
ENDBRANCH   3  11
BRANCH   1  19
ATOM     19  N   UNL d   1       3.272  -1.569   0.000  0.00  0.00    -0.134 N 
ATOM     20  C   UNL d   1       3.272  -2.423   0.000  0.00  0.00     0.117 A 
ATOM     21  C   UNL d   1       4.016  -2.845   0.000  0.00  0.00     0.100 A 
ATOM     22  N   UNL d   1       4.751  -2.423   0.000  0.00  0.00    -0.299 N 
ATOM     23  C   UNL d   1       4.751  -1.569   0.000  0.00  0.00     0.100 A 
ATOM     24  C   UNL d   1       5.490  -2.850   0.000  0.00  0.00     0.100 C 
ATOM     25  C   UNL d   1       4.016  -1.138   0.000  0.00  0.00     0.117 A 
ENDBRANCH   1  19
TORSDOF 4
