REMARK  6 active torsions:
REMARK  status: ('A' for Active; 'I' for Inactive)
REMARK    1  A    between atoms: C_2  and  C_1 
REMARK       I    between atoms: N_3  and  C_2 
REMARK    2  A    between atoms: C_24  and  N_3 
REMARK    3  A    between atoms: C_4  and  C_10 
REMARK    4  A    between atoms: C_9  and  C_4 
REMARK    5  A    between atoms: C_8  and  C_9 
REMARK    6  A    between atoms: C_10  and  C_15 
ROOT
ATOM      1  C   UNL d   1       4.069   1.266   0.000  0.00  0.00     0.039 A 
ATOM      2  C   UNL d   1       2.723   2.235   0.000  0.00  0.00     0.084 A 
ATOM      3  C   UNL d   1       4.153   2.124   0.000  0.00  0.00     0.005 A 
ATOM      4  C   UNL d   1       3.326   0.939   0.000  0.00  0.00     0.005 A 
ATOM      5  C   UNL d   1       3.490   2.583   0.000  0.00  0.00     0.019 A 
ATOM      6  C   UNL d   1       2.666   1.403   0.000  0.00  0.00     0.019 A 
ENDROOT
BRANCH   2   7
ATOM      7  N   UNL d   1       2.060   2.693   0.000  0.00  0.00    -0.212 NA
ATOM      8  C   UNL d   1       1.320   2.365   0.000  0.00  0.00     0.259 C 
ATOM      9  O   UNL d   1       0.628   2.828   0.000  0.00  0.00    -0.270 OA
BRANCH   8  10
ATOM     10  C   UNL d   1       1.236   1.543   0.000  0.00  0.00     0.092 A 
ATOM     11  C   UNL d   1       1.592   0.800   0.000  0.00  0.00     0.017 A 
ATOM     12  C   UNL d   1       1.126   0.167   0.000  0.00  0.00     0.023 A 
ATOM     13  C   UNL d   1       1.869   0.469   0.000  0.00  0.00    -0.027 A 
ATOM     14  C   UNL d   1       0.302   0.248   0.000  0.00  0.00     0.009 A 
ATOM     15  C   UNL d   1       1.511   1.212   0.000  0.00  0.00    -0.012 A 
ATOM     16  C   UNL d   1       1.980   1.874   0.000  0.00  0.00    -0.018 A 
ATOM     17  C   UNL d   1       0.687   1.266   0.000  0.00  0.00    -0.027 A 
ATOM     18  C   UNL d   1       0.000   0.939   0.000  0.00  0.00     0.023 A 
ATOM     19  C   UNL d   1       0.412   1.597   0.000  0.00  0.00     0.017 A 
ENDBRANCH   8  10
ENDBRANCH   2   7
BRANCH   1  20
ATOM     20  C   UNL d   1       4.756   0.800   0.000  0.00  0.00     0.196 C 
ATOM     21  O   UNL d   1       4.675   0.000   0.000  0.00  0.00    -0.287 OA
BRANCH  20  22
ATOM     22  C   UNL d   1       5.499   1.155   0.000  0.00  0.00     0.044 C 
BRANCH  22  23
ATOM     23  C   UNL d   1       6.184   0.689   0.000  0.00  0.00     0.028 C 
BRANCH  23  24
ATOM     24  C   UNL d   1       6.927   1.050   0.000  0.00  0.00     0.100 A 
ATOM     25  O   UNL d   1       7.094   1.845   0.000  0.00  0.00    -0.305 OA
ATOM     26  C   UNL d   1       7.891   1.955   0.000  0.00  0.00     0.123 A 
ATOM     27  C   UNL d   1       8.249   1.212   0.000  0.00  0.00     0.029 A 
ATOM     28  C   UNL d   1       7.646   0.633   0.000  0.00  0.00     0.027 A 
ENDBRANCH  23  24
ENDBRANCH  22  23
ENDBRANCH  20  22
ENDBRANCH   1  20
TORSDOF 6
