REMARK  5 active torsions:
REMARK  status: ('A' for Active; 'I' for Inactive)
REMARK    1  A    between atoms: N_8  and  C_1 
REMARK    2  A    between atoms: S_2  and  C_7 
REMARK    3  A    between atoms: N_9  and  S_2 
REMARK    4  A    between atoms: C_17  and  N_5 
REMARK       I    between atoms: C_10  and  N_8 
REMARK    5  A    between atoms: C_12  and  C_10 
ROOT
ATOM      1  N   UNL d   1       1.613  -2.545   0.000  0.00  0.00    -0.202 NA
ATOM      2  C   UNL d   1       0.890  -2.131   0.000  0.00  0.00     0.279 C 
ATOM      3  O   UNL d   1       0.890  -1.304   0.000  0.00  0.00    -0.265 OA
ENDROOT
BRANCH   2   4
ATOM      4  C   UNL d   1       0.185  -2.545   0.000  0.00  0.00     0.059 A 
ATOM      5  C   UNL d   1       0.185  -3.373   0.000  0.00  0.00     0.019 A 
ATOM      6  C   UNL d   1      -0.528  -3.787   0.000  0.00  0.00     0.115 A 
ATOM      7  C   UNL d   1      -1.242  -3.373   0.000  0.00  0.00     0.070 A 
ATOM      8  C   UNL d   1      -1.242  -2.555   0.000  0.00  0.00     0.012 A 
ATOM      9 CL   UNL d   1      -1.955  -3.787   0.000  0.00  0.00    -0.082 Cl
ATOM     10  C   UNL d   1      -0.528  -2.131   0.000  0.00  0.00     0.006 A 
BRANCH   6  11
ATOM     11  S   UNL d   1      -0.523  -4.615   0.000  0.00  0.00     0.272 S 
ATOM     12  O   UNL d   1      -1.351  -4.615   0.000  0.00  0.00    -0.200 OA
ATOM     13  O   UNL d   1       0.300  -4.615   0.000  0.00  0.00    -0.200 OA
BRANCH  11  14
ATOM     14  N   UNL d   1      -0.523  -5.438   0.000  0.00  0.00    -0.229 N 
ATOM     15  C   UNL d   1       0.190  -5.838   0.000  0.00  0.00     0.092 A 
ATOM     16  C   UNL d   1       0.190  -6.665   0.000  0.00  0.00     0.020 A 
ATOM     17  C   UNL d   1      -0.523  -7.079   0.000  0.00  0.00     0.003 A 
ATOM     18  C   UNL d   1      -1.237  -6.665   0.000  0.00  0.00     0.020 A 
ATOM     19  C   UNL d   1      -1.237  -5.843   0.000  0.00  0.00     0.092 A 
ENDBRANCH  11  14
ENDBRANCH   6  11
ENDBRANCH   2   4
BRANCH   1  20
ATOM     20  C   UNL d   1       2.317  -2.127   0.000  0.00  0.00     0.160 A 
ATOM     21  C   UNL d   1       2.403  -1.304   0.000  0.00  0.00     0.298 A 
ATOM     22  N   UNL d   1       3.202  -1.132   0.000  0.00  0.00    -0.209 N 
ATOM     23  O   UNL d   1       1.789  -0.761   0.000  0.00  0.00    -0.263 OA
ATOM     24  N   UNL d   1       3.616  -1.846   0.000  0.00  0.00    -0.238 N 
ATOM     25  C   UNL d   1       3.074  -2.460   0.000  0.00  0.00     0.104 A 
ATOM     26  C   UNL d   1       4.429  -1.927   0.000  0.00  0.00     0.120 C 
ATOM     27  C   UNL d   1       3.245  -3.259   0.000  0.00  0.00     0.022 C 
BRANCH  22  28
ATOM     28  C   UNL d   1       3.530  -0.385   0.000  0.00  0.00     0.085 A 
ATOM     29  C   UNL d   1       4.344  -0.300   0.000  0.00  0.00     0.019 A 
ATOM     30  C   UNL d   1       4.672   0.452   0.000  0.00  0.00     0.002 A 
ATOM     31  C   UNL d   1       4.196   1.113   0.000  0.00  0.00     0.000 A 
ATOM     32  C   UNL d   1       3.373   1.023   0.000  0.00  0.00     0.002 A 
ATOM     33  C   UNL d   1       3.045   0.271   0.000  0.00  0.00     0.019 A 
ENDBRANCH  22  28
ENDBRANCH   1  20
TORSDOF 5
