REMARK  2 active torsions:
REMARK  status: ('A' for Active; 'I' for Inactive)
REMARK    1  A    between atoms: C_8  and  C_6 
REMARK    2  A    between atoms: C_9  and  C_8 
ROOT
ATOM      1  N   UNL d   1       0.690   0.145   0.000  0.00  0.00    -0.207 NA
ATOM      2  N   UNL d   1      -0.150  -1.301   0.000  0.00  0.00    -0.240 NA
ATOM      3  C   UNL d   1       0.935  -0.640   0.000  0.00  0.00     0.297 A 
ATOM      4  C   UNL d   1      -0.075   0.449   0.000  0.00  0.00     0.086 A 
ATOM      5  C   UNL d   1      -0.794  -0.790   0.000  0.00  0.00     0.083 A 
ATOM      6  C   UNL d   1       0.648  -1.114   0.000  0.00  0.00     0.144 A 
ATOM      7  C   UNL d   1      -0.794   0.037   0.000  0.00  0.00     0.035 A 
ATOM      8  O   UNL d   1       1.708  -0.715   0.000  0.00  0.00    -0.264 OA
ATOM      9  C   UNL d   1      -1.505   0.449   0.000  0.00  0.00     0.003 A 
ATOM     10  C   UNL d   1      -1.505  -1.201   0.000  0.00  0.00     0.019 A 
ATOM     11  C   UNL d   1      -0.075   1.280   0.000  0.00  0.00     0.019 A 
ATOM     12  C   UNL d   1      -0.794   1.692   0.000  0.00  0.00     0.002 A 
ATOM     13  C   UNL d   1      -2.216  -0.790   0.000  0.00  0.00     0.002 A 
ATOM     14  C   UNL d   1      -2.216   0.037   0.000  0.00  0.00     0.000 A 
ATOM     15  C   UNL d   1      -1.505   1.272   0.000  0.00  0.00     0.000 A 
ENDROOT
BRANCH   6  16
ATOM     16  C   UNL d   1       1.363  -1.526   0.000  0.00  0.00     0.088 C 
BRANCH  16  17
ATOM     17  C   UNL d   1       1.376  -2.361   0.000  0.00  0.00     0.299 C 
ATOM     18  O   UNL d   1       0.665  -2.773   0.000  0.00  0.00    -0.264 OA
ATOM     19  N   UNL d   1       2.095  -2.773   0.000  0.00  0.00    -0.102 N 
ENDBRANCH  16  17
ENDBRANCH   6  16
TORSDOF 2
