REMARK  4 active torsions:
REMARK  status: ('A' for Active; 'I' for Inactive)
REMARK    1  A    between atoms: C_6  and  N_1 
REMARK    2  A    between atoms: C_3  and  C_4 
REMARK    3  A    between atoms: C_5  and  C_3 
REMARK       I    between atoms: C_4  and  N_10 
REMARK    4  A    between atoms: N_10  and  C_13 
ROOT
ATOM      1  C   UNL d   1       5.463  -6.825   0.000  0.00  0.00     0.281 C 
ATOM      2  N   UNL d   1       6.179  -7.237   0.000  0.00  0.00    -0.208 NA
ATOM      3  O   UNL d   1       5.467  -6.000   0.000  0.00  0.00    -0.265 OA
ENDROOT
BRANCH   1   4
ATOM      4  C   UNL d   1       4.750  -7.237   0.000  0.00  0.00     0.086 C 
BRANCH   4   5
ATOM      5  C   UNL d   1       4.029  -6.825   0.000  0.00  0.00     0.144 A 
ATOM      6  C   UNL d   1       4.029  -6.000   0.000  0.00  0.00     0.297 A 
ATOM      7  N   UNL d   1       3.317  -5.579   0.000  0.00  0.00    -0.204 NA
ATOM      8  O   UNL d   1       4.750  -5.588   0.000  0.00  0.00    -0.264 OA
ATOM      9  C   UNL d   1       2.612  -6.000   0.000  0.00  0.00     0.123 A 
ATOM     10  C   UNL d   1       2.612  -6.825   0.000  0.00  0.00     0.120 A 
ATOM     11  N   UNL d   1       3.317  -7.229   0.000  0.00  0.00    -0.237 NA
ENDBRANCH   4   5
ENDBRANCH   1   4
BRANCH   2  12
ATOM     12  C   UNL d   1       6.892  -6.825   0.000  0.00  0.00     0.086 A 
ATOM     13  C   UNL d   1       7.604  -7.242   0.000  0.00  0.00     0.043 A 
ATOM     14  C   UNL d   1       8.317  -6.829   0.000  0.00  0.00     0.128 A 
ATOM     15  C   UNL d   1       8.317  -6.004   0.000  0.00  0.00     0.024 A 
ATOM     16  C   UNL d   1       7.604  -5.592   0.000  0.00  0.00     0.003 A 
ATOM     17  C   UNL d   1       6.892  -6.004   0.000  0.00  0.00     0.019 A 
BRANCH  14  18
ATOM     18  N   UNL d   1       9.029  -7.242   0.000  0.00  0.00    -0.114 N 
ATOM     19  O   UNL d   1       9.037  -8.067   0.000  0.00  0.00    -0.532 OA
ATOM     20  O   UNL d   1       9.754  -6.829   0.000  0.00  0.00    -0.532 OA
ENDBRANCH  14  18
ENDBRANCH   2  12
TORSDOF 4
