REMARK  4 active torsions:
REMARK  status: ('A' for Active; 'I' for Inactive)
REMARK       I    between atoms: C_2  and  N_1 
REMARK       I    between atoms: N_8  and  C_2 
REMARK    1  A    between atoms: C_12  and  N_8 
REMARK    2  A    between atoms: C_9  and  C_12 
REMARK    3  A    between atoms: O_13  and  C_9 
REMARK    4  A    between atoms: C_18  and  O_13 
ROOT
ATOM      1  N   UNL d   1      -1.444   0.000   0.000  0.00  0.00    -0.258 N 
ATOM      2  C   UNL d   1      -0.620   0.000   0.000  0.00  0.00     0.354 C 
ATOM      3  S   UNL d   1      -3.106   0.000   0.000  0.00  0.00    -0.084 SA
ATOM      4  C   UNL d   1      -1.859   0.713   0.000  0.00  0.00     0.074 A 
ATOM      5  C   UNL d   1      -1.854  -0.716   0.000  0.00  0.00     0.074 A 
ATOM      6  C   UNL d   1      -2.689   0.717   0.000  0.00  0.00     0.046 A 
ATOM      7  C   UNL d   1      -2.689  -0.716   0.000  0.00  0.00     0.046 A 
ATOM      8  N   UNL d   1      -0.205  -0.722   0.000  0.00  0.00    -0.185 NA
ATOM      9  O   UNL d   1      -0.211   0.713   0.000  0.00  0.00    -0.244 OA
ATOM     10  C   UNL d   1      -1.444   1.420   0.000  0.00  0.00     0.018 A 
ATOM     11  C   UNL d   1      -1.437  -1.420   0.000  0.00  0.00     0.018 A 
ATOM     12  C   UNL d   1      -3.099  -1.420   0.000  0.00  0.00     0.008 A 
ATOM     13  C   UNL d   1      -3.099   1.432   0.000  0.00  0.00     0.008 A 
ATOM     14  C   UNL d   1      -1.847   2.143   0.000  0.00  0.00     0.002 A 
ATOM     15  C   UNL d   1      -1.859  -2.148   0.000  0.00  0.00     0.002 A 
ATOM     16  C   UNL d   1      -2.689  -2.143   0.000  0.00  0.00     0.001 A 
ATOM     17  C   UNL d   1      -2.672   2.148   0.000  0.00  0.00     0.001 A 
ENDROOT
BRANCH   8  18
ATOM     18  C   UNL d   1       0.644  -0.722   0.000  0.00  0.00     0.172 C 
BRANCH  18  19
ATOM     19  C   UNL d   1       1.041  -0.011   0.000  0.00  0.00     0.320 C 
ATOM     20  O   UNL d   1       0.614   0.693   0.000  0.00  0.00    -0.257 OA
BRANCH  19  21
ATOM     21  O   UNL d   1       1.854   0.006   0.000  0.00  0.00    -0.270 OA
BRANCH  21  22
ATOM     22  C   UNL d   1       2.287  -0.709   0.000  0.00  0.00     0.126 C 
ATOM     23  C   UNL d   1       3.106  -0.692   0.000  0.00  0.00     0.029 C 
ENDBRANCH  21  22
ENDBRANCH  19  21
ENDBRANCH  18  19
ENDBRANCH   8  18
TORSDOF 4
