REMARK  4 active torsions:
REMARK  status: ('A' for Active; 'I' for Inactive)
REMARK       I    between atoms: C_2  and  N_1 
REMARK       I    between atoms: N_8  and  C_2 
REMARK    1  A    between atoms: C_14  and  N_8 
REMARK    2  A    between atoms: C_15  and  N_8 
REMARK    3  A    between atoms: C_17  and  C_14 
REMARK    4  A    between atoms: C_16  and  C_15 
ROOT
ATOM      1  N   UNL d   1      -0.758   0.372   0.000  0.00  0.00    -0.259 N 
ATOM      2  C   UNL d   1       0.037   0.155   0.000  0.00  0.00     0.339 C 
ATOM      3  S   UNL d   1      -2.358   0.803   0.000  0.00  0.00    -0.084 SA
ATOM      4  C   UNL d   1      -0.976   1.167   0.000  0.00  0.00     0.074 A 
ATOM      5  C   UNL d   1      -1.344  -0.216   0.000  0.00  0.00     0.074 A 
ATOM      6  C   UNL d   1      -1.769   1.392   0.000  0.00  0.00     0.046 A 
ATOM      7  C   UNL d   1      -2.142   0.008   0.000  0.00  0.00     0.046 A 
ATOM      8  N   UNL d   1       0.255  -0.641   0.000  0.00  0.00    -0.258 N 
ATOM      9  O   UNL d   1       0.626   0.740   0.000  0.00  0.00    -0.245 OA
ATOM     10  C   UNL d   1      -0.388   1.754   0.000  0.00  0.00     0.018 A 
ATOM     11  C   UNL d   1      -1.137  -1.005   0.000  0.00  0.00     0.018 A 
ATOM     12  C   UNL d   1      -2.729  -0.572   0.000  0.00  0.00     0.008 A 
ATOM     13  C   UNL d   1      -1.995   2.180   0.000  0.00  0.00     0.008 A 
ATOM     14  C   UNL d   1      -1.724  -1.592   0.000  0.00  0.00     0.002 A 
ATOM     15  C   UNL d   1      -0.612   2.543   0.000  0.00  0.00     0.002 A 
ATOM     16  C   UNL d   1      -1.398   2.760   0.000  0.00  0.00     0.001 A 
ATOM     17  C   UNL d   1      -2.512  -1.368   0.000  0.00  0.00     0.001 A 
ENDROOT
BRANCH   8  18
ATOM     18  C   UNL d   1      -0.334  -1.229   0.000  0.00  0.00     0.085 C 
BRANCH  18  19
ATOM     19  C   UNL d   1      -0.109  -2.010   0.000  0.00  0.00     0.019 C 
ATOM     20  C   UNL d   1      -0.697  -2.590   0.000  0.00  0.00     0.002 C 
ENDBRANCH  18  19
ENDBRANCH   8  18
BRANCH   8  21
ATOM     21  C   UNL d   1       1.051  -0.850   0.000  0.00  0.00     0.085 C 
BRANCH  21  22
ATOM     22  C   UNL d   1       1.639  -0.262   0.000  0.00  0.00     0.019 C 
ATOM     23  C   UNL d   1       2.427  -0.464   0.000  0.00  0.00     0.002 C 
ENDBRANCH  21  22
ENDBRANCH   8  21
TORSDOF 4
