REMARK  9 active torsions:
REMARK  status: ('A' for Active; 'I' for Inactive)
REMARK    1  A    between atoms: N_2  and  S_1 
REMARK    2  A    between atoms: C_12  and  S_1 
REMARK    3  A    between atoms: C_4  and  N_2 
REMARK    4  A    between atoms: N_6  and  C_8 
REMARK       I    between atoms: C_9  and  N_6 
REMARK    5  A    between atoms: O_22  and  C_7 
REMARK    6  A    between atoms: C_8  and  N_15 
REMARK    7  A    between atoms: C_16  and  C_9 
REMARK    8  A    between atoms: O_23  and  C_10 
REMARK    9  A    between atoms: N_15  and  C_21 
ROOT
ATOM      1  C   UNL d   1       0.581   0.656   0.000  0.00  0.00     0.105 A 
ATOM      2  C   UNL d   1       0.196  -0.055   0.000  0.00  0.00     0.015 A 
ATOM      3  C   UNL d   1       0.155   1.358   0.000  0.00  0.00     0.015 A 
ATOM      4  C   UNL d   1      -1.059   0.626   0.000  0.00  0.00     0.084 A 
ATOM      5  C   UNL d   1      -0.615  -0.096   0.000  0.00  0.00     0.020 A 
ATOM      6  C   UNL d   1      -0.656   1.337   0.000  0.00  0.00     0.020 A 
ENDROOT
BRANCH   1   7
ATOM      7  S   UNL d   1       1.416   0.691   0.000  0.00  0.00     0.287 S 
ATOM      8  O   UNL d   1       1.437  -0.148   0.000  0.00  0.00    -0.198 OA
ATOM      9  O   UNL d   1       1.385   1.512   0.000  0.00  0.00    -0.198 OA
BRANCH   7  10
ATOM     10  N   UNL d   1       2.248   0.701   0.000  0.00  0.00    -0.139 NA
BRANCH  10  11
ATOM     11  C   UNL d   1       2.692   0.000   0.000  0.00  0.00     0.182 A 
ATOM     12  N   UNL d   1       3.489   0.031   0.000  0.00  0.00    -0.185 NA
ATOM     13  C   UNL d   1       3.943  -0.660   0.000  0.00  0.00     0.274 A 
ATOM     14  N   UNL d   1       3.582  -1.375   0.000  0.00  0.00    -0.181 NA
ATOM     15  C   UNL d   1       2.767  -1.437   0.000  0.00  0.00     0.185 A 
ATOM     16  C   UNL d   1       2.303  -0.705   0.000  0.00  0.00     0.084 A 
BRANCH  13  17
ATOM     17  O   UNL d   1       4.785  -0.629   0.000  0.00  0.00    -0.297 OA
ATOM     18  C   UNL d   1       5.180   0.089   0.000  0.00  0.00     0.185 C 
ENDBRANCH  13  17
BRANCH  15  19
ATOM     19  O   UNL d   1       2.427  -2.190   0.000  0.00  0.00    -0.312 OA
ATOM     20  C   UNL d   1       2.908  -2.860   0.000  0.00  0.00     0.183 C 
ENDBRANCH  15  19
ENDBRANCH  10  11
ENDBRANCH   7  10
ENDBRANCH   1   7
BRANCH   4  21
ATOM     21  N   UNL d   1      -1.887   0.626   0.000  0.00  0.00    -0.217 NA
BRANCH  21  22
ATOM     22  C   UNL d   1      -2.286   1.327   0.000  0.00  0.00     0.223 C 
ATOM     23  S   UNL d   1      -1.867   2.049   0.000  0.00  0.00    -0.037 SA
BRANCH  22  24
ATOM     24  N   UNL d   1      -3.101   1.327   0.000  0.00  0.00    -0.183 NA
ATOM     25  C   UNL d   1      -3.523   2.028   0.000  0.00  0.00     0.257 C 
ATOM     26  O   UNL d   1      -3.101   2.760   0.000  0.00  0.00    -0.270 OA
BRANCH  25  27
ATOM     27  C   UNL d   1      -4.348   2.028   0.000  0.00  0.00     0.073 C 
ATOM     28  C   UNL d   1      -4.348   2.863   0.000  0.00  0.00     0.009 C 
ATOM     29  C   UNL d   1      -4.348   1.196   0.000  0.00  0.00     0.009 C 
ATOM     30  C   UNL d   1      -5.180   2.028   0.000  0.00  0.00     0.009 C 
ENDBRANCH  25  27
ENDBRANCH  22  24
ENDBRANCH  21  22
ENDBRANCH   4  21
TORSDOF 9
