REMARK  4 active torsions:
REMARK  status: ('A' for Active; 'I' for Inactive)
REMARK    1  A    between atoms: C_9  and  C_4 
REMARK    2  A    between atoms: C_7  and  C_11 
REMARK    3  A    between atoms: O_12  and  C_7 
REMARK    4  A    between atoms: C_11  and  C_9 
ROOT
ATOM      1  N   UNL d   1       3.263  -3.375   0.000  0.00  0.00    -0.239 NA
ATOM      2  N   UNL d   1       3.267  -5.029   0.000  0.00  0.00    -0.205 NA
ATOM      3  C   UNL d   1       3.979  -4.612   0.000  0.00  0.00     0.297 A 
ATOM      4  C   UNL d   1       3.979  -3.779   0.000  0.00  0.00     0.139 A 
ATOM      5  C   UNL d   1       2.554  -3.792   0.000  0.00  0.00     0.099 A 
ATOM      6  C   UNL d   1       2.554  -4.617   0.000  0.00  0.00     0.102 A 
ATOM      7  O   UNL d   1       4.700  -5.017   0.000  0.00  0.00    -0.264 OA
ATOM      8  C   UNL d   1       1.837  -3.379   0.000  0.00  0.00     0.021 A 
ATOM      9  C   UNL d   1       1.837  -5.029   0.000  0.00  0.00     0.021 A 
ATOM     10  C   UNL d   1       1.125  -4.617   0.000  0.00  0.00     0.002 A 
ATOM     11  C   UNL d   1       1.125  -3.792   0.000  0.00  0.00     0.002 A 
ENDROOT
BRANCH   4  12
ATOM     12  C   UNL d   1       4.692  -3.367   0.000  0.00  0.00     0.029 C 
BRANCH  12  13
ATOM     13  C   UNL d   1       5.404  -3.775   0.000  0.00  0.00     0.070 C 
BRANCH  13  14
ATOM     14  C   UNL d   1       6.117  -3.354   0.000  0.00  0.00     0.296 C 
ATOM     15  O   UNL d   1       6.117  -2.529   0.000  0.00  0.00    -0.259 OA
BRANCH  14  16
ATOM     16  O   UNL d   1       6.838  -3.767   0.000  0.00  0.00    -0.296 OA
ATOM     17  C   UNL d   1       6.842  -4.592   0.000  0.00  0.00     0.185 C 
ENDBRANCH  14  16
ENDBRANCH  13  14
ENDBRANCH  12  13
ENDBRANCH   4  12
TORSDOF 4
