REMARK  8 active torsions:
REMARK  status: ('A' for Active; 'I' for Inactive)
REMARK    1  A    between atoms: C_9  and  N_1 
REMARK    2  A    between atoms: C_7  and  C_2 
REMARK    3  A    between atoms: C_6  and  C_4 
REMARK    4  A    between atoms: C_8  and  C_12 
REMARK       I    between atoms: N_25  and  C_8 
REMARK    5  A    between atoms: N_11  and  C_26 
REMARK    6  A    between atoms: C_30  and  N_25 
REMARK    7  A    between atoms: C_26  and  C_27 
REMARK    8  A    between atoms: C_27  and  C_30 
ROOT
ATOM      1  C   UNL d   1       2.779  -2.576   0.000  0.00  0.00     0.083 A 
ATOM      2  C   UNL d   1       4.210  -3.397   0.000  0.00  0.00     0.058 A 
ATOM      3  C   UNL d   1       3.488  -2.157   0.000  0.00  0.00     0.019 A 
ATOM      4  C   UNL d   1       2.779  -3.401   0.000  0.00  0.00     0.019 A 
ATOM      5  C   UNL d   1       3.488  -3.812   0.000  0.00  0.00     0.006 A 
ATOM      6  C   UNL d   1       4.197  -2.563   0.000  0.00  0.00     0.006 A 
ENDROOT
BRANCH   1   7
ATOM      7  N   UNL d   1       2.057  -2.169   0.000  0.00  0.00    -0.229 N 
ATOM      8  C   UNL d   1       1.306  -2.505   0.000  0.00  0.00     0.090 A 
ATOM      9  C   UNL d   1       0.751  -1.895   0.000  0.00  0.00     0.044 A 
ATOM     10  C   UNL d   1       1.170  -1.182   0.000  0.00  0.00     0.174 A 
ATOM     11  N   UNL d   1       1.970  -1.361   0.000  0.00  0.00    -0.161 NA
BRANCH   8  12
ATOM     12  C   UNL d   1       1.049  -3.289   0.000  0.00  0.00     0.047 A 
ATOM     13  S   UNL d   1       1.298  -4.085   0.000  0.00  0.00    -0.085 SA
ATOM     14  C   UNL d   1       0.622  -4.567   0.000  0.00  0.00     0.035 A 
ATOM     15  C   UNL d   1      -0.033  -4.073   0.000  0.00  0.00     0.007 A 
ATOM     16  C   UNL d   1       0.216  -3.297   0.000  0.00  0.00     0.009 A 
ENDBRANCH   8  12
BRANCH  10  17
ATOM     17  C   UNL d   1       0.838  -0.423   0.000  0.00  0.00     0.437 C 
ATOM     18  F   UNL d   1       1.232   0.348   0.000  0.00  0.00    -0.164 F 
ATOM     19  F   UNL d   1       0.004  -0.187   0.000  0.00  0.00    -0.164 F 
ATOM     20  F   UNL d   1       0.535   0.270   0.000  0.00  0.00    -0.164 F 
ENDBRANCH  10  17
ENDBRANCH   1   7
BRANCH   2  21
ATOM     21  C   UNL d   1       4.927  -3.808   0.000  0.00  0.00     0.279 C 
ATOM     22  O   UNL d   1       4.927  -4.629   0.000  0.00  0.00    -0.265 OA
ATOM     23  N   UNL d   1       5.637  -3.389   0.000  0.00  0.00    -0.206 NA
BRANCH  23  24
ATOM     24  C   UNL d   1       6.350  -3.799   0.000  0.00  0.00     0.104 C 
BRANCH  24  25
ATOM     25  C   UNL d   1       7.068  -3.385   0.000  0.00  0.00     0.040 C 
BRANCH  25  26
ATOM     26  C   UNL d   1       7.781  -3.787   0.000  0.00  0.00     0.082 C 
BRANCH  26  27
ATOM     27  N   UNL d   1       8.499  -3.376   0.000  0.00  0.00    -0.299 N 
ATOM     28  C   UNL d   1       9.212  -3.795   0.000  0.00  0.00     0.107 A 
ATOM     29  C   UNL d   1       9.921  -3.376   0.000  0.00  0.00     0.142 A 
ATOM     30  O   UNL d   1       9.921  -2.555   0.000  0.00  0.00    -0.300 OA
ATOM     31  C   UNL d   1       9.208  -2.144   0.000  0.00  0.00     0.142 A 
ATOM     32  C   UNL d   1       8.486  -2.555   0.000  0.00  0.00     0.107 A 
ENDBRANCH  26  27
ENDBRANCH  25  26
ENDBRANCH  24  25
ENDBRANCH  23  24
ENDBRANCH   2  21
TORSDOF 8
