REMARK  8 active torsions:
REMARK  status: ('A' for Active; 'I' for Inactive)
REMARK    1  A    between atoms: C_9  and  N_1 
REMARK    2  A    between atoms: C_7  and  C_2 
REMARK    3  A    between atoms: C_6  and  C_4 
REMARK    4  A    between atoms: C_8  and  C_11 
REMARK       I    between atoms: N_23  and  C_8 
REMARK    5  A    between atoms: C_26  and  N_23 
REMARK    6  A    between atoms: C_24  and  C_26 
REMARK    7  A    between atoms: C_27  and  C_24 
REMARK    8  A    between atoms: O_25  and  C_27 
ROOT
ATOM      1  N   UNL d   1       3.073  -1.942   0.000  0.00  0.00    -0.229 N 
ATOM      2  C   UNL d   1       2.509  -1.319   0.000  0.00  0.00     0.090 A 
ATOM      3  N   UNL d   1       3.812  -1.607   0.000  0.00  0.00    -0.161 NA
ATOM      4  C   UNL d   1       3.737  -0.781   0.000  0.00  0.00     0.174 A 
ATOM      5  C   UNL d   1       2.923  -0.606   0.000  0.00  0.00     0.044 A 
ENDROOT
BRANCH   1   6
ATOM      6  C   UNL d   1       2.906  -2.747   0.000  0.00  0.00     0.083 A 
ATOM      7  C   UNL d   1       2.121  -3.006   0.000  0.00  0.00     0.019 A 
ATOM      8  C   UNL d   1       1.946  -3.812   0.000  0.00  0.00     0.006 A 
ATOM      9  C   UNL d   1       2.568  -4.363   0.000  0.00  0.00     0.058 A 
ATOM     10  C   UNL d   1       3.357  -4.100   0.000  0.00  0.00     0.006 A 
ATOM     11  C   UNL d   1       3.520  -3.299   0.000  0.00  0.00     0.019 A 
BRANCH   9  12
ATOM     12  C   UNL d   1       2.397  -5.177   0.000  0.00  0.00     0.279 C 
ATOM     13  O   UNL d   1       1.616  -5.436   0.000  0.00  0.00    -0.265 OA
ATOM     14  N   UNL d   1       3.010  -5.724   0.000  0.00  0.00    -0.206 NA
BRANCH  14  15
ATOM     15  C   UNL d   1       2.848  -6.530   0.000  0.00  0.00     0.104 C 
BRANCH  15  16
ATOM     16  C   UNL d   1       3.461  -7.081   0.000  0.00  0.00     0.047 C 
BRANCH  16  17
ATOM     17  C   UNL d   1       4.250  -6.827   0.000  0.00  0.00     0.118 C 
BRANCH  17  18
ATOM     18  O   UNL d   1       4.413  -6.017   0.000  0.00  0.00    -0.326 OA
ATOM     19  C   UNL d   1       5.202  -5.754   0.000  0.00  0.00     0.181 C 
ENDBRANCH  17  18
ENDBRANCH  16  17
ENDBRANCH  15  16
ENDBRANCH  14  15
ENDBRANCH   9  12
ENDBRANCH   1   6
BRANCH   2  20
ATOM     20  C   UNL d   1       1.683  -1.319   0.000  0.00  0.00     0.047 A 
ATOM     21  S   UNL d   1       1.006  -1.808   0.000  0.00  0.00    -0.085 SA
ATOM     22  C   UNL d   1       0.338  -1.315   0.000  0.00  0.00     0.035 A 
ATOM     23  C   UNL d   1       0.606  -0.539   0.000  0.00  0.00     0.007 A 
ATOM     24  C   UNL d   1       1.428  -0.539   0.000  0.00  0.00     0.009 A 
ENDBRANCH   2  20
BRANCH   4  25
ATOM     25  C   UNL d   1       4.351  -0.230   0.000  0.00  0.00     0.437 C 
ATOM     26  F   UNL d   1       4.914   0.271   0.000  0.00  0.00    -0.164 F 
ATOM     27  F   UNL d   1       5.202  -0.367   0.000  0.00  0.00    -0.164 F 
ATOM     28  F   UNL d   1       4.313   0.635   0.000  0.00  0.00    -0.164 F 
ENDBRANCH   4  25
TORSDOF 8
