REMARK  4 active torsions:
REMARK  status: ('A' for Active; 'I' for Inactive)
REMARK    1  A    between atoms: C_4  and  C_1 
REMARK       I    between atoms: N_7  and  C_4 
REMARK    2  A    between atoms: C_8  and  N_7 
REMARK    3  A    between atoms: O_21  and  C_13 
REMARK    4  A    between atoms: O_22  and  C_16 
ROOT
ATOM      1  C   UNL d   1       0.357  -1.204   0.000  0.00  0.00     0.263 C 
ATOM      2  N   UNL d   1       1.116  -0.772   0.000  0.00  0.00    -0.209 NA
ATOM      3  O   UNL d   1       0.304  -2.078   0.000  0.00  0.00    -0.270 OA
ENDROOT
BRANCH   1   4
ATOM      4  C   UNL d   1      -0.379  -0.838   0.000  0.00  0.00     0.113 A 
ATOM      5  C   UNL d   1      -1.914  -0.746   0.000  0.00  0.00     0.025 A 
ATOM      6  C   UNL d   1      -1.134  -0.481   0.000  0.00  0.00     0.074 A 
ATOM      7  C   UNL d   1      -2.523  -0.212   0.000  0.00  0.00     0.002 C 
ATOM      8  C   UNL d   1      -2.276  -1.469   0.000  0.00  0.00     0.002 C 
ATOM      9  C   UNL d   1      -1.756   0.062   0.000  0.00  0.00     0.012 C 
ATOM     10  C   UNL d   1      -1.067  -1.301   0.000  0.00  0.00    -0.023 A 
ATOM     11  C   UNL d   1      -0.754   0.251   0.000  0.00  0.00     0.172 A 
ATOM     12  C   UNL d   1      -0.340  -1.645   0.000  0.00  0.00    -0.018 A 
ATOM     13  C   UNL d   1      -0.022  -0.110   0.000  0.00  0.00     0.024 A 
ATOM     14  O   UNL d   1      -1.028   1.041   0.000  0.00  0.00    -0.291 OA
ENDBRANCH   1   4
BRANCH   2  15
ATOM     15  C   UNL d   1       1.116   0.101   0.000  0.00  0.00     0.108 A 
ATOM     16  C   UNL d   1       0.348   0.525   0.000  0.00  0.00     0.045 A 
ATOM     17  C   UNL d   1       0.348   1.403   0.000  0.00  0.00     0.096 A 
ATOM     18  C   UNL d   1       1.116   1.848   0.000  0.00  0.00     0.026 A 
ATOM     19  C   UNL d   1       1.870   1.403   0.000  0.00  0.00     0.028 A 
ATOM     20  C   UNL d   1       1.870   0.525   0.000  0.00  0.00     0.112 A 
BRANCH  17  21
ATOM     21  O   UNL d   1      -0.406   1.839   0.000  0.00  0.00    -0.328 OA
ATOM     22  C   UNL d   1      -0.410   2.713   0.000  0.00  0.00     0.181 C 
ENDBRANCH  17  21
BRANCH  20  23
ATOM     23  O   UNL d   1       2.625   0.079   0.000  0.00  0.00    -0.327 OA
ATOM     24  C   UNL d   1       3.379   0.525   0.000  0.00  0.00     0.181 C 
ENDBRANCH  20  23
ENDBRANCH   2  15
TORSDOF 4
