REMARK  4 active torsions:
REMARK  status: ('A' for Active; 'I' for Inactive)
REMARK    1  A    between atoms: C_2  and  C_1 
REMARK       I    between atoms: N_3  and  C_1 
REMARK    2  A    between atoms: C_14  and  N_3 
REMARK    3  A    between atoms: C_6  and  S_7 
REMARK    4  A    between atoms: S_7  and  C_15 
ROOT
ATOM      1  C   UNL d   1       4.539  -6.801   0.000  0.00  0.00     0.279 C 
ATOM      2  N   UNL d   1       4.539  -7.624   0.000  0.00  0.00    -0.208 NA
ATOM      3  O   UNL d   1       3.820  -6.385   0.000  0.00  0.00    -0.265 OA
ENDROOT
BRANCH   1   4
ATOM      4  C   UNL d   1       5.254  -6.385   0.000  0.00  0.00     0.059 A 
ATOM      5  C   UNL d   1       5.973  -6.801   0.000  0.00  0.00     0.025 A 
ATOM      6  C   UNL d   1       6.689  -6.377   0.000  0.00  0.00     0.099 A 
ATOM      7  N   UNL d   1       7.408  -6.797   0.000  0.00  0.00    -0.241 NA
ATOM      8  C   UNL d   1       6.689  -5.554   0.000  0.00  0.00     0.099 A 
ATOM      9  C   UNL d   1       8.123  -6.377   0.000  0.00  0.00     0.120 A 
ATOM     10  C   UNL d   1       8.118  -5.541   0.000  0.00  0.00     0.120 A 
ATOM     11  N   UNL d   1       7.399  -5.138   0.000  0.00  0.00    -0.241 NA
ATOM     12  C   UNL d   1       5.973  -5.142   0.000  0.00  0.00     0.021 A 
ATOM     13  C   UNL d   1       5.254  -5.554   0.000  0.00  0.00     0.006 A 
ENDBRANCH   1   4
BRANCH   2  14
ATOM     14  C   UNL d   1       5.254  -8.035   0.000  0.00  0.00     0.085 A 
ATOM     15  C   UNL d   1       5.250  -8.858   0.000  0.00  0.00     0.020 A 
ATOM     16  C   UNL d   1       5.961  -9.270   0.000  0.00  0.00     0.008 A 
ATOM     17  C   UNL d   1       6.676  -8.858   0.000  0.00  0.00     0.034 A 
ATOM     18  C   UNL d   1       6.672  -8.035   0.000  0.00  0.00     0.008 A 
ATOM     19  C   UNL d   1       5.961  -7.624   0.000  0.00  0.00     0.020 A 
BRANCH  17  20
ATOM     20  S   UNL d   1       7.387  -9.270   0.000  0.00  0.00    -0.028 SA
BRANCH  20  21
ATOM     21  C   UNL d   1       8.098  -9.681   0.000  0.00  0.00     0.309 C 
ATOM     22  F   UNL d   1       8.094 -10.505   0.000  0.00  0.00    -0.165 F 
ATOM     23  F   UNL d   1       8.809  -9.270   0.000  0.00  0.00    -0.165 F 
ENDBRANCH  20  21
ENDBRANCH  17  20
ENDBRANCH   2  14
TORSDOF 4
