REMARK  7 active torsions:
REMARK  status: ('A' for Active; 'I' for Inactive)
REMARK    1  A    between atoms: C_6  and  N_2 
REMARK    2  A    between atoms: C_7  and  C_3 
REMARK    3  A    between atoms: C_8  and  C_6 
REMARK    4  A    between atoms: O_13  and  C_7 
REMARK    5  A    between atoms: C_14  and  C_8 
REMARK    6  A    between atoms: C_9  and  O_12 
REMARK    7  A    between atoms: O_12  and  C_14 
ROOT
ATOM      1  N   UNL d   1       1.990   2.403   0.000  0.00  0.00    -0.225 NA
ATOM      2  N   UNL d   1       1.990   1.038   0.000  0.00  0.00    -0.287 N 
ATOM      3  C   UNL d   1       2.486   1.721   0.000  0.00  0.00     0.172 A 
ATOM      4  C   UNL d   1       1.195   1.286   0.000  0.00  0.00     0.083 A 
ATOM      5  C   UNL d   1       1.195   2.130   0.000  0.00  0.00     0.099 A 
ATOM      6  C   UNL d   1       0.476   0.877   0.000  0.00  0.00     0.019 A 
ATOM      7  C   UNL d   1       0.476   2.544   0.000  0.00  0.00     0.021 A 
ATOM      8  C   UNL d   1      -0.244   1.299   0.000  0.00  0.00     0.002 A 
ATOM      9  C   UNL d   1      -0.244   2.130   0.000  0.00  0.00     0.002 A 
ENDROOT
BRANCH   2  10
ATOM     10  C   UNL d   1       2.407   0.323   0.000  0.00  0.00     0.084 C 
BRANCH  10  11
ATOM     11  C   UNL d   1       1.990  -0.389   0.000  0.00  0.00     0.046 C 
BRANCH  11  12
ATOM     12  C   UNL d   1       2.395  -1.096   0.000  0.00  0.00     0.124 C 
BRANCH  12  13
ATOM     13  O   UNL d   1       1.977  -1.803   0.000  0.00  0.00    -0.305 OA
BRANCH  13  14
ATOM     14  C   UNL d   1       2.382  -2.519   0.000  0.00  0.00     0.100 A 
ATOM     15  C   UNL d   1       1.965  -3.218   0.000  0.00  0.00     0.025 A 
ATOM     16  C   UNL d   1       2.362  -3.925   0.000  0.00  0.00     0.002 A 
ATOM     17  C   UNL d   1       3.193  -3.938   0.000  0.00  0.00     0.000 A 
ATOM     18  C   UNL d   1       3.603  -3.226   0.000  0.00  0.00     0.002 A 
ATOM     19  C   UNL d   1       3.193  -2.519   0.000  0.00  0.00     0.025 A 
ENDBRANCH  13  14
ENDBRANCH  12  13
ENDBRANCH  11  12
ENDBRANCH  10  11
ENDBRANCH   2  10
BRANCH   3  20
ATOM     20  C   UNL d   1       3.214   1.820   0.000  0.00  0.00     0.154 C 
BRANCH  20  21
ATOM     21  O   UNL d   1       3.776   1.224   0.000  0.00  0.00    -0.323 OA
ATOM     22  C   UNL d   1       4.603   1.224   0.000  0.00  0.00     0.182 C 
ENDBRANCH  20  21
ENDBRANCH   3  20
TORSDOF 7
