REMARK  6 active torsions:
REMARK  status: ('A' for Active; 'I' for Inactive)
REMARK    1  A    between atoms: S_6  and  C_1 
REMARK    2  A    between atoms: C_13  and  S_6 
REMARK    3  A    between atoms: C_7  and  O_9 
REMARK    4  A    between atoms: O_9  and  C_14 
REMARK    5  A    between atoms: C_10  and  C_13 
REMARK    6  A    between atoms: C_14  and  C_10 
ROOT
ATOM      1  C   UNL d   1       0.042  -0.890   0.000  0.00  0.00     0.040 C 
ENDROOT
BRANCH   1   2
ATOM      2  C   UNL d   1       0.865  -0.877   0.000  0.00  0.00     0.034 C 
BRANCH   2   3
ATOM      3  C   UNL d   1       1.264  -0.154   0.000  0.00  0.00     0.123 C 
BRANCH   3   4
ATOM      4  O   UNL d   1       2.087  -0.154   0.000  0.00  0.00    -0.305 OA
BRANCH   4   5
ATOM      5  C   UNL d   1       2.498   0.557   0.000  0.00  0.00     0.100 A 
ATOM      6  C   UNL d   1       3.321   0.557   0.000  0.00  0.00     0.023 A 
ATOM      7  C   UNL d   1       3.741  -0.154   0.000  0.00  0.00     0.002 C 
ATOM      8  C   UNL d   1       3.733   1.280   0.000  0.00  0.00     0.002 A 
ATOM      9  C   UNL d   1       3.317   1.991   0.000  0.00  0.00     0.000 A 
ATOM     10  C   UNL d   1       2.486   1.983   0.000  0.00  0.00     0.002 A 
ATOM     11  C   UNL d   1       2.074   1.268   0.000  0.00  0.00     0.025 A 
ENDBRANCH   4   5
ENDBRANCH   3   4
ENDBRANCH   2   3
ENDBRANCH   1   2
BRANCH   1  12
ATOM     12  S   UNL d   1      -0.374  -0.179   0.000  0.00  0.00    -0.048 SA
BRANCH  12  13
ATOM     13  C   UNL d   1      -1.197  -0.179   0.000  0.00  0.00     0.194 A 
ATOM     14  N   UNL d   1      -1.692   0.486   0.000  0.00  0.00    -0.220 NA
ATOM     15  C   UNL d   1      -2.478   0.220   0.000  0.00  0.00     0.101 A 
ATOM     16  C   UNL d   1      -3.192   0.632   0.000  0.00  0.00     0.021 A 
ATOM     17  C   UNL d   1      -2.478  -0.611   0.000  0.00  0.00     0.101 A 
ATOM     18  C   UNL d   1      -3.903   0.220   0.000  0.00  0.00     0.002 A 
ATOM     19  C   UNL d   1      -3.903  -0.603   0.000  0.00  0.00     0.002 A 
ATOM     20  C   UNL d   1      -3.192  -1.014   0.000  0.00  0.00     0.021 A 
ATOM     21  N   UNL d   1      -1.679  -0.861   0.000  0.00  0.00    -0.220 NA
ENDBRANCH  12  13
ENDBRANCH   1  12
TORSDOF 6
