REMARK  6 active torsions:
REMARK  status: ('A' for Active; 'I' for Inactive)
REMARK    1  A    between atoms: S_6  and  C_1 
REMARK    2  A    between atoms: C_15  and  S_6 
REMARK    3  A    between atoms: C_8  and  O_11 
REMARK    4  A    between atoms: C_10  and  C_15 
REMARK    5  A    between atoms: C_16  and  C_10 
REMARK    6  A    between atoms: O_11  and  C_16 
ROOT
ATOM      1  C   UNL d   1       0.042  -0.891   0.000  0.00  0.00     0.040 C 
ENDROOT
BRANCH   1   2
ATOM      2  C   UNL d   1       0.866  -0.879   0.000  0.00  0.00     0.034 C 
BRANCH   2   3
ATOM      3  C   UNL d   1       1.266  -0.154   0.000  0.00  0.00     0.123 C 
BRANCH   3   4
ATOM      4  O   UNL d   1       2.091  -0.154   0.000  0.00  0.00    -0.305 OA
BRANCH   4   5
ATOM      5  C   UNL d   1       2.503   0.558   0.000  0.00  0.00     0.100 A 
ATOM      6  C   UNL d   1       3.328   0.558   0.000  0.00  0.00     0.025 A 
ATOM      7  C   UNL d   1       3.740   1.283   0.000  0.00  0.00     0.002 A 
ATOM      8  C   UNL d   1       4.564   1.283   0.000  0.00  0.00     0.000 C 
ATOM      9  C   UNL d   1       3.323   1.995   0.000  0.00  0.00     0.000 A 
ATOM     10  C   UNL d   1       2.490   1.986   0.000  0.00  0.00     0.002 A 
ATOM     11  C   UNL d   1       2.078   1.270   0.000  0.00  0.00     0.025 A 
ENDBRANCH   4   5
ENDBRANCH   3   4
ENDBRANCH   2   3
ENDBRANCH   1   2
BRANCH   1  12
ATOM     12  S   UNL d   1      -0.375  -0.179   0.000  0.00  0.00    -0.048 SA
BRANCH  12  13
ATOM     13  C   UNL d   1      -1.199  -0.179   0.000  0.00  0.00     0.194 A 
ATOM     14  N   UNL d   1      -1.695   0.487   0.000  0.00  0.00    -0.220 NA
ATOM     15  C   UNL d   1      -2.482   0.221   0.000  0.00  0.00     0.101 A 
ATOM     16  C   UNL d   1      -3.198   0.633   0.000  0.00  0.00     0.021 A 
ATOM     17  C   UNL d   1      -2.482  -0.612   0.000  0.00  0.00     0.101 A 
ATOM     18  C   UNL d   1      -3.911   0.221   0.000  0.00  0.00     0.002 A 
ATOM     19  C   UNL d   1      -3.911  -0.604   0.000  0.00  0.00     0.002 A 
ATOM     20  C   UNL d   1      -3.198  -1.016   0.000  0.00  0.00     0.021 A 
ATOM     21  N   UNL d   1      -1.683  -0.862   0.000  0.00  0.00    -0.220 NA
ENDBRANCH  12  13
ENDBRANCH   1  12
TORSDOF 6
