REMARK  6 active torsions:
REMARK  status: ('A' for Active; 'I' for Inactive)
REMARK    1  A    between atoms: C_6  and  N_3 
REMARK    2  A    between atoms: C_14  and  C_6 
REMARK    3  A    between atoms: C_7  and  O_8 
REMARK    4  A    between atoms: O_8  and  C_11 
REMARK    5  A    between atoms: C_11  and  C_15 
REMARK    6  A    between atoms: C_15  and  C_14 
ROOT
ATOM      1  C   UNL d   1       1.288   0.471   0.000  0.00  0.00     0.082 C 
ENDROOT
BRANCH   1   2
ATOM      2  N   UNL d   1       0.517   0.171   0.000  0.00  0.00    -0.287 N 
ATOM      3  C   UNL d   1      -0.083   0.763   0.000  0.00  0.00     0.183 A 
ATOM      4  N   UNL d   1      -0.834   0.371   0.000  0.00  0.00    -0.224 NA
ATOM      5  C   UNL d   1      -0.696  -0.455   0.000  0.00  0.00     0.099 A 
ATOM      6  C   UNL d   1       0.142  -0.575   0.000  0.00  0.00     0.083 A 
ATOM      7  C   UNL d   1      -1.209  -1.101   0.000  0.00  0.00     0.021 A 
ATOM      8  C   UNL d   1       0.438  -1.355   0.000  0.00  0.00     0.019 A 
ATOM      9  C   UNL d   1      -0.083  -2.001   0.000  0.00  0.00     0.002 A 
ATOM     10  C   UNL d   1      -0.909  -1.868   0.000  0.00  0.00     0.002 A 
ENDBRANCH   1   2
BRANCH   1  11
ATOM     11  C   UNL d   1       1.931  -0.042   0.000  0.00  0.00     0.021 C 
BRANCH  11  12
ATOM     12  C   UNL d   1       2.689   0.250   0.000  0.00  0.00     0.028 C 
BRANCH  12  13
ATOM     13  C   UNL d   1       3.344  -0.267   0.000  0.00  0.00     0.123 C 
BRANCH  13  14
ATOM     14  O   UNL d   1       4.107   0.037   0.000  0.00  0.00    -0.305 OA
BRANCH  14  15
ATOM     15  C   UNL d   1       4.753  -0.475   0.000  0.00  0.00     0.100 A 
ATOM     16  C   UNL d   1       4.628  -1.293   0.000  0.00  0.00     0.025 A 
ATOM     17  C   UNL d   1       5.270  -1.793   0.000  0.00  0.00     0.002 A 
ATOM     18  C   UNL d   1       6.033  -1.501   0.000  0.00  0.00     0.000 A 
ATOM     19  C   UNL d   1       6.158  -0.680   0.000  0.00  0.00     0.002 A 
ATOM     20  C   UNL d   1       5.516  -0.167   0.000  0.00  0.00     0.025 A 
ENDBRANCH  14  15
ENDBRANCH  13  14
ENDBRANCH  12  13
ENDBRANCH  11  12
ENDBRANCH   1  11
TORSDOF 6
