REMARK  3 active torsions:
REMARK  status: ('A' for Active; 'I' for Inactive)
REMARK    1  A    between atoms: C_11  and  C_6 
REMARK    2  A    between atoms: O_20  and  C_11 
REMARK    3  A    between atoms: C_22  and  O_20 
ROOT
ATOM      1  C   UNL d   1       5.029  -4.067   0.000  0.00  0.00     0.155 A 
ATOM      2  C   UNL d   1       5.029  -3.242   0.000  0.00  0.00     0.091 A 
ATOM      3  N   UNL d   1       4.317  -4.479   0.000  0.00  0.00    -0.210 NA
ATOM      4  N   UNL d   1       3.604  -3.242   0.000  0.00  0.00    -0.258 N 
ATOM      5  N   UNL d   1       5.742  -4.479   0.000  0.00  0.00    -0.272 N 
ATOM      6  C   UNL d   1       6.463  -3.242   0.000  0.00  0.00     0.100 A 
ATOM      7  C   UNL d   1       3.612  -4.067   0.000  0.00  0.00     0.152 A 
ATOM      8  C   UNL d   1       4.317  -2.829   0.000  0.00  0.00     0.269 A 
ATOM      9  C   UNL d   1       6.463  -4.067   0.000  0.00  0.00     0.176 A 
ATOM     10  C   UNL d   1       5.742  -2.825   0.000  0.00  0.00     0.016 A 
ATOM     11  C   UNL d   1       2.892  -4.479   0.000  0.00  0.00     0.035 A 
ATOM     12  C   UNL d   1       2.892  -2.829   0.000  0.00  0.00     0.084 A 
ATOM     13  N   UNL d   1       7.179  -4.479   0.000  0.00  0.00    -0.128 N 
ATOM     14  O   UNL d   1       4.317  -2.004   0.000  0.00  0.00    -0.266 OA
ATOM     15  C   UNL d   1       2.188  -3.242   0.000  0.00  0.00     0.019 A 
ATOM     16  C   UNL d   1       2.188  -4.067   0.000  0.00  0.00     0.005 A 
ATOM     17  C   UNL d   1       5.742  -5.304   0.000  0.00  0.00     0.102 C 
ATOM     18  C   UNL d   1       2.892  -5.304   0.000  0.00  0.00     0.003 C 
ENDROOT
BRANCH   6  19
ATOM     19  C   UNL d   1       7.179  -2.829   0.000  0.00  0.00     0.303 C 
ATOM     20  O   UNL d   1       7.179  -2.004   0.000  0.00  0.00    -0.259 OA
BRANCH  19  21
ATOM     21  O   UNL d   1       7.892  -3.242   0.000  0.00  0.00    -0.271 OA
BRANCH  21  22
ATOM     22  C   UNL d   1       8.604  -2.829   0.000  0.00  0.00     0.126 C 
ATOM     23  C   UNL d   1       9.317  -3.242   0.000  0.00  0.00     0.029 C 
ENDBRANCH  21  22
ENDBRANCH  19  21
ENDBRANCH   6  19
TORSDOF 3
