REMARK  3 active torsions:
REMARK  status: ('A' for Active; 'I' for Inactive)
REMARK    1  A    between atoms: S_6  and  C_1 
REMARK    2  A    between atoms: C_8  and  S_6 
REMARK    3  A    between atoms: C_7  and  C_8 
ROOT
ATOM      1  C   UNL d   1      -1.296   1.571   0.000  0.00  0.00     0.194 A 
ATOM      2  N   UNL d   1      -1.788   2.237   0.000  0.00  0.00    -0.220 NA
ATOM      3  N   UNL d   1      -1.783   0.887   0.000  0.00  0.00    -0.220 NA
ATOM      4  C   UNL d   1      -2.575   1.971   0.000  0.00  0.00     0.101 A 
ATOM      5  C   UNL d   1      -2.571   1.137   0.000  0.00  0.00     0.101 A 
ATOM      6  C   UNL d   1      -3.296   2.383   0.000  0.00  0.00     0.021 A 
ATOM      7  C   UNL d   1      -3.296   0.733   0.000  0.00  0.00     0.021 A 
ATOM      8  C   UNL d   1      -4.008   1.146   0.000  0.00  0.00     0.002 A 
ATOM      9  C   UNL d   1      -4.008   1.971   0.000  0.00  0.00     0.002 A 
ENDROOT
BRANCH   1  10
ATOM     10  S   UNL d   1      -0.471   1.571   0.000  0.00  0.00    -0.048 SA
BRANCH  10  11
ATOM     11  C   UNL d   1      -0.050   0.858   0.000  0.00  0.00     0.041 C 
BRANCH  11  12
ATOM     12  C   UNL d   1       0.775   0.871   0.000  0.00  0.00     0.034 A 
ATOM     13  C   UNL d   1       1.192   0.158   0.000  0.00  0.00     0.141 A 
ATOM     14  F   UNL d   1       0.779  -0.554   0.000  0.00  0.00    -0.204 F 
ATOM     15  C   UNL d   1       2.017   0.163   0.000  0.00  0.00     0.030 A 
ATOM     16  C   UNL d   1       2.417   0.883   0.000  0.00  0.00     0.002 A 
ATOM     17  C   UNL d   1       2.004   1.596   0.000  0.00  0.00     0.000 A 
ATOM     18  C   UNL d   1       1.179   1.583   0.000  0.00  0.00     0.003 A 
ENDBRANCH  11  12
ENDBRANCH  10  11
ENDBRANCH   1  10
TORSDOF 3
