REMARK  6 active torsions:
REMARK  status: ('A' for Active; 'I' for Inactive)
REMARK    1  A    between atoms: N_2  and  C_1 
REMARK       I    between atoms: C_4  and  N_2 
REMARK    2  A    between atoms: C_6  and  C_4 
REMARK    3  A    between atoms: C_9  and  C_6 
REMARK    4  A    between atoms: C_8  and  O_15 
REMARK    5  A    between atoms: O_15  and  C_9 
REMARK    6  A    between atoms: O_17  and  C_10 
ROOT
ATOM      1  C   UNL d   1       2.617  -2.879   0.000  0.00  0.00     0.128 C 
ENDROOT
BRANCH   1   2
ATOM      2  C   UNL d   1       3.204  -3.467   0.000  0.00  0.00     0.089 C 
BRANCH   2   3
ATOM      3  C   UNL d   1       4.000  -3.250   0.000  0.00  0.00     0.283 C 
ATOM      4  N   UNL d   1       4.579  -3.837   0.000  0.00  0.00    -0.183 NA
ATOM      5  O   UNL d   1       4.213  -2.454   0.000  0.00  0.00    -0.265 OA
BRANCH   4   6
ATOM      6  C   UNL d   1       5.379  -3.617   0.000  0.00  0.00     0.197 A 
ATOM      7  N   UNL d   1       5.675  -2.850   0.000  0.00  0.00    -0.219 NA
ATOM      8  C   UNL d   1       6.492  -2.892   0.000  0.00  0.00     0.108 A 
ATOM      9  C   UNL d   1       6.704  -3.692   0.000  0.00  0.00     0.059 A 
ATOM     10  S   UNL d   1       6.017  -4.142   0.000  0.00  0.00    -0.046 SA
ENDBRANCH   4   6
ENDBRANCH   2   3
ENDBRANCH   1   2
BRANCH   1  11
ATOM     11  O   UNL d   1       1.904  -3.292   0.000  0.00  0.00    -0.305 OA
BRANCH  11  12
ATOM     12  C   UNL d   1       1.192  -2.879   0.000  0.00  0.00     0.100 A 
ATOM     13  C   UNL d   1       0.475  -3.292   0.000  0.00  0.00     0.027 A 
ATOM     14  C   UNL d   1      -0.237  -2.879   0.000  0.00  0.00     0.026 A 
ATOM     15  C   UNL d   1      -0.237  -2.054   0.000  0.00  0.00     0.094 A 
ATOM     16  C   UNL d   1       0.475  -1.642   0.000  0.00  0.00     0.026 A 
ATOM     17  C   UNL d   1       1.192  -2.054   0.000  0.00  0.00     0.027 A 
BRANCH  15  18
ATOM     18  O   UNL d   1      -0.958  -1.642   0.000  0.00  0.00    -0.328 OA
ATOM     19  C   UNL d   1      -1.671  -2.054   0.000  0.00  0.00     0.181 C 
ENDBRANCH  15  18
ENDBRANCH  11  12
ENDBRANCH   1  11
TORSDOF 6
