REMARK  6 active torsions:
REMARK  status: ('A' for Active; 'I' for Inactive)
REMARK    1  A    between atoms: N_4  and  C_1 
REMARK       I    between atoms: C_7  and  N_4 
REMARK    2  A    between atoms: C_8  and  C_7 
REMARK    3  A    between atoms: C_11  and  C_8 
REMARK    4  A    between atoms: C_10  and  O_17 
REMARK    5  A    between atoms: O_17  and  C_11 
REMARK    6  A    between atoms: O_18  and  C_12 
ROOT
ATOM      1  C   UNL d   1       2.036   0.125   0.000  0.00  0.00     0.089 C 
ENDROOT
BRANCH   1   2
ATOM      2  C   UNL d   1       2.833   0.345   0.000  0.00  0.00     0.283 C 
ATOM      3  N   UNL d   1       3.415  -0.241   0.000  0.00  0.00    -0.186 NA
ATOM      4  O   UNL d   1       3.045   1.134   0.000  0.00  0.00    -0.265 OA
BRANCH   3   5
ATOM      5  C   UNL d   1       4.204  -0.029   0.000  0.00  0.00     0.194 A 
ATOM      6  N   UNL d   1       4.503   0.744   0.000  0.00  0.00    -0.107 NA
ATOM      7  O   UNL d   1       5.322   0.694   0.000  0.00  0.00    -0.210 OA
ATOM      8  C   UNL d   1       5.533  -0.091   0.000  0.00  0.00     0.128 A 
ATOM      9  C   UNL d   1       4.840  -0.548   0.000  0.00  0.00     0.068 A 
ATOM     10  C   UNL d   1       6.298  -0.391   0.000  0.00  0.00     0.029 C 
ENDBRANCH   3   5
ENDBRANCH   1   2
BRANCH   1  11
ATOM     11  C   UNL d   1       1.458   0.706   0.000  0.00  0.00     0.128 C 
BRANCH  11  12
ATOM     12  O   UNL d   1       0.740   0.295   0.000  0.00  0.00    -0.305 OA
BRANCH  12  13
ATOM     13  C   UNL d   1       0.029   0.706   0.000  0.00  0.00     0.100 A 
ATOM     14  C   UNL d   1       0.029   1.533   0.000  0.00  0.00     0.027 A 
ATOM     15  C   UNL d   1      -0.681   1.952   0.000  0.00  0.00     0.026 A 
ATOM     16  C   UNL d   1      -1.392   1.533   0.000  0.00  0.00     0.094 A 
ATOM     17  C   UNL d   1      -1.392   0.706   0.000  0.00  0.00     0.026 A 
ATOM     18  C   UNL d   1      -0.681   0.295   0.000  0.00  0.00     0.027 A 
BRANCH  16  19
ATOM     19  O   UNL d   1      -2.114   1.952   0.000  0.00  0.00    -0.328 OA
ATOM     20  C   UNL d   1      -2.825   1.533   0.000  0.00  0.00     0.181 C 
ENDBRANCH  16  19
ENDBRANCH  12  13
ENDBRANCH  11  12
ENDBRANCH   1  11
TORSDOF 6
