REMARK  4 active torsions:
REMARK  status: ('A' for Active; 'I' for Inactive)
REMARK    1  A    between atoms: C_2  and  N_1 
REMARK       I    between atoms: C_3  and  N_1 
REMARK    2  A    between atoms: C_6  and  C_3 
REMARK    3  A    between atoms: O_7  and  C_6 
REMARK    4  A    between atoms: C_9  and  O_7 
ROOT
ATOM      1  C   UNL d   1       1.354   0.787   0.000  0.00  0.00     0.158 C 
ATOM      2  C   UNL d   1       1.354  -0.029   0.000  0.00  0.00     0.032 C 
ENDROOT
BRANCH   1   3
ATOM      3  C   UNL d   1       2.067   1.200   0.000  0.00  0.00     0.304 C 
ATOM      4  N   UNL d   1       2.779   0.796   0.000  0.00  0.00    -0.181 NA
ATOM      5  O   UNL d   1       2.062   2.025   0.000  0.00  0.00    -0.263 OA
BRANCH   4   6
ATOM      6  C   UNL d   1       3.492   1.208   0.000  0.00  0.00     0.197 A 
ATOM      7  N   UNL d   1       3.575   2.033   0.000  0.00  0.00    -0.219 NA
ATOM      8  C   UNL d   1       4.379   2.208   0.000  0.00  0.00     0.108 A 
ATOM      9  C   UNL d   1       4.800   1.488   0.000  0.00  0.00     0.059 A 
ATOM     10  S   UNL d   1       4.250   0.875   0.000  0.00  0.00    -0.046 SA
ENDBRANCH   4   6
ENDBRANCH   1   3
BRANCH   1  11
ATOM     11  O   UNL d   1       0.637   1.196   0.000  0.00  0.00    -0.302 OA
BRANCH  11  12
ATOM     12  C   UNL d   1      -0.075   0.783   0.000  0.00  0.00     0.100 A 
ATOM     13  C   UNL d   1      -0.796   1.196   0.000  0.00  0.00     0.025 A 
ATOM     14  C   UNL d   1      -1.508   0.775   0.000  0.00  0.00     0.002 A 
ATOM     15  C   UNL d   1      -1.508  -0.050   0.000  0.00  0.00     0.000 A 
ATOM     16  C   UNL d   1      -0.796  -0.463   0.000  0.00  0.00     0.002 A 
ATOM     17  C   UNL d   1      -0.075  -0.050   0.000  0.00  0.00     0.025 A 
ENDBRANCH  11  12
ENDBRANCH   1  11
TORSDOF 4
