REMARK  4 active torsions:
REMARK  status: ('A' for Active; 'I' for Inactive)
REMARK    1  A    between atoms: C_6  and  C_1 
REMARK    2  A    between atoms: N_4  and  C_2 
REMARK       I    between atoms: C_3  and  N_4 
REMARK       I    between atoms: N_9  and  C_3 
REMARK    3  A    between atoms: C_15  and  N_9 
REMARK    4  A    between atoms: C_23  and  C_15 
ROOT
ATOM      1  C   UNL d   1      -3.130  -0.602   0.000  0.00  0.00     0.040 A 
ATOM      2  C   UNL d   1      -2.039  -0.054   0.000  0.00  0.00     0.109 A 
ATOM      3  C   UNL d   1      -2.558  -0.945   0.000  0.00  0.00     0.035 A 
ATOM      4  C   UNL d   1      -3.870  -0.769   0.000  0.00  0.00    -0.023 A 
ATOM      5  C   UNL d   1      -3.130   0.460   0.000  0.00  0.00     0.013 A 
ATOM      6  C   UNL d   1      -3.410  -0.054   0.000  0.00  0.00    -0.011 A 
ATOM      7  C   UNL d   1      -2.729   1.137   0.000  0.00  0.00     0.025 A 
ATOM      8  C   UNL d   1      -2.729  -0.451   0.000  0.00  0.00    -0.005 A 
ATOM      9  C   UNL d   1      -2.039   0.740   0.000  0.00  0.00     0.031 A 
ATOM     10  C   UNL d   1      -3.410   0.740   0.000  0.00  0.00    -0.027 A 
ENDROOT
BRANCH   2  11
ATOM     11  N   UNL d   1      -1.275   0.259   0.000  0.00  0.00    -0.217 NA
ATOM     12  C   UNL d   1      -0.623  -0.242   0.000  0.00  0.00     0.360 C 
ATOM     13  N   UNL d   1       0.142   0.063   0.000  0.00  0.00    -0.214 NA
ATOM     14  O   UNL d   1      -0.736  -1.066   0.000  0.00  0.00    -0.243 OA
BRANCH  13  15
ATOM     15  C   UNL d   1       0.802  -0.443   0.000  0.00  0.00     0.147 C 
ATOM     16  C   UNL d   1       0.213  -1.028   0.000  0.00  0.00     0.033 C 
ATOM     17  C   UNL d   1       1.383   0.146   0.000  0.00  0.00     0.033 C 
BRANCH  15  18
ATOM     18  C   UNL d   1       1.454  -0.953   0.000  0.00  0.00     0.229 C 
ATOM     19  O   UNL d   1       1.333  -1.772   0.000  0.00  0.00    -0.286 OA
ENDBRANCH  15  18
ENDBRANCH  13  15
ENDBRANCH   2  11
BRANCH   1  20
ATOM     20  C   UNL d   1      -2.892  -1.383   0.000  0.00  0.00    -0.019 A 
ATOM     21  C   UNL d   1      -3.456  -1.994   0.000  0.00  0.00    -0.004 A 
ATOM     22  C   UNL d   1      -3.218  -2.783   0.000  0.00  0.00    -0.000 A 
ATOM     23  C   UNL d   1      -2.407  -2.971   0.000  0.00  0.00    -0.000 A 
ATOM     24  C   UNL d   1      -1.851  -2.361   0.000  0.00  0.00    -0.000 A 
ATOM     25  C   UNL d   1      -2.165  -3.761   0.000  0.00  0.00    -0.000 C 
ATOM     26  C   UNL d   1      -2.090  -1.571   0.000  0.00  0.00    -0.004 A 
ENDBRANCH   1  20
TORSDOF 4
