REMARK  4 active torsions:
REMARK  status: ('A' for Active; 'I' for Inactive)
REMARK    1  A    between atoms: C_2  and  C_1 
REMARK       I    between atoms: N_9  and  C_2 
REMARK    2  A    between atoms: C_16  and  N_9 
REMARK    3  A    between atoms: C_13  and  C_16 
REMARK    4  A    between atoms: O_17  and  C_13 
ROOT
ATOM      1  C   UNL d   1       2.029  -0.931   0.000  0.00  0.00     0.073 A 
ATOM      2  C   UNL d   1       1.340   0.259   0.000  0.00  0.00     0.001 A 
ATOM      3  C   UNL d   1       0.931  -1.482   0.000  0.00  0.00     0.001 A 
ATOM      4  C   UNL d   1       0.655  -0.931   0.000  0.00  0.00     0.001 A 
ATOM      5  C   UNL d   1       1.507  -1.829   0.000  0.00  0.00     0.009 A 
ATOM      6  C   UNL d   1       2.029  -0.138   0.000  0.00  0.00     0.009 A 
ATOM      7  C   UNL d   1       1.340  -1.332   0.000  0.00  0.00     0.009 A 
ATOM      8  C   UNL d   1       0.192  -1.657   0.000  0.00  0.00     0.000 A 
ATOM      9  C   UNL d   1       0.931  -0.430   0.000  0.00  0.00     0.000 A 
ATOM     10  C   UNL d   1       0.655  -0.138   0.000  0.00  0.00     0.000 A 
ATOM     11  C   UNL d   1       0.175  -0.251   0.000  0.00  0.00     0.000 C 
ATOM     12  C   UNL d   1       1.181  -2.271   0.000  0.00  0.00     0.000 C 
ATOM     13  C   UNL d   1       1.557   1.065   0.000  0.00  0.00     0.000 C 
ENDROOT
BRANCH   1  14
ATOM     14  C   UNL d   1       2.797  -0.618   0.000  0.00  0.00     0.255 C 
ATOM     15  N   UNL d   1       3.457  -1.131   0.000  0.00  0.00    -0.205 NA
ATOM     16  O   UNL d   1       2.918   0.200   0.000  0.00  0.00    -0.270 OA
BRANCH  15  17
ATOM     17  C   UNL d   1       4.221  -0.818   0.000  0.00  0.00     0.170 C 
BRANCH  17  18
ATOM     18  C   UNL d   1       4.876  -1.319   0.000  0.00  0.00     0.316 C 
ATOM     19  O   UNL d   1       5.640  -1.006   0.000  0.00  0.00    -0.257 OA
BRANCH  18  20
ATOM     20  O   UNL d   1       4.763  -2.142   0.000  0.00  0.00    -0.295 OA
ATOM     21  C   UNL d   1       3.999  -2.455   0.000  0.00  0.00     0.185 C 
ENDBRANCH  18  20
ENDBRANCH  17  18
ENDBRANCH  15  17
ENDBRANCH   1  14
TORSDOF 4
