REMARK  5 active torsions:
REMARK  status: ('A' for Active; 'I' for Inactive)
REMARK    1  A    between atoms: C_9  and  N_2 
REMARK    2  A    between atoms: C_8  and  O_11 
REMARK    3  A    between atoms: C_12  and  C_9 
REMARK    4  A    between atoms: O_11  and  C_15 
REMARK    5  A    between atoms: C_15  and  C_12 
ROOT
ATOM      1  C   UNL d   1      -2.928   1.210   0.000  0.00  0.00     0.087 C 
ENDROOT
BRANCH   1   2
ATOM      2  N   UNL d   1      -3.340   0.493   0.000  0.00  0.00    -0.251 N 
ATOM      3  C   UNL d   1      -2.856  -0.180   0.000  0.00  0.00     0.378 A 
ATOM      4  O   UNL d   1      -3.328  -0.853   0.000  0.00  0.00    -0.258 OA
ATOM      5  O   UNL d   1      -2.026  -0.172   0.000  0.00  0.00    -0.237 OA
ATOM      6  C   UNL d   1      -4.129  -0.593   0.000  0.00  0.00     0.121 A 
ATOM      7  C   UNL d   1      -4.842  -1.009   0.000  0.00  0.00     0.026 A 
ATOM      8  C   UNL d   1      -4.129   0.228   0.000  0.00  0.00     0.092 A 
ATOM      9  C   UNL d   1      -5.559  -0.593   0.000  0.00  0.00     0.002 A 
ATOM     10  C   UNL d   1      -5.559   0.228   0.000  0.00  0.00     0.002 A 
ATOM     11  C   UNL d   1      -4.842   0.645   0.000  0.00  0.00     0.020 A 
ENDBRANCH   1   2
BRANCH   1  12
ATOM     12  C   UNL d   1      -2.111   1.210   0.000  0.00  0.00     0.046 C 
BRANCH  12  13
ATOM     13  C   UNL d   1      -1.702   1.930   0.000  0.00  0.00     0.124 C 
BRANCH  13  14
ATOM     14  O   UNL d   1      -0.877   1.930   0.000  0.00  0.00    -0.304 OA
BRANCH  14  15
ATOM     15  C   UNL d   1      -0.465   2.651   0.000  0.00  0.00     0.111 A 
ATOM     16  C   UNL d   1      -0.877   3.364   0.000  0.00  0.00     0.080 A 
ATOM     17 CL   UNL d   1      -1.702   3.372   0.000  0.00  0.00    -0.080 Cl
ATOM     18  C   UNL d   1      -0.465   4.077   0.000  0.00  0.00     0.013 A 
ATOM     19  C   UNL d   1       0.352   4.077   0.000  0.00  0.00     0.001 A 
ATOM     20  C   UNL d   1       0.773   3.364   0.000  0.00  0.00     0.002 A 
ATOM     21  C   UNL d   1       0.360   2.651   0.000  0.00  0.00     0.026 A 
ENDBRANCH  14  15
ENDBRANCH  13  14
ENDBRANCH  12  13
ENDBRANCH   1  12
TORSDOF 5
