REMARK  5 active torsions:
REMARK  status: ('A' for Active; 'I' for Inactive)
REMARK    1  A    between atoms: S_2  and  C_1 
REMARK    2  A    between atoms: C_8  and  S_2 
REMARK    3  A    between atoms: C_23  and  N_7 
REMARK    4  A    between atoms: N_13  and  C_10 
REMARK    5  A    between atoms: C_31  and  C_23 
ROOT
ATOM      1  C   UNL d   1      -0.488  -0.893   0.000  0.00  0.00     0.144 A 
ATOM      2  C   UNL d   1      -1.925  -0.893   0.000  0.00  0.00     0.058 A 
ATOM      3  C   UNL d   1      -1.211  -0.480   0.000  0.00  0.00     0.209 A 
ATOM      4  C   UNL d   1      -0.488  -1.720   0.000  0.00  0.00     0.095 A 
ATOM      5  C   UNL d   1      -1.925  -1.720   0.000  0.00  0.00     0.069 A 
ATOM      6  N   UNL d   1      -1.211  -2.134   0.000  0.00  0.00    -0.303 N 
ATOM      7  C   UNL d   1      -2.639  -2.134   0.000  0.00  0.00     0.037 A 
ATOM      8  C   UNL d   1      -3.353  -1.720   0.000  0.00  0.00     0.093 A 
ATOM      9  C   UNL d   1      -2.639  -0.480   0.000  0.00  0.00     0.036 A 
ATOM     10  C   UNL d   1      -3.353  -0.893   0.000  0.00  0.00     0.156 A 
ATOM     11  O   UNL d   1      -1.211   0.346   0.000  0.00  0.00    -0.286 OA
ATOM     12  F   UNL d   1      -4.079  -0.480   0.000  0.00  0.00    -0.203 F 
ENDROOT
BRANCH   1  13
ATOM     13  S   UNL d   1       0.230  -0.480   0.000  0.00  0.00     0.214 S 
ATOM     14  O   UNL d   1       0.643  -1.207   0.000  0.00  0.00    -0.217 OA
ATOM     15  O   UNL d   1      -0.184   0.246   0.000  0.00  0.00    -0.217 OA
BRANCH  13  16
ATOM     16  C   UNL d   1       0.956  -0.067   0.000  0.00  0.00     0.088 A 
ATOM     17  C   UNL d   1       1.670  -0.480   0.000  0.00  0.00     0.011 A 
ATOM     18  C   UNL d   1       2.384  -0.067   0.000  0.00  0.00     0.001 A 
ATOM     19  C   UNL d   1       1.670  -1.307   0.000  0.00  0.00     0.001 C 
ATOM     20  C   UNL d   1       2.384   0.764   0.000  0.00  0.00     0.000 A 
ATOM     21  C   UNL d   1       1.670   1.173   0.000  0.00  0.00     0.001 A 
ATOM     22  C   UNL d   1       0.956   0.764   0.000  0.00  0.00     0.011 A 
ATOM     23  C   UNL d   1       1.666   2.000   0.000  0.00  0.00     0.000 C 
ENDBRANCH  13  16
ENDBRANCH   1  13
BRANCH   6  24
ATOM     24  C   UNL d   1      -1.211  -2.960   0.000  0.00  0.00     0.080 C 
BRANCH  24  25
ATOM     25  C   UNL d   1      -0.497  -3.374   0.000  0.00  0.00     0.019 C 
ATOM     26  C   UNL d   1      -0.497  -4.200   0.000  0.00  0.00     0.002 C 
ENDBRANCH  24  25
ENDBRANCH   6  24
BRANCH   8  27
ATOM     27  N   UNL d   1      -4.071  -2.134   0.000  0.00  0.00    -0.298 N 
ATOM     28  C   UNL d   1      -4.067  -2.960   0.000  0.00  0.00     0.107 A 
ATOM     29  C   UNL d   1      -4.781  -3.374   0.000  0.00  0.00     0.142 A 
ATOM     30  O   UNL d   1      -5.499  -2.948   0.000  0.00  0.00    -0.300 OA
ATOM     31  C   UNL d   1      -5.495  -2.121   0.000  0.00  0.00     0.142 A 
ATOM     32  C   UNL d   1      -4.781  -1.720   0.000  0.00  0.00     0.107 A 
ENDBRANCH   8  27
TORSDOF 5
