REMARK  3 active torsions:
REMARK  status: ('A' for Active; 'I' for Inactive)
REMARK    1  A    between atoms: C_9  and  C_4 
REMARK    2  A    between atoms: C_10  and  C_7 
REMARK    3  A    between atoms: C_11  and  C_10 
ROOT
ATOM      1  C   UNL d   1       1.942  -0.625   0.000  0.00  0.00     0.179 A 
ATOM      2  N   UNL d   1       1.529   0.087   0.000  0.00  0.00    -0.282 N 
ATOM      3  N   UNL d   1       2.754  -0.454   0.000  0.00  0.00    -0.221 NA
ATOM      4  C   UNL d   1       2.842   0.362   0.000  0.00  0.00     0.101 A 
ATOM      5  S   UNL d   1       1.392  -1.238   0.000  0.00  0.00    -0.048 SA
ATOM      6  C   UNL d   1       2.087   0.700   0.000  0.00  0.00     0.101 A 
ATOM      7  C   UNL d   1       0.642  -0.904   0.000  0.00  0.00     0.050 A 
ATOM      8  C   UNL d   1       0.729  -0.079   0.000  0.00  0.00     0.089 A 
ENDROOT
BRANCH   7   9
ATOM      9  C   UNL d   1      -0.071  -1.317   0.000  0.00  0.00     0.008 C 
BRANCH   9  10
ATOM     10  C   UNL d   1      -0.783  -0.904   0.000  0.00  0.00     0.001 A 
ATOM     11  C   UNL d   1      -1.500  -1.317   0.000  0.00  0.00     0.002 A 
ATOM     12  C   UNL d   1      -2.212  -0.904   0.000  0.00  0.00     0.030 A 
ATOM     13  C   UNL d   1      -2.212  -0.079   0.000  0.00  0.00     0.140 A 
ATOM     14  C   UNL d   1      -1.500   0.333   0.000  0.00  0.00     0.030 A 
ATOM     15  F   UNL d   1      -2.933   0.333   0.000  0.00  0.00    -0.204 F 
ATOM     16  C   UNL d   1      -0.783  -0.079   0.000  0.00  0.00     0.002 A 
ENDBRANCH   9  10
ENDBRANCH   7   9
BRANCH   4  17
ATOM     17  C   UNL d   1       3.550   0.775   0.000  0.00  0.00     0.019 A 
ATOM     18  C   UNL d   1       3.550   1.596   0.000  0.00  0.00     0.002 A 
ATOM     19  C   UNL d   1       4.263   2.008   0.000  0.00  0.00     0.000 A 
ATOM     20  C   UNL d   1       4.979   1.596   0.000  0.00  0.00     0.000 A 
ATOM     21  C   UNL d   1       4.979   0.771   0.000  0.00  0.00     0.000 A 
ATOM     22  C   UNL d   1       4.267   0.358   0.000  0.00  0.00     0.002 A 
ENDBRANCH   4  17
TORSDOF 3
