REMARK  3 active torsions:
REMARK  status: ('A' for Active; 'I' for Inactive)
REMARK    1  A    between atoms: N_2  and  S_1 
REMARK    2  A    between atoms: N_3  and  S_1 
REMARK    3  A    between atoms: C_6  and  N_3 
ROOT
ATOM      1  S   UNL d   1       9.275  -2.729  -0.113  0.00  0.00     0.351 S 
ATOM      2  O   UNL d   1       9.688  -3.442  -0.113  0.00  0.00    -0.180 OA
ATOM      3  O   UNL d   1       8.863  -2.017  -0.113  0.00  0.00    -0.180 OA
ENDROOT
BRANCH   1   4
ATOM      4  N   UNL d   1       9.988  -2.317  -0.113  0.00  0.00    -0.215 N 
ATOM      5  C   UNL d   1      10.700  -2.729   0.000  0.00  0.00     0.093 C 
ATOM      6  C   UNL d   1      11.404  -2.317   0.000  0.00  0.00     0.020 C 
ATOM      7  C   UNL d   1      11.412  -1.500   0.000  0.00  0.00     0.003 C 
ATOM      8  C   UNL d   1      10.700  -1.087   0.000  0.00  0.00     0.020 C 
ATOM      9  C   UNL d   1       9.979  -1.492   0.000  0.00  0.00     0.093 C 
ENDBRANCH   1   4
BRANCH   1  10
ATOM     10  N   UNL d   1       8.529  -3.079  -0.113  0.00  0.00    -0.144 NA
BRANCH  10  11
ATOM     11  C   UNL d   1       8.454  -3.917  -0.117  0.00  0.00     0.095 A 
ATOM     12  C   UNL d   1       7.713  -4.267  -0.263  0.00  0.00     0.020 A 
ATOM     13  C   UNL d   1       7.642  -5.092  -0.279  0.00  0.00     0.002 A 
ATOM     14  C   UNL d   1       8.312  -5.567  -0.142  0.00  0.00     0.000 A 
ATOM     15  C   UNL d   1       9.062  -5.229   0.004  0.00  0.00     0.002 A 
ATOM     16  C   UNL d   1       8.229  -6.392  -0.142  0.00  0.00     0.000 C 
ATOM     17  C   UNL d   1       9.129  -4.392   0.013  0.00  0.00     0.020 A 
ENDBRANCH  10  11
ENDBRANCH   1  10
TORSDOF 3
