REMARK  3 active torsions:
REMARK  status: ('A' for Active; 'I' for Inactive)
REMARK    1  A    between atoms: C_6  and  N_1 
REMARK    2  A    between atoms: C_7  and  C_6 
REMARK    3  A    between atoms: C_8  and  C_7 
ROOT
ATOM      1  N   UNL d   1       2.836   0.008   0.000  0.00  0.00    -0.211 N 
ATOM      2  N   UNL d   1       1.909   0.973   0.000  0.00  0.00    -0.206 NA
ATOM      3  C   UNL d   1       2.723   0.823   0.000  0.00  0.00     0.166 A 
ATOM      4  N   UNL d   1       2.084  -0.355   0.000  0.00  0.00    -0.144 NA
ATOM      5  C   UNL d   1       1.508   0.246   0.000  0.00  0.00     0.184 A 
ATOM      6  C   UNL d   1       3.312   1.399   0.000  0.00  0.00     0.042 C 
ATOM      7  C   UNL d   1       0.693   0.134   0.000  0.00  0.00     0.044 C 
ENDROOT
BRANCH   1   8
ATOM      8  C   UNL d   1       3.563  -0.393   0.000  0.00  0.00     0.091 C 
ATOM      9  C   UNL d   1       4.264   0.046   0.000  0.00  0.00     0.021 C 
BRANCH   8  10
ATOM     10  C   UNL d   1       3.588  -1.215   0.000  0.00  0.00     0.089 C 
BRANCH  10  11
ATOM     11  C   UNL d   1       4.314  -1.608   0.000  0.00  0.00     0.213 C 
ATOM     12  O   UNL d   1       5.016  -1.178   0.000  0.00  0.00    -0.644 OA
ATOM     13  O   UNL d   1       4.335  -2.435   0.000  0.00  0.00    -0.644 OA
ENDBRANCH  10  11
ENDBRANCH   8  10
ENDBRANCH   1   8
TORSDOF 3
