REMARK  2 active torsions:
REMARK  status: ('A' for Active; 'I' for Inactive)
REMARK       I    between atoms: N_2  and  C_1 
REMARK       I    between atoms: N_3  and  C_1 
REMARK    1  A    between atoms: C_12  and  N_3 
REMARK    2  A    between atoms: C_5  and  N_4 
ROOT
ATOM      1  C   UNL d   1       1.804  -2.454   0.000  0.00  0.00     0.339 C 
ATOM      2  N   UNL d   1       2.629  -2.454   0.000  0.00  0.00    -0.254 N 
ATOM      3  N   UNL d   1       1.387  -3.167   0.000  0.00  0.00    -0.257 N 
ATOM      4  N   UNL d   1       4.292  -2.454   0.000  0.00  0.00    -0.286 N 
ATOM      5  O   UNL d   1       1.400  -1.729   0.000  0.00  0.00    -0.245 OA
ATOM      6  C   UNL d   1       3.050  -1.742   0.000  0.00  0.00     0.104 A 
ATOM      7  C   UNL d   1       3.050  -3.175   0.000  0.00  0.00     0.104 A 
ATOM      8  C   UNL d   1       3.875  -1.742   0.000  0.00  0.00     0.101 A 
ATOM      9  C   UNL d   1       3.879  -3.175   0.000  0.00  0.00     0.101 A 
ATOM     10  C   UNL d   1       1.792  -3.879   0.000  0.00  0.00     0.104 C 
ENDROOT
BRANCH   3  11
ATOM     11  C   UNL d   1       0.554  -3.163   0.000  0.00  0.00     0.068 A 
ATOM     12  C   UNL d   1       0.142  -2.442   0.000  0.00  0.00     0.018 A 
ATOM     13  C   UNL d   1      -0.683  -2.450   0.000  0.00  0.00     0.002 A 
ATOM     14  C   UNL d   1      -1.096  -3.167   0.000  0.00  0.00     0.000 A 
ATOM     15  C   UNL d   1      -0.671  -3.879   0.000  0.00  0.00     0.002 A 
ATOM     16  C   UNL d   1       0.154  -3.875   0.000  0.00  0.00     0.018 A 
ENDBRANCH   3  11
BRANCH   4  17
ATOM     17  C   UNL d   1       5.117  -2.454   0.000  0.00  0.00     0.148 A 
ATOM     18  N   UNL d   1       5.517  -3.167   0.000  0.00  0.00    -0.227 NA
ATOM     19  C   UNL d   1       6.338  -3.167   0.000  0.00  0.00     0.101 A 
ATOM     20  C   UNL d   1       6.750  -2.467   0.000  0.00  0.00     0.021 A 
ATOM     21  C   UNL d   1       6.338  -1.754   0.000  0.00  0.00     0.005 A 
ATOM     22  C   UNL d   1       5.525  -1.754   0.000  0.00  0.00     0.037 A 
ENDBRANCH   4  17
TORSDOF 2
