REMARK  0 active torsions:
REMARK  status: ('A' for Active; 'I' for Inactive)
REMARK       I    between atoms: N_3  and  C_1 
REMARK       I    between atoms: N_5  and  C_1 
REMARK       I    between atoms: C_2  and  N_4 
REMARK       I    between atoms: N_6  and  C_2 
ROOT
ATOM      1  C   UNL d   1       4.067 -14.179   0.000  0.00  0.00     0.339 C 
ATOM      2  C   UNL d   1       7.367 -14.179   0.000  0.00  0.00     0.340 C 
ATOM      3  N   UNL d   1       4.904 -14.175   0.000  0.00  0.00    -0.254 N 
ATOM      4  N   UNL d   1       6.542 -14.175   0.000  0.00  0.00    -0.254 N 
ATOM      5  N   UNL d   1       3.650 -13.467   0.000  0.00  0.00    -0.258 N 
ATOM      6  N   UNL d   1       7.775 -14.892   0.000  0.00  0.00    -0.253 N 
ATOM      7  O   UNL d   1       3.663 -14.892   0.000  0.00  0.00    -0.245 OA
ATOM      8  O   UNL d   1       7.787 -13.467   0.000  0.00  0.00    -0.245 OA
ATOM      9  C   UNL d   1       6.129 -13.442   0.000  0.00  0.00     0.104 A 
ATOM     10  C   UNL d   1       6.129 -14.879   0.000  0.00  0.00     0.104 A 
ATOM     11  C   UNL d   1       5.304 -14.879   0.000  0.00  0.00     0.104 A 
ATOM     12  C   UNL d   1       5.304 -13.442   0.000  0.00  0.00     0.104 A 
ATOM     13  O   UNL d   1       8.579 -16.329   0.000  0.00  0.00    -0.300 OA
ATOM     14  C   UNL d   1       7.354 -15.604   0.000  0.00  0.00     0.111 A 
ATOM     15  C   UNL d   1       8.600 -14.892   0.000  0.00  0.00     0.111 A 
ATOM     16  C   UNL d   1       2.829 -13.529   0.000  0.00  0.00     0.085 A 
ATOM     17  C   UNL d   1       4.112 -12.779   0.000  0.00  0.00     0.085 A 
ATOM     18  C   UNL d   1       9.004 -15.617   0.000  0.00  0.00     0.142 A 
ATOM     19  C   UNL d   1       7.754 -16.317   0.000  0.00  0.00     0.142 A 
ATOM     20  C   UNL d   1       2.267 -12.929   0.000  0.00  0.00     0.019 A 
ATOM     21  C   UNL d   1       3.862 -11.992   0.000  0.00  0.00     0.019 A 
ATOM     22  C   UNL d   1       2.379 -12.117   0.000  0.00  0.00     0.002 A 
ATOM     23  C   UNL d   1       3.092 -11.700   0.000  0.00  0.00     0.002 A 
ENDROOT
TORSDOF 0
