REMARK  4 active torsions:
REMARK  status: ('A' for Active; 'I' for Inactive)
REMARK    1  A    between atoms: N_2  and  S_1 
REMARK    2  A    between atoms: N_3  and  S_1 
REMARK    3  A    between atoms: C_8  and  N_3 
REMARK    4  A    between atoms: C_6  and  C_8 
ROOT
ATOM      1  S   UNL d   1       4.554 -20.292  -0.113  0.00  0.00     0.351 S 
ATOM      2  O   UNL d   1       4.517 -19.467  -0.113  0.00  0.00    -0.180 OA
ATOM      3  O   UNL d   1       4.592 -21.113  -0.113  0.00  0.00    -0.180 OA
ENDROOT
BRANCH   1   4
ATOM      4  N   UNL d   1       3.729 -20.325  -0.113  0.00  0.00    -0.211 N 
ATOM      5  C   UNL d   1       3.300 -19.629   0.000  0.00  0.00     0.120 C 
ATOM      6  C   UNL d   1       2.479 -19.663   0.000  0.00  0.00     0.142 C 
ATOM      7  O   UNL d   1       2.092 -20.392   0.000  0.00  0.00    -0.300 OA
ATOM      8  C   UNL d   1       2.529 -21.087   0.000  0.00  0.00     0.142 C 
ATOM      9  C   UNL d   1       3.354 -21.054   0.000  0.00  0.00     0.120 C 
ENDBRANCH   1   4
BRANCH   1  10
ATOM     10  N   UNL d   1       5.375 -20.325  -0.113  0.00  0.00    -0.144 NA
BRANCH  10  11
ATOM     11  C   UNL d   1       5.829 -19.625  -0.117  0.00  0.00     0.121 C 
BRANCH  11  12
ATOM     12  C   UNL d   1       6.654 -19.654  -0.263  0.00  0.00     0.185 C 
ATOM     13  O   UNL d   1       7.112 -20.342   0.000  0.00  0.00    -0.321 OA
ATOM     14  C   UNL d   1       7.904 -20.117   0.000  0.00  0.00     0.117 C 
ATOM     15  C   UNL d   1       7.942 -19.292   0.000  0.00  0.00     0.025 C 
ATOM     16  C   UNL d   1       7.167 -19.004   0.000  0.00  0.00     0.012 C 
ENDBRANCH  11  12
ENDBRANCH  10  11
ENDBRANCH   1  10
TORSDOF 4
