REMARK  3 active torsions:
REMARK  status: ('A' for Active; 'I' for Inactive)
REMARK    1  A    between atoms: C_3  and  S_1 
REMARK    2  A    between atoms: N_4  and  S_1 
REMARK       I    between atoms: C_2  and  N_5 
REMARK       I    between atoms: N_6  and  C_2 
REMARK    3  A    between atoms: C_13  and  N_6 
ROOT
ATOM      1  C   UNL d   1       3.992  -3.192   0.000  0.00  0.00     0.339 C 
ATOM      2  N   UNL d   1       6.475  -3.200   0.000  0.00  0.00    -0.226 N 
ATOM      3  N   UNL d   1       4.817  -3.200   0.000  0.00  0.00    -0.254 N 
ATOM      4  N   UNL d   1       3.567  -3.904   0.000  0.00  0.00    -0.257 N 
ATOM      5  C   UNL d   1       6.067  -3.917   0.000  0.00  0.00     0.111 A 
ATOM      6  C   UNL d   1       6.054  -2.479   0.000  0.00  0.00     0.111 A 
ATOM      7  O   UNL d   1       3.579  -2.467   0.000  0.00  0.00    -0.245 OA
ATOM      8  C   UNL d   1       5.229  -3.917   0.000  0.00  0.00     0.104 A 
ATOM      9  C   UNL d   1       5.229  -2.479   0.000  0.00  0.00     0.104 A 
ATOM     10  C   UNL d   1       3.979  -4.617   0.000  0.00  0.00     0.104 C 
ENDROOT
BRANCH   2  11
ATOM     11  S   UNL d   1       7.292  -3.200   0.000  0.00  0.00     0.271 S 
ATOM     12  O   UNL d   1       7.292  -2.375   0.000  0.00  0.00    -0.200 OA
ATOM     13  O   UNL d   1       7.292  -4.025   0.000  0.00  0.00    -0.200 OA
BRANCH  11  14
ATOM     14  C   UNL d   1       8.117  -3.200   0.000  0.00  0.00     0.104 A 
ATOM     15  C   UNL d   1       8.529  -2.492   0.000  0.00  0.00     0.012 A 
ATOM     16  C   UNL d   1       9.342  -2.492   0.000  0.00  0.00     0.001 A 
ATOM     17  C   UNL d   1       8.113  -1.779   0.000  0.00  0.00     0.001 C 
ATOM     18  C   UNL d   1       9.754  -3.204   0.000  0.00  0.00     0.000 A 
ATOM     19  C   UNL d   1       9.342  -3.913   0.000  0.00  0.00     0.001 A 
ATOM     20  C   UNL d   1      10.579  -3.204   0.000  0.00  0.00     0.000 C 
ATOM     21  C   UNL d   1       8.525  -3.913   0.000  0.00  0.00     0.012 A 
ATOM     22  C   UNL d   1       8.104  -4.625   0.000  0.00  0.00     0.001 C 
ENDBRANCH  11  14
ENDBRANCH   2  11
BRANCH   4  23
ATOM     23  C   UNL d   1       2.737  -3.892   0.000  0.00  0.00     0.068 A 
ATOM     24  C   UNL d   1       2.317  -3.179   0.000  0.00  0.00     0.018 A 
ATOM     25  C   UNL d   1       1.500  -3.179   0.000  0.00  0.00     0.002 A 
ATOM     26  C   UNL d   1       1.087  -3.900   0.000  0.00  0.00     0.000 A 
ATOM     27  C   UNL d   1       1.504  -4.617   0.000  0.00  0.00     0.002 A 
ATOM     28  C   UNL d   1       0.263  -3.892   0.000  0.00  0.00     0.000 C 
ATOM     29  C   UNL d   1       2.329  -4.604   0.000  0.00  0.00     0.018 A 
ENDBRANCH   4  23
TORSDOF 3
