REMARK  3 active torsions:
REMARK  status: ('A' for Active; 'I' for Inactive)
REMARK    1  A    between atoms: N_2  and  S_1 
REMARK    2  A    between atoms: N_3  and  S_1 
REMARK    3  A    between atoms: C_4  and  N_2 
ROOT
ATOM      1  S   UNL d   1       2.612  -0.817  -0.113  0.00  0.00     0.351 S 
ATOM      2  O   UNL d   1       3.025  -1.529  -0.113  0.00  0.00    -0.180 OA
ATOM      3  O   UNL d   1       2.192  -0.104  -0.113  0.00  0.00    -0.180 OA
ENDROOT
BRANCH   1   4
ATOM      4  N   UNL d   1       1.867  -1.167  -0.113  0.00  0.00    -0.144 NA
BRANCH   4   5
ATOM      5  C   UNL d   1       1.792  -2.000  -0.117  0.00  0.00     0.095 A 
ATOM      6  C   UNL d   1       1.050  -2.354  -0.263  0.00  0.00     0.018 A 
ATOM      7  C   UNL d   1       0.979  -3.179  -0.279  0.00  0.00     0.002 A 
ATOM      8  C   UNL d   1       0.367  -1.879  -0.263  0.00  0.00     0.002 C 
ATOM      9  C   UNL d   1       1.650  -3.654  -0.142  0.00  0.00     0.000 A 
ATOM     10  C   UNL d   1       2.400  -3.312   0.004  0.00  0.00     0.002 A 
ATOM     11  C   UNL d   1       1.567  -4.475  -0.142  0.00  0.00     0.000 C 
ATOM     12  C   UNL d   1       2.467  -2.479   0.013  0.00  0.00     0.020 A 
ENDBRANCH   4   5
ENDBRANCH   1   4
BRANCH   1  13
ATOM     13  N   UNL d   1       3.325  -0.404  -0.113  0.00  0.00    -0.215 N 
ATOM     14  C   UNL d   1       4.037  -0.817   0.000  0.00  0.00     0.093 C 
ATOM     15  C   UNL d   1       4.742  -0.404   0.000  0.00  0.00     0.020 C 
ATOM     16  C   UNL d   1       4.750   0.421   0.000  0.00  0.00     0.003 C 
ATOM     17  C   UNL d   1       4.037   0.833   0.000  0.00  0.00     0.020 C 
ATOM     18  C   UNL d   1       3.317   0.421   0.000  0.00  0.00     0.093 C 
ENDBRANCH   1  13
TORSDOF 3
