REMARK  3 active torsions:
REMARK  status: ('A' for Active; 'I' for Inactive)
REMARK    1  A    between atoms: N_3  and  S_1 
REMARK    2  A    between atoms: C_5  and  S_1 
REMARK       I    between atoms: C_2  and  N_4 
REMARK       I    between atoms: N_6  and  C_2 
REMARK    3  A    between atoms: C_13  and  N_6 
ROOT
ATOM      1  C   UNL d   1       4.029  -0.892   0.000  0.00  0.00     0.339 C 
ATOM      2  N   UNL d   1       6.517  -0.892   0.000  0.00  0.00    -0.226 N 
ATOM      3  N   UNL d   1       4.854  -0.892   0.000  0.00  0.00    -0.254 N 
ATOM      4  N   UNL d   1       3.612  -1.604   0.000  0.00  0.00    -0.257 N 
ATOM      5  C   UNL d   1       6.104  -1.613   0.000  0.00  0.00     0.111 A 
ATOM      6  C   UNL d   1       6.100  -0.179   0.000  0.00  0.00     0.111 A 
ATOM      7  O   UNL d   1       3.625  -0.167   0.000  0.00  0.00    -0.245 OA
ATOM      8  C   UNL d   1       5.275  -1.613   0.000  0.00  0.00     0.104 A 
ATOM      9  C   UNL d   1       5.275  -0.179   0.000  0.00  0.00     0.104 A 
ATOM     10  C   UNL d   1       4.017  -2.317   0.000  0.00  0.00     0.104 C 
ENDROOT
BRANCH   2  11
ATOM     11  S   UNL d   1       7.338  -0.892   0.000  0.00  0.00     0.271 S 
ATOM     12  O   UNL d   1       7.329  -0.067   0.000  0.00  0.00    -0.200 OA
ATOM     13  O   UNL d   1       7.329  -1.717   0.000  0.00  0.00    -0.200 OA
BRANCH  11  14
ATOM     14  C   UNL d   1       8.162  -0.892   0.000  0.00  0.00     0.104 A 
ATOM     15  C   UNL d   1       8.567  -1.604   0.000  0.00  0.00     0.013 A 
ATOM     16  C   UNL d   1       9.379  -1.604   0.000  0.00  0.00     0.001 A 
ATOM     17  C   UNL d   1       9.792  -2.317   0.000  0.00  0.00     0.000 C 
ATOM     18  C   UNL d   1       9.792  -0.904   0.000  0.00  0.00     0.000 A 
ATOM     19  C   UNL d   1       9.379  -0.192   0.000  0.00  0.00     0.001 A 
ATOM     20  C   UNL d   1      10.617  -0.904   0.000  0.00  0.00     0.000 C 
ATOM     21  C   UNL d   1       8.567  -0.192   0.000  0.00  0.00     0.013 A 
ENDBRANCH  11  14
ENDBRANCH   2  11
BRANCH   4  22
ATOM     22  C   UNL d   1       2.779  -1.592   0.000  0.00  0.00     0.068 A 
ATOM     23  C   UNL d   1       2.367  -0.875   0.000  0.00  0.00     0.018 A 
ATOM     24  C   UNL d   1       1.542  -0.879   0.000  0.00  0.00     0.002 A 
ATOM     25  C   UNL d   1       1.129  -1.592   0.000  0.00  0.00     0.000 A 
ATOM     26  C   UNL d   1       1.550  -2.312   0.000  0.00  0.00     0.002 A 
ATOM     27  C   UNL d   1       0.304  -1.592   0.000  0.00  0.00     0.000 C 
ATOM     28  C   UNL d   1       2.375  -2.304   0.000  0.00  0.00     0.018 A 
ENDBRANCH   4  22
TORSDOF 3
