REMARK  4 active torsions:
REMARK  status: ('A' for Active; 'I' for Inactive)
REMARK    1  A    between atoms: N_2  and  S_1 
REMARK    2  A    between atoms: N_3  and  S_1 
REMARK    3  A    between atoms: C_8  and  N_3 
REMARK    4  A    between atoms: C_7  and  C_6 
ROOT
ATOM      1  N   UNL d   1       4.504  -2.804  -0.113  0.00  0.00    -0.144 NA
ENDROOT
BRANCH   1   2
ATOM      2  S   UNL d   1       5.250  -2.454  -0.113  0.00  0.00     0.351 S 
ATOM      3  O   UNL d   1       5.662  -3.167  -0.113  0.00  0.00    -0.180 OA
ATOM      4  O   UNL d   1       4.838  -1.742  -0.113  0.00  0.00    -0.180 OA
BRANCH   2   5
ATOM      5  N   UNL d   1       5.963  -2.042  -0.113  0.00  0.00    -0.215 N 
ATOM      6  C   UNL d   1       6.675  -2.454   0.000  0.00  0.00     0.093 C 
ATOM      7  C   UNL d   1       7.379  -2.042   0.000  0.00  0.00     0.020 C 
ATOM      8  C   UNL d   1       7.388  -1.225   0.000  0.00  0.00     0.003 C 
ATOM      9  C   UNL d   1       6.675  -0.812   0.000  0.00  0.00     0.020 C 
ATOM     10  C   UNL d   1       5.954  -1.217   0.000  0.00  0.00     0.093 C 
ENDBRANCH   2   5
ENDBRANCH   1   2
BRANCH   1  11
ATOM     11  C   UNL d   1       4.429  -3.642  -0.117  0.00  0.00     0.095 A 
ATOM     12  C   UNL d   1       3.688  -3.992  -0.263  0.00  0.00     0.023 A 
ATOM     13  C   UNL d   1       3.617  -4.817  -0.279  0.00  0.00     0.041 A 
ATOM     14  C   UNL d   1       4.287  -5.292  -0.142  0.00  0.00     0.003 A 
ATOM     15  C   UNL d   1       5.037  -4.954   0.004  0.00  0.00     0.002 A 
ATOM     16  C   UNL d   1       5.104  -4.117   0.013  0.00  0.00     0.020 A 
BRANCH  13  17
ATOM     17  C   UNL d   1       2.867  -5.167  -0.279  0.00  0.00     0.196 C 
ATOM     18  O   UNL d   1       2.800  -5.987  -0.279  0.00  0.00    -0.287 OA
ATOM     19  C   UNL d   1       2.192  -4.692  -0.279  0.00  0.00     0.045 C 
ENDBRANCH  13  17
ENDBRANCH   1  11
TORSDOF 4
