REMARK  5 active torsions:
REMARK  status: ('A' for Active; 'I' for Inactive)
REMARK       I    between atoms: N_3  and  C_1 
REMARK    1  A    between atoms: C_4  and  C_1 
REMARK    2  A    between atoms: C_2  and  C_6 
REMARK    3  A    between atoms: O_5  and  C_2 
REMARK    4  A    between atoms: C_11  and  N_3 
REMARK    5  A    between atoms: C_14  and  O_5 
ROOT
ATOM      1  C   UNL d   1       3.829  -2.812   0.000  0.00  0.00     0.064 A 
ATOM      2  C   UNL d   1       3.112  -2.400   0.000  0.00  0.00     0.008 A 
ATOM      3  C   UNL d   1       3.829  -3.642   0.000  0.00  0.00     0.008 A 
ATOM      4  C   UNL d   1       2.400  -3.642   0.000  0.00  0.00     0.135 A 
ATOM      5  C   UNL d   1       2.400  -2.812   0.000  0.00  0.00     0.032 A 
ATOM      6  C   UNL d   1       3.112  -4.054   0.000  0.00  0.00     0.032 A 
ENDROOT
BRANCH   1   7
ATOM      7  C   UNL d   1       4.542  -2.392   0.000  0.00  0.00     0.300 C 
ATOM      8  O   UNL d   1       5.254  -2.804   0.000  0.00  0.00    -0.259 OA
BRANCH   7   9
ATOM      9  O   UNL d   1       4.537  -1.567   0.000  0.00  0.00    -0.273 OA
BRANCH   9  10
ATOM     10  C   UNL d   1       5.250  -1.154   0.000  0.00  0.00     0.103 A 
ATOM     11  C   UNL d   1       5.963  -1.567   0.000  0.00  0.00     0.025 A 
ATOM     12  C   UNL d   1       6.667  -1.154   0.000  0.00  0.00     0.002 A 
ATOM     13  C   UNL d   1       6.675  -0.329   0.000  0.00  0.00     0.000 A 
ATOM     14  C   UNL d   1       5.954   0.083   0.000  0.00  0.00     0.002 A 
ATOM     15  C   UNL d   1       5.242  -0.329   0.000  0.00  0.00     0.025 A 
ENDBRANCH   9  10
ENDBRANCH   7   9
ENDBRANCH   1   7
BRANCH   4  16
ATOM     16  N   UNL d   1       1.679  -4.054   0.000  0.00  0.00    -0.368 NA
ATOM     17  C   UNL d   1       0.967  -4.463   0.000  0.00  0.00     0.303 C 
ATOM     18  O   UNL d   1       0.254  -4.050   0.000  0.00  0.00    -0.256 OA
BRANCH  17  19
ATOM     19  C   UNL d   1       0.967  -5.287   0.000  0.00  0.00     0.085 C 
ATOM     20  C   UNL d   1       1.679  -5.704   0.000  0.00  0.00     0.011 C 
ATOM     21  C   UNL d   1       0.167  -5.075   0.000  0.00  0.00     0.011 C 
ATOM     22  C   UNL d   1       0.254  -5.700   0.000  0.00  0.00     0.011 C 
ENDBRANCH  17  19
ENDBRANCH   4  16
TORSDOF 5
