REMARK  5 active torsions:
REMARK  status: ('A' for Active; 'I' for Inactive)
REMARK    1  A    between atoms: C_3  and  C_1 
REMARK    2  A    between atoms: C_6  and  C_1 
REMARK    3  A    between atoms: C_2  and  C_3 
REMARK       I    between atoms: N_4  and  C_2 
REMARK    4  A    between atoms: C_12  and  N_4 
REMARK    5  A    between atoms: N_7  and  C_5 
ROOT
ATOM      1  C   UNL d   1       2.679   0.013   0.000  0.00  0.00     0.328 C 
ATOM      2  N   UNL d   1       3.392  -0.400   0.000  0.00  0.00    -0.365 NA
ATOM      3  O   UNL d   1       2.679   0.838   0.000  0.00  0.00    -0.251 OA
ENDROOT
BRANCH   1   4
ATOM      4  C   UNL d   1       1.967  -0.400   0.000  0.00  0.00     0.076 C 
BRANCH   4   5
ATOM      5  C   UNL d   1       1.254   0.013   0.000  0.00  0.00     0.007 C 
BRANCH   5   6
ATOM      6  C   UNL d   1       0.537  -0.400   0.000  0.00  0.00     0.011 A 
ATOM      7  C   UNL d   1       0.537  -1.229   0.000  0.00  0.00     0.058 A 
ATOM      8 CL   UNL d   1       1.250  -1.642   0.000  0.00  0.00    -0.082 Cl
ATOM      9  C   UNL d   1      -0.183  -1.642   0.000  0.00  0.00     0.011 A 
ATOM     10  C   UNL d   1      -0.896  -1.225   0.000  0.00  0.00     0.001 A 
ATOM     11  C   UNL d   1      -0.887  -0.400   0.000  0.00  0.00     0.000 A 
ATOM     12  C   UNL d   1      -0.175   0.013   0.000  0.00  0.00     0.001 A 
ENDBRANCH   5   6
ENDBRANCH   4   5
ENDBRANCH   1   4
BRANCH   2  13
ATOM     13  C   UNL d   1       4.104  -0.812   0.000  0.00  0.00     0.135 A 
ATOM     14  C   UNL d   1       4.817  -0.392   0.000  0.00  0.00     0.034 A 
ATOM     15  C   UNL d   1       5.529  -0.804   0.000  0.00  0.00     0.020 A 
ATOM     16  C   UNL d   1       5.529  -1.637   0.000  0.00  0.00     0.064 A 
ATOM     17  C   UNL d   1       4.817  -2.050   0.000  0.00  0.00     0.020 A 
ATOM     18  C   UNL d   1       4.104  -1.637   0.000  0.00  0.00     0.034 A 
BRANCH  16  19
ATOM     19  N   UNL d   1       6.250  -2.050   0.000  0.00  0.00    -0.301 N 
ATOM     20  C   UNL d   1       6.963  -1.629   0.000  0.00  0.00     0.100 C 
ATOM     21  C   UNL d   1       6.250  -2.875   0.000  0.00  0.00     0.100 C 
ENDBRANCH  16  19
ENDBRANCH   2  13
TORSDOF 5
