REMARK  9 active torsions:
REMARK  status: ('A' for Active; 'I' for Inactive)
REMARK       I    between atoms: N_2  and  C_1 
REMARK    1  A    between atoms: C_16  and  C_1 
REMARK    2  A    between atoms: C_8  and  N_2 
REMARK    3  A    between atoms: N_4  and  C_3 
REMARK    4  A    between atoms: C_17  and  N_4 
REMARK    5  A    between atoms: C_18  and  N_4 
REMARK    6  A    between atoms: C_12  and  O_14 
REMARK    7  A    between atoms: O_14  and  C_21 
REMARK    8  A    between atoms: C_23  and  C_16 
REMARK    9  A    between atoms: C_21  and  C_23 
ROOT
ATOM      1  C   UNL d   1       8.472 -11.829   0.000  0.00  0.00     0.328 C 
ATOM      2  N   UNL d   1       9.198 -12.242   0.000  0.00  0.00    -0.365 NA
ATOM      3  O   UNL d   1       8.472 -11.010   0.000  0.00  0.00    -0.251 OA
ENDROOT
BRANCH   1   4
ATOM      4  C   UNL d   1       7.766 -12.242   0.000  0.00  0.00     0.078 C 
BRANCH   4   5
ATOM      5  C   UNL d   1       7.052 -11.841   0.000  0.00  0.00     0.033 C 
BRANCH   5   6
ATOM      6  C   UNL d   1       6.330 -12.255   0.000  0.00  0.00     0.123 C 
BRANCH   6   7
ATOM      7  O   UNL d   1       5.616 -11.841   0.000  0.00  0.00    -0.305 OA
BRANCH   7   8
ATOM      8  C   UNL d   1       4.910 -12.263   0.000  0.00  0.00     0.100 A 
ATOM      9  C   UNL d   1       4.175 -11.841   0.000  0.00  0.00     0.025 A 
ATOM     10  C   UNL d   1       3.461 -12.275   0.000  0.00  0.00     0.002 A 
ATOM     11  C   UNL d   1       2.756 -11.854   0.000  0.00  0.00     0.000 C 
ATOM     12  C   UNL d   1       3.461 -13.094   0.000  0.00  0.00     0.000 A 
ATOM     13  C   UNL d   1       4.175 -13.507   0.000  0.00  0.00     0.002 A 
ATOM     14  C   UNL d   1       4.910 -13.094   0.000  0.00  0.00     0.025 A 
ENDBRANCH   7   8
ENDBRANCH   6   7
ENDBRANCH   5   6
ENDBRANCH   4   5
ENDBRANCH   1   4
BRANCH   2  15
ATOM     15  C   UNL d   1       9.908 -12.655   0.000  0.00  0.00     0.135 A 
ATOM     16  C   UNL d   1       9.921 -13.482   0.000  0.00  0.00     0.034 A 
ATOM     17  C   UNL d   1      10.626 -13.883   0.000  0.00  0.00     0.020 A 
ATOM     18  C   UNL d   1      11.340 -13.478   0.000  0.00  0.00     0.064 A 
ATOM     19  C   UNL d   1      11.340 -12.643   0.000  0.00  0.00     0.020 A 
ATOM     20  C   UNL d   1      10.626 -12.229   0.000  0.00  0.00     0.034 A 
BRANCH  18  21
ATOM     21  N   UNL d   1      12.062 -13.883   0.000  0.00  0.00    -0.304 N 
BRANCH  21  22
ATOM     22  C   UNL d   1      12.062 -14.718   0.000  0.00  0.00     0.080 C 
ATOM     23  C   UNL d   1      12.776 -15.131   0.000  0.00  0.00     0.021 C 
ENDBRANCH  21  22
BRANCH  21  24
ATOM     24  C   UNL d   1      12.776 -13.478   0.000  0.00  0.00     0.080 C 
ATOM     25  C   UNL d   1      13.482 -13.895   0.000  0.00  0.00     0.021 C 
ENDBRANCH  21  24
ENDBRANCH  18  21
ENDBRANCH   2  15
TORSDOF 9
