REMARK  5 active torsions:
REMARK  status: ('A' for Active; 'I' for Inactive)
REMARK       I    between atoms: C_2  and  N_1 
REMARK    1  A    between atoms: C_14  and  C_2 
REMARK    2  A    between atoms: C_8  and  O_11 
REMARK    3  A    between atoms: O_11  and  C_17 
REMARK    4  A    between atoms: C_18  and  C_14 
REMARK    5  A    between atoms: C_17  and  C_18 
ROOT
ATOM      1  C   UNL d   1       4.782   2.153   0.000  0.00  0.00     0.123 C 
ENDROOT
BRANCH   1   2
ATOM      2  O   UNL d   1       4.068   1.741   0.000  0.00  0.00    -0.305 OA
BRANCH   2   3
ATOM      3  C   UNL d   1       3.358   2.153   0.000  0.00  0.00     0.100 A 
ATOM      4  C   UNL d   1       2.643   1.741   0.000  0.00  0.00     0.025 A 
ATOM      5  C   UNL d   1       1.929   2.153   0.000  0.00  0.00     0.013 A 
ATOM      6  C   UNL d   1       1.214   1.741   0.000  0.00  0.00     0.001 C 
ATOM      7  C   UNL d   1       1.929   2.978   0.000  0.00  0.00     0.058 A 
ATOM      8  C   UNL d   1       2.643   3.390   0.000  0.00  0.00     0.013 A 
ATOM      9 CL   UNL d   1       1.214   3.390   0.000  0.00  0.00    -0.082 Cl
ATOM     10  C   UNL d   1       3.358   2.978   0.000  0.00  0.00     0.025 A 
ATOM     11  C   UNL d   1       2.643   4.214   0.000  0.00  0.00     0.001 C 
ENDBRANCH   2   3
ENDBRANCH   1   2
BRANCH   1  12
ATOM     12  C   UNL d   1       5.497   1.741   0.000  0.00  0.00     0.032 C 
BRANCH  12  13
ATOM     13  C   UNL d   1       6.212   2.153   0.000  0.00  0.00     0.063 C 
BRANCH  13  14
ATOM     14  C   UNL d   1       6.926   1.741   0.000  0.00  0.00     0.265 C 
ATOM     15  N   UNL d   1       7.641   2.153   0.000  0.00  0.00    -0.272 N 
ATOM     16  C   UNL d   1       8.355   1.741   0.000  0.00  0.00     0.083 A 
ATOM     17  C   UNL d   1       7.641   2.978   0.000  0.00  0.00     0.083 A 
ATOM     18  C   UNL d   1       9.070   2.153   0.000  0.00  0.00     0.019 A 
ATOM     19  C   UNL d   1       9.070   2.978   0.000  0.00  0.00     0.003 A 
ATOM     20  C   UNL d   1       8.355   3.390   0.000  0.00  0.00     0.019 A 
ATOM     21  O   UNL d   1       6.926   0.916   0.000  0.00  0.00    -0.267 OA
ENDBRANCH  13  14
ENDBRANCH  12  13
ENDBRANCH   1  12
TORSDOF 5
