REMARK  6 active torsions:
REMARK  status: ('A' for Active; 'I' for Inactive)
REMARK       I    between atoms: N_2  and  C_1 
REMARK    1  A    between atoms: C_14  and  C_1 
REMARK    2  A    between atoms: C_6  and  N_2 
REMARK    3  A    between atoms: C_4  and  O_13 
REMARK    4  A    between atoms: O_13  and  C_18 
REMARK    5  A    between atoms: C_19  and  C_14 
REMARK    6  A    between atoms: C_18  and  C_19 
ROOT
ATOM      1  C   UNL d   1       0.229   0.262   0.000  0.00  0.00     0.078 C 
ENDROOT
BRANCH   1   2
ATOM      2  C   UNL d   1       0.941   0.675   0.000  0.00  0.00     0.328 C 
ATOM      3  N   UNL d   1       1.666   0.262   0.000  0.00  0.00    -0.365 NA
ATOM      4  O   UNL d   1       0.941   1.499   0.000  0.00  0.00    -0.251 OA
BRANCH   3   5
ATOM      5  C   UNL d   1       2.378  -0.142   0.000  0.00  0.00     0.135 A 
ATOM      6  C   UNL d   1       2.378  -0.979   0.000  0.00  0.00     0.033 A 
ATOM      7  C   UNL d   1       3.103  -1.379   0.000  0.00  0.00     0.009 A 
ATOM      8  C   UNL d   1       3.815  -0.962   0.000  0.00  0.00     0.035 A 
ATOM      9  C   UNL d   1       3.815  -0.137   0.000  0.00  0.00     0.009 A 
ATOM     10 BR   UNL d   1       4.527  -1.379   0.000  0.00  0.00    -0.049 Br
ATOM     11  C   UNL d   1       3.090   0.275   0.000  0.00  0.00     0.033 A 
ENDBRANCH   3   5
ENDBRANCH   1   2
BRANCH   1  12
ATOM     12  C   UNL d   1      -0.483   0.662   0.000  0.00  0.00     0.033 C 
BRANCH  12  13
ATOM     13  C   UNL d   1      -1.195   0.258   0.000  0.00  0.00     0.123 C 
BRANCH  13  14
ATOM     14  O   UNL d   1      -1.907   0.662   0.000  0.00  0.00    -0.305 OA
BRANCH  14  15
ATOM     15  C   UNL d   1      -2.619   0.250   0.000  0.00  0.00     0.100 A 
ATOM     16  C   UNL d   1      -3.344   0.662   0.000  0.00  0.00     0.023 A 
ATOM     17  C   UNL d   1      -3.344   1.483   0.000  0.00  0.00     0.002 C 
ATOM     18  C   UNL d   1      -4.056   0.246   0.000  0.00  0.00     0.002 A 
ATOM     19  C   UNL d   1      -4.056  -0.579   0.000  0.00  0.00     0.000 A 
ATOM     20  C   UNL d   1      -3.344  -1.000   0.000  0.00  0.00     0.002 A 
ATOM     21  C   UNL d   1      -2.619  -0.579   0.000  0.00  0.00     0.025 A 
ENDBRANCH  14  15
ENDBRANCH  13  14
ENDBRANCH  12  13
ENDBRANCH   1  12
TORSDOF 6
