REMARK  2 active torsions:
REMARK  status: ('A' for Active; 'I' for Inactive)
REMARK       I    between atoms: N_2  and  C_1 
REMARK    1  A    between atoms: C_5  and  C_1 
REMARK    2  A    between atoms: C_7  and  N_2 
ROOT
ATOM      1  C   UNL d   1       0.912  -2.850   0.000  0.00  0.00     0.125 A 
ATOM      2  C   UNL d   1       0.200  -3.267   0.000  0.00  0.00     0.059 A 
ATOM      3  C   UNL d   1       0.917  -2.025   0.000  0.00  0.00     0.123 A 
ATOM      4  C   UNL d   1      -0.512  -2.854   0.000  0.00  0.00     0.137 A 
ATOM      5  O   UNL d   1       1.629  -3.267   0.000  0.00  0.00    -0.301 OA
ATOM      6  O   UNL d   1       1.629  -1.604   0.000  0.00  0.00    -0.301 OA
ATOM      7  C   UNL d   1       0.200  -1.613   0.000  0.00  0.00     0.029 A 
ATOM      8  C   UNL d   1      -0.512  -2.025   0.000  0.00  0.00     0.034 A 
ATOM      9  C   UNL d   1       2.342  -2.854   0.000  0.00  0.00     0.149 A 
ATOM     10  C   UNL d   1       2.342  -2.025   0.000  0.00  0.00     0.149 A 
ENDROOT
BRANCH   4  11
ATOM     11  N   UNL d   1      -1.233  -3.267   0.000  0.00  0.00    -0.365 NA
ATOM     12  C   UNL d   1      -1.938  -3.675   0.000  0.00  0.00     0.328 C 
ATOM     13  O   UNL d   1      -2.646  -3.267   0.000  0.00  0.00    -0.251 OA
BRANCH  12  14
ATOM     14  C   UNL d   1      -1.933  -4.492   0.000  0.00  0.00     0.070 A 
ATOM     15  C   UNL d   1      -1.221  -4.904   0.000  0.00  0.00     0.006 A 
ATOM     16  C   UNL d   1      -1.221  -5.729   0.000  0.00  0.00     0.000 A 
ATOM     17  C   UNL d   1      -1.933  -6.150   0.000  0.00  0.00     0.000 A 
ATOM     18  C   UNL d   1      -2.646  -5.742   0.000  0.00  0.00     0.000 A 
ATOM     19  C   UNL d   1      -1.933  -6.975   0.000  0.00  0.00     0.000 C 
ATOM     20  C   UNL d   1      -2.646  -4.912   0.000  0.00  0.00     0.006 A 
ENDBRANCH  12  14
ENDBRANCH   4  11
TORSDOF 2
