REMARK  3 active torsions:
REMARK  status: ('A' for Active; 'I' for Inactive)
REMARK       I    between atoms: N_3  and  C_1 
REMARK    1  A    between atoms: C_6  and  C_1 
REMARK    2  A    between atoms: N_2  and  C_4 
REMARK    3  A    between atoms: C_9  and  N_3 
ROOT
ATOM      1  C   UNL d   1       4.734  -5.608   0.000  0.00  0.00     0.064 A 
ATOM      2  C   UNL d   1       4.019  -5.185   0.000  0.00  0.00     0.019 A 
ATOM      3  C   UNL d   1       4.734  -6.440   0.000  0.00  0.00     0.019 A 
ATOM      4  C   UNL d   1       3.312  -6.440   0.000  0.00  0.00     0.085 A 
ATOM      5  C   UNL d   1       3.312  -5.608   0.000  0.00  0.00     0.021 A 
ATOM      6  C   UNL d   1       4.019  -6.854   0.000  0.00  0.00     0.021 A 
ENDROOT
BRANCH   4   7
ATOM      7  N   UNL d   1       2.588  -6.854   0.000  0.00  0.00    -0.208 NA
ATOM      8  C   UNL d   1       1.873  -6.440   0.000  0.00  0.00     0.279 C 
ATOM      9  O   UNL d   1       1.873  -5.608   0.000  0.00  0.00    -0.265 OA
BRANCH   8  10
ATOM     10  C   UNL d   1       1.154  -6.854   0.000  0.00  0.00     0.058 A 
ATOM     11  C   UNL d   1       0.439  -6.427   0.000  0.00  0.00     0.005 A 
ATOM     12  C   UNL d   1      -0.272  -6.841   0.000  0.00  0.00     0.000 A 
ATOM     13  C   UNL d   1      -0.272  -7.678   0.000  0.00  0.00     0.000 A 
ATOM     14  C   UNL d   1       0.439  -8.083   0.000  0.00  0.00     0.000 A 
ATOM     15  C   UNL d   1       1.154  -7.678   0.000  0.00  0.00     0.005 A 
ENDBRANCH   8  10
ENDBRANCH   4   7
BRANCH   1  16
ATOM     16  N   UNL d   1       5.457  -5.185   0.000  0.00  0.00    -0.304 N 
ATOM     17  C   UNL d   1       5.449  -4.366   0.000  0.00  0.00     0.080 A 
ATOM     18  C   UNL d   1       6.172  -3.943   0.000  0.00  0.00     0.019 A 
ATOM     19  C   UNL d   1       6.879  -4.366   0.000  0.00  0.00     0.003 A 
ATOM     20  C   UNL d   1       6.879  -5.185   0.000  0.00  0.00     0.019 A 
ATOM     21  C   UNL d   1       6.172  -5.599   0.000  0.00  0.00     0.080 A 
ENDBRANCH   1  16
TORSDOF 3
