REMARK  6 active torsions:
REMARK  status: ('A' for Active; 'I' for Inactive)
REMARK       I    between atoms: C_2  and  N_1 
REMARK    1  A    between atoms: C_15  and  C_2 
REMARK    2  A    between atoms: C_3  and  C_4 
REMARK    3  A    between atoms: C_9  and  O_14 
REMARK    4  A    between atoms: O_14  and  C_21 
REMARK    5  A    between atoms: C_22  and  C_15 
REMARK    6  A    between atoms: C_21  and  C_22 
ROOT
ATOM      1  O   UNL d   1      -0.675   0.737   0.000  0.00  0.00    -0.305 OA
ENDROOT
BRANCH   1   2
ATOM      2  C   UNL d   1      -1.383   0.321   0.000  0.00  0.00     0.100 A 
ATOM      3  C   UNL d   1      -2.107   0.725   0.000  0.00  0.00     0.024 A 
ATOM      4  C   UNL d   1      -2.819   0.321   0.000  0.00  0.00    -0.002 A 
ATOM      5  C   UNL d   1      -2.819  -0.516   0.000  0.00  0.00    -0.023 A 
ATOM      6  C   UNL d   1      -2.107  -0.924   0.000  0.00  0.00    -0.002 A 
ATOM      7  C   UNL d   1      -1.383  -0.516   0.000  0.00  0.00     0.024 A 
BRANCH   5   8
ATOM      8  C   UNL d   1      -3.532  -0.924   0.000  0.00  0.00     0.019 C 
ATOM      9  C   UNL d   1      -4.244  -0.516   0.000  0.00  0.00     0.004 C 
ATOM     10  C   UNL d   1      -3.532  -1.753   0.000  0.00  0.00     0.004 C 
ATOM     11  C   UNL d   1      -3.744  -0.125   0.000  0.00  0.00     0.004 C 
ENDBRANCH   5   8
ENDBRANCH   1   2
BRANCH   1  12
ATOM     12  C   UNL d   1       0.042   0.321   0.000  0.00  0.00     0.123 C 
BRANCH  12  13
ATOM     13  C   UNL d   1       0.754   0.737   0.000  0.00  0.00     0.032 C 
BRANCH  13  14
ATOM     14  C   UNL d   1       1.466   0.325   0.000  0.00  0.00     0.063 C 
BRANCH  14  15
ATOM     15  C   UNL d   1       2.178   0.745   0.000  0.00  0.00     0.265 C 
ATOM     16  N   UNL d   1       2.899   0.337   0.000  0.00  0.00    -0.268 N 
ATOM     17  C   UNL d   1       3.615   0.745   0.000  0.00  0.00     0.110 A 
ATOM     18  C   UNL d   1       2.899  -0.500   0.000  0.00  0.00     0.110 A 
ATOM     19  C   UNL d   1       4.323   0.337   0.000  0.00  0.00     0.142 A 
ATOM     20  O   UNL d   1       4.323  -0.500   0.000  0.00  0.00    -0.300 OA
ATOM     21  C   UNL d   1       3.615  -0.900   0.000  0.00  0.00     0.142 A 
ATOM     22  O   UNL d   1       2.178   1.574   0.000  0.00  0.00    -0.267 OA
ENDBRANCH  14  15
ENDBRANCH  13  14
ENDBRANCH  12  13
ENDBRANCH   1  12
TORSDOF 6
