REMARK  1 active torsions:
REMARK  status: ('A' for Active; 'I' for Inactive)
REMARK    1  A    between atoms: C_5  and  C_1 
ROOT
ATOM      1  C   UNL d   1       0.964  -0.038   0.000  0.00  0.00     0.164 A 
ATOM      2  O   UNL d   1       0.458  -0.771   0.000  0.00  0.00    -0.301 OA
ATOM      3  C   UNL d   1       0.458   0.594   0.000  0.00  0.00     0.033 A 
ATOM      4  C   UNL d   1      -0.313   0.343   0.000  0.00  0.00     0.025 A 
ATOM      5  C   UNL d   1      -0.313  -0.496   0.000  0.00  0.00     0.100 A 
ATOM      6  C   UNL d   1      -1.028   0.763   0.000  0.00  0.00     0.009 A 
ATOM      7  C   UNL d   1      -1.028  -0.900   0.000  0.00  0.00     0.025 A 
ATOM      8  C   UNL d   1      -1.741   0.343   0.000  0.00  0.00     0.035 A 
ATOM      9  C   UNL d   1      -1.741  -0.496   0.000  0.00  0.00     0.009 A 
ATOM     10 BR   UNL d   1      -2.458   0.763   0.000  0.00  0.00    -0.049 Br
ENDROOT
BRANCH   1  11
ATOM     11  C   UNL d   1       1.785   0.040   0.000  0.00  0.00     0.235 C 
ATOM     12  O   UNL d   1       2.144   0.787   0.000  0.00  0.00    -0.642 OA
ATOM     13  O   UNL d   1       2.291  -0.621   0.000  0.00  0.00    -0.642 OA
ENDBRANCH   1  11
TORSDOF 1
