REMARK  1 active torsions:
REMARK  status: ('A' for Active; 'I' for Inactive)
REMARK    1  A    between atoms: C_4  and  C_1 
ROOT
ATOM      1  C   UNL d   1       0.671  -0.002   0.000  0.00  0.00     0.164 A 
ATOM      2  O   UNL d   1       0.188  -0.671   0.000  0.00  0.00    -0.301 OA
ATOM      3  C   UNL d   1       0.188   0.664   0.000  0.00  0.00     0.033 A 
ATOM      4  C   UNL d   1      -0.597  -0.416   0.000  0.00  0.00     0.100 A 
ATOM      5  C   UNL d   1      -0.597   0.413   0.000  0.00  0.00     0.025 A 
ATOM      6  C   UNL d   1      -1.311  -0.825   0.000  0.00  0.00     0.025 A 
ATOM      7  C   UNL d   1      -1.311   0.828   0.000  0.00  0.00     0.002 A 
ATOM      8  C   UNL d   1      -2.034   0.413   0.000  0.00  0.00     0.000 A 
ATOM      9  C   UNL d   1      -2.034  -0.412   0.000  0.00  0.00     0.002 A 
ENDROOT
BRANCH   1  10
ATOM     10  C   UNL d   1       1.492  -0.011   0.000  0.00  0.00     0.235 C 
ATOM     11  O   UNL d   1       1.906   0.712   0.000  0.00  0.00    -0.642 OA
ATOM     12  O   UNL d   1       1.906  -0.725   0.000  0.00  0.00    -0.642 OA
ENDBRANCH   1  10
TORSDOF 1
