REMARK  4 active torsions:
REMARK  status: ('A' for Active; 'I' for Inactive)
REMARK       I    between atoms: N_2  and  C_1 
REMARK    1  A    between atoms: C_5  and  C_1 
REMARK    2  A    between atoms: C_8  and  N_2 
REMARK    3  A    between atoms: O_9  and  C_5 
REMARK    4  A    between atoms: C_11  and  O_9 
ROOT
ATOM      1  C   UNL d   1       1.047   1.403   0.000  0.00  0.00     0.290 C 
ATOM      2  N   UNL d   1       1.762   0.992   0.000  0.00  0.00    -0.270 N 
ATOM      3  O   UNL d   1       1.047   2.232   0.000  0.00  0.00    -0.264 OA
ATOM      4  C   UNL d   1       2.483   1.417   0.000  0.00  0.00     0.102 C 
ENDROOT
BRANCH   1   5
ATOM      5  C   UNL d   1       0.337   0.992   0.000  0.00  0.00     0.184 C 
BRANCH   5   6
ATOM      6  O   UNL d   1       0.337   0.163   0.000  0.00  0.00    -0.300 OA
BRANCH   6   7
ATOM      7  C   UNL d   1      -0.381  -0.261   0.000  0.00  0.00     0.100 A 
ATOM      8  C   UNL d   1      -0.381  -1.088   0.000  0.00  0.00     0.025 A 
ATOM      9  C   UNL d   1      -1.090  -1.501   0.000  0.00  0.00     0.013 A 
ATOM     10  C   UNL d   1      -1.090  -2.319   0.000  0.00  0.00     0.001 C 
ATOM     11  C   UNL d   1      -1.803  -1.088   0.000  0.00  0.00     0.058 A 
ATOM     12  C   UNL d   1      -1.803  -0.264   0.000  0.00  0.00     0.013 A 
ATOM     13 CL   UNL d   1      -2.512  -1.501   0.000  0.00  0.00    -0.082 Cl
ATOM     14  C   UNL d   1      -1.090   0.152   0.000  0.00  0.00     0.026 A 
ENDBRANCH   6   7
ENDBRANCH   5   6
ENDBRANCH   1   5
BRANCH   2  15
ATOM     15  C   UNL d   1       1.762   0.177   0.000  0.00  0.00     0.067 A 
ATOM     16  C   UNL d   1       2.491  -0.228   0.000  0.00  0.00     0.018 A 
ATOM     17  C   UNL d   1       2.491  -1.047   0.000  0.00  0.00     0.002 A 
ATOM     18  C   UNL d   1       1.773  -1.471   0.000  0.00  0.00     0.000 A 
ATOM     19  C   UNL d   1       1.047  -1.077   0.000  0.00  0.00     0.002 A 
ATOM     20  C   UNL d   1       1.047  -0.239   0.000  0.00  0.00     0.018 A 
ENDBRANCH   2  15
TORSDOF 4
