REMARK  8 active torsions:
REMARK  status: ('A' for Active; 'I' for Inactive)
REMARK    1  A    between atoms: N_6  and  C_1 
REMARK    2  A    between atoms: N_2  and  C_3 
REMARK       I    between atoms: C_4  and  N_2 
REMARK    3  A    between atoms: C_3  and  N_6 
REMARK    4  A    between atoms: C_10  and  C_4 
REMARK    5  A    between atoms: C_9  and  C_7 
REMARK    6  A    between atoms: C_12  and  C_9 
REMARK    7  A    between atoms: O_17  and  C_12 
REMARK    8  A    between atoms: C_21  and  O_17 
ROOT
ATOM      1  C   UNL d   1      -0.429  -0.102   0.000  0.00  0.00     0.225 C 
ATOM      2  S   UNL d   1      -0.030   0.621   0.000  0.00  0.00    -0.037 SA
ENDROOT
BRANCH   1   3
ATOM      3  N   UNL d   1      -1.286  -0.124   0.000  0.00  0.00    -0.179 NA
ATOM      4  C   UNL d   1      -1.712   0.598   0.000  0.00  0.00     0.281 C 
ATOM      5  O   UNL d   1      -1.286   1.339   0.000  0.00  0.00    -0.265 OA
BRANCH   4   6
ATOM      6  C   UNL d   1      -2.524   0.621   0.000  0.00  0.00     0.058 A 
ATOM      7  C   UNL d   1      -2.930   1.317   0.000  0.00  0.00     0.005 A 
ATOM      8  C   UNL d   1      -2.513   2.027   0.000  0.00  0.00     0.000 C 
ATOM      9  C   UNL d   1      -3.743   1.317   0.000  0.00  0.00     0.000 A 
ATOM     10  C   UNL d   1      -4.160   0.594   0.000  0.00  0.00     0.000 A 
ATOM     11  C   UNL d   1      -3.769  -0.139   0.000  0.00  0.00     0.000 A 
ATOM     12  C   UNL d   1      -2.930  -0.139   0.000  0.00  0.00     0.005 A 
ENDBRANCH   4   6
ENDBRANCH   1   3
BRANCH   1  13
ATOM     13  N   UNL d   1      -0.030  -0.824   0.000  0.00  0.00    -0.192 NA
BRANCH  13  14
ATOM     14  C   UNL d   1       0.805  -0.805   0.000  0.00  0.00     0.196 A 
ATOM     15  N   UNL d   1       1.369  -1.426   0.000  0.00  0.00    -0.220 NA
ATOM     16  C   UNL d   1       2.110  -1.095   0.000  0.00  0.00     0.095 A 
ATOM     17  C   UNL d   1       2.035  -0.252   0.000  0.00  0.00     0.058 A 
ATOM     18  S   UNL d   1       1.223  -0.094   0.000  0.00  0.00    -0.046 SA
BRANCH  16  19
ATOM     19  C   UNL d   1       2.833  -1.493   0.000  0.00  0.00     0.088 C 
BRANCH  19  20
ATOM     20  C   UNL d   1       3.543  -1.095   0.000  0.00  0.00     0.302 C 
ATOM     21  O   UNL d   1       4.258  -1.493   0.000  0.00  0.00    -0.259 OA
BRANCH  20  22
ATOM     22  O   UNL d   1       3.555  -0.263   0.000  0.00  0.00    -0.271 OA
BRANCH  22  23
ATOM     23  C   UNL d   1       2.791   0.143   0.000  0.00  0.00     0.126 C 
ATOM     24  C   UNL d   1       2.791   0.854   0.000  0.00  0.00     0.029 C 
ENDBRANCH  22  23
ENDBRANCH  20  22
ENDBRANCH  19  20
ENDBRANCH  16  19
ENDBRANCH  13  14
ENDBRANCH   1  13
TORSDOF 8
