REMARK  5 active torsions:
REMARK  status: ('A' for Active; 'I' for Inactive)
REMARK       I    between atoms: C_3  and  N_1 
REMARK    1  A    between atoms: C_12  and  C_3 
REMARK    2  A    between atoms: C_7  and  O_10 
REMARK    3  A    between atoms: O_10  and  C_21 
REMARK    4  A    between atoms: C_22  and  C_12 
REMARK    5  A    between atoms: C_21  and  C_22 
ROOT
ATOM      1  N   UNL d   1       6.793   1.699   0.000  0.00  0.00    -0.273 N 
ATOM      2  C   UNL d   1       7.508   2.112   0.000  0.00  0.00     0.067 A 
ATOM      3  C   UNL d   1       6.079   2.112   0.000  0.00  0.00     0.265 C 
ATOM      4  C   UNL d   1       8.223   1.699   0.000  0.00  0.00     0.016 A 
ATOM      5  O   UNL d   1       6.079   2.936   0.000  0.00  0.00    -0.267 OA
ATOM      6  C   UNL d   1       6.793   0.875   0.000  0.00  0.00     0.083 A 
ATOM      7  C   UNL d   1       7.508   2.936   0.000  0.00  0.00     0.018 A 
ATOM      8  C   UNL d   1       7.508   0.463   0.000  0.00  0.00     0.019 A 
ATOM      9  C   UNL d   1       8.223   0.875   0.000  0.00  0.00     0.003 A 
ATOM     10  C   UNL d   1       8.937   2.112   0.000  0.00  0.00     0.001 A 
ATOM     11  C   UNL d   1       8.223   3.349   0.000  0.00  0.00     0.002 A 
ATOM     12  C   UNL d   1       8.937   2.936   0.000  0.00  0.00     0.000 A 
ENDROOT
BRANCH   3  13
ATOM     13  C   UNL d   1       5.364   1.699   0.000  0.00  0.00     0.063 C 
BRANCH  13  14
ATOM     14  C   UNL d   1       4.649   2.112   0.000  0.00  0.00     0.032 C 
BRANCH  14  15
ATOM     15  C   UNL d   1       3.935   1.699   0.000  0.00  0.00     0.123 C 
BRANCH  15  16
ATOM     16  O   UNL d   1       3.220   2.112   0.000  0.00  0.00    -0.305 OA
BRANCH  16  17
ATOM     17  C   UNL d   1       2.506   1.699   0.000  0.00  0.00     0.100 A 
ATOM     18  C   UNL d   1       1.791   2.112   0.000  0.00  0.00     0.023 A 
ATOM     19  C   UNL d   1       1.077   1.699   0.000  0.00  0.00     0.002 A 
ATOM     20  C   UNL d   1       1.791   2.936   0.000  0.00  0.00     0.002 C 
ATOM     21  C   UNL d   1       0.371   2.112   0.000  0.00  0.00     0.000 C 
ATOM     22  C   UNL d   1       1.077   0.875   0.000  0.00  0.00     0.000 A 
ATOM     23  C   UNL d   1       1.791   0.463   0.000  0.00  0.00     0.002 A 
ATOM     24  C   UNL d   1       2.506   0.875   0.000  0.00  0.00     0.025 A 
ENDBRANCH  16  17
ENDBRANCH  15  16
ENDBRANCH  14  15
ENDBRANCH  13  14
ENDBRANCH   3  13
TORSDOF 5
