REMARK  1 active torsions:
REMARK  status: ('A' for Active; 'I' for Inactive)
REMARK    1  A    between atoms: C_6  and  C_3 
ROOT
ATOM      1  O   UNL d   1       0.513  -0.316   0.000  0.00  0.00    -0.260 OA
ATOM      2  N   UNL d   1       0.118   0.982   0.000  0.00  0.00    -0.120 NA
ATOM      3  C   UNL d   1      -0.132   0.169   0.000  0.00  0.00     0.205 A 
ATOM      4  N   UNL d   1       0.909   0.982   0.000  0.00  0.00    -0.109 NA
ATOM      5  C   UNL d   1       1.203   0.231   0.000  0.00  0.00     0.262 A 
ATOM      6  S   UNL d   1       1.994   0.068   0.000  0.00  0.00    -0.029 SA
ENDROOT
BRANCH   3   7
ATOM      7  C   UNL d   1      -0.893  -0.095   0.000  0.00  0.00     0.043 A 
ATOM      8  C   UNL d   1      -1.039  -0.920   0.000  0.00  0.00     0.004 A 
ATOM      9  C   UNL d   1      -1.814  -1.199   0.000  0.00  0.00     0.000 A 
ATOM     10  C   UNL d   1      -2.451  -0.653   0.000  0.00  0.00     0.000 A 
ATOM     11  C   UNL d   1      -2.284   0.155   0.000  0.00  0.00     0.000 A 
ATOM     12  C   UNL d   1      -1.521   0.452   0.000  0.00  0.00     0.004 A 
ENDBRANCH   3   7
TORSDOF 1
