REMARK  6 active torsions:
REMARK  status: ('A' for Active; 'I' for Inactive)
REMARK    1  A    between atoms: C_5  and  C_1 
REMARK    2  A    between atoms: N_4  and  C_2 
REMARK       I    between atoms: C_3  and  N_4 
REMARK    3  A    between atoms: C_10  and  C_3 
REMARK    4  A    between atoms: O_15  and  C_5 
REMARK    5  A    between atoms: C_6  and  C_7 
REMARK    6  A    between atoms: O_16  and  C_6 
ROOT
ATOM      1  C   UNL d   1       0.892   0.308   0.000  0.00  0.00     0.093 A 
ATOM      2  C   UNL d   1       0.892   1.133   0.000  0.00  0.00     0.140 A 
ATOM      3  C   UNL d   1      -0.537   1.133   0.000  0.00  0.00     0.066 A 
ATOM      4  C   UNL d   1       0.175   1.546   0.000  0.00  0.00     0.038 A 
ATOM      5  C   UNL d   1       0.175  -0.104   0.000  0.00  0.00     0.008 A 
ATOM      6  C   UNL d   1      -0.537   0.308   0.000  0.00  0.00     0.006 A 
ENDROOT
BRANCH   2   7
ATOM      7  N   UNL d   1       1.604   1.550   0.000  0.00  0.00    -0.368 NA
ATOM      8  C   UNL d   1       2.312   1.962   0.000  0.00  0.00     0.303 C 
ATOM      9  O   UNL d   1       3.029   1.558   0.000  0.00  0.00    -0.256 OA
BRANCH   8  10
ATOM     10  C   UNL d   1       2.304   2.788   0.000  0.00  0.00     0.085 C 
ATOM     11  C   UNL d   1       1.592   3.208   0.000  0.00  0.00     0.011 C 
ATOM     12  C   UNL d   1       3.104   2.583   0.000  0.00  0.00     0.011 C 
ATOM     13  C   UNL d   1       3.017   3.208   0.000  0.00  0.00     0.011 C 
ENDBRANCH   8  10
ENDBRANCH   2   7
BRANCH   1  14
ATOM     14  C   UNL d   1       1.604  -0.104   0.000  0.00  0.00     0.298 C 
ATOM     15  O   UNL d   1       1.604  -0.929   0.000  0.00  0.00    -0.259 OA
BRANCH  14  16
ATOM     16  O   UNL d   1       2.317   0.308   0.000  0.00  0.00    -0.296 OA
ATOM     17  C   UNL d   1       3.038  -0.104   0.000  0.00  0.00     0.185 C 
ENDBRANCH  14  16
ENDBRANCH   1  14
BRANCH   3  18
ATOM     18  C   UNL d   1      -1.250   1.546   0.000  0.00  0.00     0.296 C 
ATOM     19  O   UNL d   1      -1.250   2.371   0.000  0.00  0.00    -0.259 OA
BRANCH  18  20
ATOM     20  O   UNL d   1      -1.971   1.133   0.000  0.00  0.00    -0.296 OA
ATOM     21  C   UNL d   1      -2.683   1.546   0.000  0.00  0.00     0.185 C 
ENDBRANCH  18  20
ENDBRANCH   3  18
TORSDOF 6
