REMARK  5 active torsions:
REMARK  status: ('A' for Active; 'I' for Inactive)
REMARK    1  A    between atoms: C_2  and  C_1 
REMARK       I    between atoms: N_3  and  C_1 
REMARK    2  A    between atoms: C_9  and  N_3 
REMARK    3  A    between atoms: N_8  and  C_6 
REMARK    4  A    between atoms: C_18  and  N_8 
REMARK    5  A    between atoms: C_19  and  N_8 
ROOT
ATOM      1  C   UNL d   1       5.741  -0.964   0.000  0.00  0.00     0.064 A 
ATOM      2  C   UNL d   1       4.307  -0.150   0.000  0.00  0.00     0.135 A 
ATOM      3  C   UNL d   1       5.026  -1.384   0.000  0.00  0.00     0.020 A 
ATOM      4  C   UNL d   1       5.741  -0.150   0.000  0.00  0.00     0.020 A 
ATOM      5  C   UNL d   1       4.307  -0.964   0.000  0.00  0.00     0.034 A 
ATOM      6  C   UNL d   1       5.026   0.262   0.000  0.00  0.00     0.034 A 
ENDROOT
BRANCH   2   7
ATOM      7  N   UNL d   1       3.596   0.249   0.000  0.00  0.00    -0.365 NA
ATOM      8  C   UNL d   1       2.893   0.661   0.000  0.00  0.00     0.330 C 
ATOM      9  O   UNL d   1       2.881   1.480   0.000  0.00  0.00    -0.251 OA
BRANCH   8  10
ATOM     10  C   UNL d   1       2.174   0.245   0.000  0.00  0.00     0.090 A 
ATOM     11  C   UNL d   1       1.451   0.648   0.000  0.00  0.00     0.016 A 
ATOM     12  C   UNL d   1       0.748   0.245   0.000  0.00  0.00     0.054 A 
ATOM     13 BR   UNL d   1       0.037   0.648   0.000  0.00  0.00    -0.048 Br
ATOM     14  C   UNL d   1       0.748  -0.565   0.000  0.00  0.00     0.106 A 
ATOM     15  N   UNL d   1       1.451  -0.985   0.000  0.00  0.00    -0.242 NA
ATOM     16  C   UNL d   1       2.174  -0.565   0.000  0.00  0.00     0.105 A 
ENDBRANCH   8  10
ENDBRANCH   2   7
BRANCH   1  17
ATOM     17  N   UNL d   1       6.452  -1.384   0.000  0.00  0.00    -0.304 N 
BRANCH  17  18
ATOM     18  C   UNL d   1       6.452  -2.199   0.000  0.00  0.00     0.080 C 
ATOM     19  C   UNL d   1       7.162  -2.611   0.000  0.00  0.00     0.021 C 
ENDBRANCH  17  18
BRANCH  17  20
ATOM     20  C   UNL d   1       7.171  -0.964   0.000  0.00  0.00     0.080 C 
ATOM     21  C   UNL d   1       7.882  -1.384   0.000  0.00  0.00     0.021 C 
ENDBRANCH  17  20
ENDBRANCH   1  17
TORSDOF 5
