REMARK  2 active torsions:
REMARK  status: ('A' for Active; 'I' for Inactive)
REMARK    1  A    between atoms: C_12  and  C_4 
REMARK    2  A    between atoms: O_14  and  C_10 
ROOT
ATOM      1  C   UNL d   1      -0.345  -0.551   0.000  0.00  0.00     0.101 A 
ATOM      2  C   UNL d   1       0.370  -0.968   0.000  0.00  0.00     0.203 A 
ATOM      3  C   UNL d   1       1.083  -0.551   0.000  0.00  0.00     0.067 A 
ATOM      4  C   UNL d   1       1.083   0.266   0.000  0.00  0.00     0.103 A 
ATOM      5  C   UNL d   1      -0.345   0.266   0.000  0.00  0.00     0.108 A 
ATOM      6  O   UNL d   1       0.370   0.682   0.000  0.00  0.00    -0.307 OA
ATOM      7  C   UNL d   1      -1.054  -0.968   0.000  0.00  0.00     0.203 A 
ATOM      8  C   UNL d   1      -1.054   0.682   0.000  0.00  0.00     0.049 A 
ATOM      9  C   UNL d   1      -1.785  -0.551   0.000  0.00  0.00     0.066 A 
ATOM     10  C   UNL d   1      -1.785   0.266   0.000  0.00  0.00     0.099 A 
ATOM     11  O   UNL d   1       0.370  -1.808   0.000  0.00  0.00    -0.286 OA
ATOM     12  O   UNL d   1      -1.054  -1.808   0.000  0.00  0.00    -0.286 OA
ENDROOT
BRANCH   4  13
ATOM     13  C   UNL d   1       1.787   0.682   0.000  0.00  0.00     0.023 A 
ATOM     14  C   UNL d   1       2.500   0.266   0.000  0.00  0.00     0.002 A 
ATOM     15  C   UNL d   1       3.209   0.682   0.000  0.00  0.00     0.000 A 
ATOM     16  C   UNL d   1       3.209   1.509   0.000  0.00  0.00     0.000 A 
ATOM     17  C   UNL d   1       2.500   1.928   0.000  0.00  0.00     0.000 A 
ATOM     18  C   UNL d   1       1.787   1.509   0.000  0.00  0.00     0.002 A 
ENDBRANCH   4  13
BRANCH  10  19
ATOM     19  O   UNL d   1      -2.512   0.705   0.000  0.00  0.00    -0.328 OA
ATOM     20  C   UNL d   1      -3.230   0.314   0.000  0.00  0.00     0.181 C 
ENDBRANCH  10  19
TORSDOF 2
