REMARK  7 active torsions:
REMARK  status: ('A' for Active; 'I' for Inactive)
REMARK    1  A    between atoms: C_4  and  N_1 
REMARK       I    between atoms: C_2  and  N_6 
REMARK    2  A    between atoms: C_3  and  C_2 
REMARK    3  A    between atoms: C_5  and  C_3 
REMARK    4  A    between atoms: C_12  and  C_5 
REMARK    5  A    between atoms: N_6  and  C_11 
REMARK    6  A    between atoms: O_22  and  C_13 
REMARK    7  A    between atoms: C_25  and  O_22 
ROOT
ATOM      1  C   UNL d   1       4.817  -1.704   0.000  0.00  0.00     0.328 C 
ATOM      2  N   UNL d   1       5.529  -2.112   0.000  0.00  0.00    -0.365 NA
ATOM      3  O   UNL d   1       4.812  -0.879   0.000  0.00  0.00    -0.251 OA
ENDROOT
BRANCH   1   4
ATOM      4  C   UNL d   1       4.104  -2.117   0.000  0.00  0.00     0.076 C 
BRANCH   4   5
ATOM      5  C   UNL d   1       3.388  -1.704   0.000  0.00  0.00     0.006 C 
BRANCH   5   6
ATOM      6  C   UNL d   1       2.675  -2.125   0.000  0.00  0.00     0.000 A 
ATOM      7  C   UNL d   1       1.954  -1.712   0.000  0.00  0.00     0.002 A 
ATOM      8  C   UNL d   1       1.242  -2.125   0.000  0.00  0.00     0.025 A 
ATOM      9  C   UNL d   1       1.242  -2.954   0.000  0.00  0.00     0.100 A 
ATOM     10  C   UNL d   1       1.954  -3.367   0.000  0.00  0.00     0.025 A 
ATOM     11  C   UNL d   1       2.675  -2.954   0.000  0.00  0.00     0.002 A 
BRANCH   9  12
ATOM     12  O   UNL d   1       0.529  -3.367   0.000  0.00  0.00    -0.305 OA
BRANCH  12  13
ATOM     13  C   UNL d   1      -0.183  -2.954   0.000  0.00  0.00     0.123 C 
ATOM     14  C   UNL d   1      -0.183  -2.129   0.000  0.00  0.00     0.029 C 
ENDBRANCH  12  13
ENDBRANCH   9  12
ENDBRANCH   5   6
ENDBRANCH   4   5
ENDBRANCH   1   4
BRANCH   2  15
ATOM     15  C   UNL d   1       6.250  -2.517   0.000  0.00  0.00     0.135 A 
ATOM     16  C   UNL d   1       6.967  -2.100   0.000  0.00  0.00     0.034 A 
ATOM     17  C   UNL d   1       7.679  -2.517   0.000  0.00  0.00     0.020 A 
ATOM     18  C   UNL d   1       7.679  -3.342   0.000  0.00  0.00     0.064 A 
ATOM     19  C   UNL d   1       6.967  -3.754   0.000  0.00  0.00     0.020 A 
ATOM     20  C   UNL d   1       6.254  -3.342   0.000  0.00  0.00     0.034 A 
BRANCH  18  21
ATOM     21  N   UNL d   1       8.392  -3.754   0.000  0.00  0.00    -0.300 N 
ATOM     22  C   UNL d   1       8.392  -4.579   0.000  0.00  0.00     0.107 A 
ATOM     23  C   UNL d   1       9.100  -4.992   0.000  0.00  0.00     0.142 A 
ATOM     24  O   UNL d   1       9.817  -4.579   0.000  0.00  0.00    -0.300 OA
ATOM     25  C   UNL d   1       9.817  -3.754   0.000  0.00  0.00     0.142 A 
ATOM     26  C   UNL d   1       9.104  -3.337   0.000  0.00  0.00     0.107 A 
ENDBRANCH  18  21
ENDBRANCH   2  15
TORSDOF 7
