REMARK  5 active torsions:
REMARK  status: ('A' for Active; 'I' for Inactive)
REMARK    1  A    between atoms: C_3  and  N_1 
REMARK       I    between atoms: C_2  and  N_4 
REMARK    2  A    between atoms: C_10  and  C_2 
REMARK    3  A    between atoms: N_4  and  C_9 
REMARK    4  A    between atoms: C_13  and  C_10 
REMARK    5  A    between atoms: C_16  and  C_13 
ROOT
ATOM      1  C   UNL d   1       2.163  -2.817   0.000  0.00  0.00     0.064 A 
ATOM      2  C   UNL d   1       1.442  -3.229   0.000  0.00  0.00     0.020 A 
ATOM      3  C   UNL d   1       2.163  -1.992   0.000  0.00  0.00     0.020 A 
ATOM      4  C   UNL d   1       0.729  -2.000   0.000  0.00  0.00     0.135 A 
ATOM      5  C   UNL d   1       1.442  -1.579   0.000  0.00  0.00     0.034 A 
ATOM      6  C   UNL d   1       0.729  -2.817   0.000  0.00  0.00     0.034 A 
ENDROOT
BRANCH   4   7
ATOM      7  N   UNL d   1       0.013  -1.592   0.000  0.00  0.00    -0.365 NA
ATOM      8  C   UNL d   1      -0.708  -1.179   0.000  0.00  0.00     0.328 C 
ATOM      9  O   UNL d   1      -0.708  -0.354   0.000  0.00  0.00    -0.251 OA
BRANCH   8  10
ATOM     10  C   UNL d   1      -1.421  -1.592   0.000  0.00  0.00     0.076 C 
BRANCH  10  11
ATOM     11  C   UNL d   1      -2.133  -1.188   0.000  0.00  0.00     0.006 C 
BRANCH  11  12
ATOM     12  C   UNL d   1      -2.846  -1.604   0.000  0.00  0.00     0.000 A 
ATOM     13  C   UNL d   1      -3.562  -1.192   0.000  0.00  0.00     0.000 A 
ATOM     14  C   UNL d   1      -4.283  -1.604   0.000  0.00  0.00     0.000 A 
ATOM     15  C   UNL d   1      -4.283  -2.429   0.000  0.00  0.00     0.000 A 
ATOM     16  C   UNL d   1      -3.562  -2.842   0.000  0.00  0.00     0.000 A 
ATOM     17  C   UNL d   1      -2.846  -2.429   0.000  0.00  0.00     0.000 A 
ENDBRANCH  11  12
ENDBRANCH  10  11
ENDBRANCH   8  10
ENDBRANCH   4   7
BRANCH   1  18
ATOM     18  N   UNL d   1       2.875  -3.229   0.000  0.00  0.00    -0.300 N 
ATOM     19  C   UNL d   1       2.867  -4.054   0.000  0.00  0.00     0.107 A 
ATOM     20  C   UNL d   1       3.579  -4.467   0.000  0.00  0.00     0.142 A 
ATOM     21  O   UNL d   1       4.292  -4.062   0.000  0.00  0.00    -0.300 OA
ATOM     22  C   UNL d   1       4.300  -3.237   0.000  0.00  0.00     0.142 A 
ATOM     23  C   UNL d   1       3.587  -2.817   0.000  0.00  0.00     0.107 A 
ENDBRANCH   1  18
TORSDOF 5
