REMARK  6 active torsions:
REMARK  status: ('A' for Active; 'I' for Inactive)
REMARK    1  A    between atoms: C_2  and  C_1 
REMARK       I    between atoms: N_6  and  C_1 
REMARK    2  A    between atoms: O_15  and  C_3 
REMARK    3  A    between atoms: O_17  and  C_4 
REMARK    4  A    between atoms: O_16  and  C_5 
REMARK    5  A    between atoms: C_12  and  N_6 
REMARK    6  A    between atoms: N_11  and  C_9 
ROOT
ATOM      1  C   UNL d   1       0.839   1.223   0.000  0.00  0.00     0.074 A 
ATOM      2  C   UNL d   1      -0.585   0.397   0.000  0.00  0.00     0.138 A 
ATOM      3  C   UNL d   1      -0.585   1.215   0.000  0.00  0.00     0.118 A 
ATOM      4  C   UNL d   1       0.130  -0.004   0.000  0.00  0.00     0.118 A 
ATOM      5  C   UNL d   1       0.117   1.637   0.000  0.00  0.00     0.032 A 
ATOM      6  C   UNL d   1       0.852   0.397   0.000  0.00  0.00     0.032 A 
ENDROOT
BRANCH   1   7
ATOM      7  C   UNL d   1       1.553   1.637   0.000  0.00  0.00     0.328 C 
ATOM      8  N   UNL d   1       2.259   1.223   0.000  0.00  0.00    -0.365 NA
ATOM      9  O   UNL d   1       1.553   2.463   0.000  0.00  0.00    -0.251 OA
BRANCH   8  10
ATOM     10  C   UNL d   1       2.973   0.814   0.000  0.00  0.00     0.135 A 
ATOM     11  C   UNL d   1       3.695   1.223   0.000  0.00  0.00     0.034 A 
ATOM     12  C   UNL d   1       4.409   0.814   0.000  0.00  0.00     0.020 A 
ATOM     13  C   UNL d   1       4.409  -0.004   0.000  0.00  0.00     0.064 A 
ATOM     14  C   UNL d   1       3.695  -0.418   0.000  0.00  0.00     0.020 A 
ATOM     15  C   UNL d   1       2.973  -0.004   0.000  0.00  0.00     0.034 A 
BRANCH  13  16
ATOM     16  N   UNL d   1       5.127  -0.418   0.000  0.00  0.00    -0.301 N 
ATOM     17  C   UNL d   1       5.841   0.000   0.000  0.00  0.00     0.100 C 
ATOM     18  C   UNL d   1       5.127  -1.253   0.000  0.00  0.00     0.100 C 
ENDBRANCH  13  16
ENDBRANCH   8  10
ENDBRANCH   1   7
BRANCH   3  19
ATOM     19  O   UNL d   1      -1.303   1.624   0.000  0.00  0.00    -0.326 OA
ATOM     20  C   UNL d   1      -1.303   2.463   0.000  0.00  0.00     0.181 C 
ENDBRANCH   3  19
BRANCH   4  21
ATOM     21  O   UNL d   1       0.130  -0.839   0.000  0.00  0.00    -0.326 OA
ATOM     22  C   UNL d   1       0.852  -1.253   0.000  0.00  0.00     0.181 C 
ENDBRANCH   4  21
BRANCH   2  23
ATOM     23  O   UNL d   1      -1.298  -0.017   0.000  0.00  0.00    -0.324 OA
ATOM     24  C   UNL d   1      -2.017   0.384   0.000  0.00  0.00     0.182 C 
ENDBRANCH   2  23
TORSDOF 6
