REMARK  6 active torsions:
REMARK  status: ('A' for Active; 'I' for Inactive)
REMARK       I    between atoms: N_3  and  C_1 
REMARK    1  A    between atoms: O_10  and  C_1 
REMARK    2  A    between atoms: N_2  and  C_4 
REMARK    3  A    between atoms: C_9  and  N_3 
REMARK    4  A    between atoms: C_17  and  O_10 
REMARK    5  A    between atoms: C_18  and  C_17 
REMARK    6  A    between atoms: C_19  and  C_18 
ROOT
ATOM      1  C   UNL d   1       2.188  -3.042   0.000  0.00  0.00     0.064 A 
ATOM      2  C   UNL d   1       1.467  -3.454   0.000  0.00  0.00     0.020 A 
ATOM      3  C   UNL d   1       2.192  -2.217   0.000  0.00  0.00     0.020 A 
ATOM      4  C   UNL d   1       0.754  -2.217   0.000  0.00  0.00     0.137 A 
ATOM      5  C   UNL d   1       1.479  -1.804   0.000  0.00  0.00     0.034 A 
ATOM      6  C   UNL d   1       0.754  -3.042   0.000  0.00  0.00     0.034 A 
ENDROOT
BRANCH   4   7
ATOM      7  N   UNL d   1       0.042  -1.812   0.000  0.00  0.00    -0.344 NA
ATOM      8  C   UNL d   1      -0.671  -1.400   0.000  0.00  0.00     0.445 C 
ATOM      9  O   UNL d   1      -0.671  -0.575   0.000  0.00  0.00    -0.220 OA
BRANCH   8  10
ATOM     10  O   UNL d   1      -1.387  -1.812   0.000  0.00  0.00    -0.246 OA
BRANCH  10  11
ATOM     11  C   UNL d   1      -2.100  -1.400   0.000  0.00  0.00     0.129 C 
BRANCH  11  12
ATOM     12  C   UNL d   1      -2.821  -1.812   0.000  0.00  0.00     0.027 C 
BRANCH  12  13
ATOM     13  C   UNL d   1      -3.533  -1.400   0.000  0.00  0.00     0.002 C 
ATOM     14  C   UNL d   1      -4.246  -1.812   0.000  0.00  0.00     0.000 C 
ENDBRANCH  12  13
ENDBRANCH  11  12
ENDBRANCH  10  11
ENDBRANCH   8  10
ENDBRANCH   4   7
BRANCH   1  15
ATOM     15  N   UNL d   1       2.900  -3.462   0.000  0.00  0.00    -0.300 N 
ATOM     16  C   UNL d   1       2.892  -4.287   0.000  0.00  0.00     0.107 A 
ATOM     17  C   UNL d   1       3.600  -4.700   0.000  0.00  0.00     0.142 A 
ATOM     18  O   UNL d   1       4.317  -4.292   0.000  0.00  0.00    -0.300 OA
ATOM     19  C   UNL d   1       4.325  -3.467   0.000  0.00  0.00     0.142 A 
ATOM     20  C   UNL d   1       3.612  -3.050   0.000  0.00  0.00     0.107 A 
ENDBRANCH   1  15
TORSDOF 6
