REMARK  7 active torsions:
REMARK  status: ('A' for Active; 'I' for Inactive)
REMARK    1  A    between atoms: C_3  and  N_1 
REMARK       I    between atoms: C_2  and  N_4 
REMARK    2  A    between atoms: C_11  and  C_2 
REMARK    3  A    between atoms: N_4  and  C_12 
REMARK    4  A    between atoms: O_5  and  C_11 
REMARK    5  A    between atoms: C_6  and  O_5 
REMARK    6  A    between atoms: O_15  and  C_8 
REMARK    7  A    between atoms: C_20  and  O_15 
ROOT
ATOM      1  C   UNL d   1      -0.050   0.463   0.000  0.00  0.00     0.353 C 
ATOM      2  N   UNL d   1       0.667   0.058   0.000  0.00  0.00    -0.363 NA
ATOM      3  O   UNL d   1      -0.058   1.288   0.000  0.00  0.00    -0.249 OA
ENDROOT
BRANCH   1   4
ATOM      4  C   UNL d   1      -0.762   0.050   0.000  0.00  0.00     0.199 C 
BRANCH   4   5
ATOM      5  O   UNL d   1      -1.483   0.458   0.000  0.00  0.00    -0.297 OA
BRANCH   5   6
ATOM      6  C   UNL d   1      -2.196   0.046   0.000  0.00  0.00     0.123 A 
ATOM      7  C   UNL d   1      -2.196  -0.787   0.000  0.00  0.00     0.123 A 
ATOM      8  C   UNL d   1      -2.908  -1.200   0.000  0.00  0.00     0.027 A 
ATOM      9  C   UNL d   1      -3.621  -0.787   0.000  0.00  0.00     0.002 A 
ATOM     10  C   UNL d   1      -3.621   0.037   0.000  0.00  0.00     0.002 A 
ATOM     11  C   UNL d   1      -2.908   0.458   0.000  0.00  0.00     0.027 A 
BRANCH   7  12
ATOM     12  O   UNL d   1      -1.475  -1.200   0.000  0.00  0.00    -0.303 OA
BRANCH  12  13
ATOM     13  C   UNL d   1      -1.475  -2.025   0.000  0.00  0.00     0.123 C 
ATOM     14  C   UNL d   1      -2.188  -2.438   0.000  0.00  0.00     0.029 C 
ENDBRANCH  12  13
ENDBRANCH   7  12
ENDBRANCH   5   6
ENDBRANCH   4   5
ENDBRANCH   1   4
BRANCH   2  15
ATOM     15  C   UNL d   1       1.379  -0.354   0.000  0.00  0.00     0.135 A 
ATOM     16  C   UNL d   1       1.387  -1.175   0.000  0.00  0.00     0.034 A 
ATOM     17  C   UNL d   1       2.100  -1.587   0.000  0.00  0.00     0.020 A 
ATOM     18  C   UNL d   1       2.817  -1.175   0.000  0.00  0.00     0.064 A 
ATOM     19  C   UNL d   1       2.817  -0.350   0.000  0.00  0.00     0.020 A 
ATOM     20  C   UNL d   1       2.100   0.071   0.000  0.00  0.00     0.034 A 
BRANCH  18  21
ATOM     21  N   UNL d   1       3.529  -1.587   0.000  0.00  0.00    -0.304 N 
ATOM     22  C   UNL d   1       3.525  -2.413   0.000  0.00  0.00     0.080 A 
ATOM     23  C   UNL d   1       4.229  -2.825   0.000  0.00  0.00     0.019 A 
ATOM     24  C   UNL d   1       4.950  -2.417   0.000  0.00  0.00     0.003 A 
ATOM     25  C   UNL d   1       4.954  -1.592   0.000  0.00  0.00     0.019 A 
ATOM     26  C   UNL d   1       4.242  -1.167   0.000  0.00  0.00     0.080 A 
ENDBRANCH  18  21
ENDBRANCH   2  15
TORSDOF 7
