REMARK  8 active torsions:
REMARK  status: ('A' for Active; 'I' for Inactive)
REMARK       I    between atoms: N_3  and  C_1 
REMARK    1  A    between atoms: C_11  and  C_1 
REMARK    2  A    between atoms: C_7  and  N_3 
REMARK    3  A    between atoms: C_5  and  O_8 
REMARK    4  A    between atoms: C_12  and  C_7 
REMARK    5  A    between atoms: O_8  and  C_15 
REMARK    6  A    between atoms: C_9  and  C_12 
REMARK    7  A    between atoms: C_19  and  C_11 
REMARK    8  A    between atoms: C_15  and  C_19 
ROOT
ATOM      1  C   UNL d   1       2.767  -6.304   0.000  0.00  0.00     0.328 C 
ATOM      2  O   UNL d   1       2.767  -5.479   0.000  0.00  0.00    -0.251 OA
ATOM      3  N   UNL d   1       3.487  -6.717   0.000  0.00  0.00    -0.362 NA
ENDROOT
BRANCH   1   4
ATOM      4  C   UNL d   1       2.054  -6.717   0.000  0.00  0.00     0.078 C 
BRANCH   4   5
ATOM      5  C   UNL d   1       1.342  -6.312   0.000  0.00  0.00     0.033 C 
BRANCH   5   6
ATOM      6  C   UNL d   1       0.629  -6.725   0.000  0.00  0.00     0.123 C 
BRANCH   6   7
ATOM      7  O   UNL d   1      -0.087  -6.317   0.000  0.00  0.00    -0.305 OA
BRANCH   7   8
ATOM      8  C   UNL d   1      -0.800  -6.729   0.000  0.00  0.00     0.100 A 
ATOM      9  C   UNL d   1      -1.521  -6.317   0.000  0.00  0.00     0.025 A 
ATOM     10  C   UNL d   1      -2.233  -6.737   0.000  0.00  0.00     0.002 A 
ATOM     11  C   UNL d   1      -2.946  -6.325   0.000  0.00  0.00     0.000 C 
ATOM     12  C   UNL d   1      -2.233  -7.562   0.000  0.00  0.00     0.000 A 
ATOM     13  C   UNL d   1      -1.521  -7.975   0.000  0.00  0.00     0.002 A 
ATOM     14  C   UNL d   1      -0.800  -7.562   0.000  0.00  0.00     0.025 A 
ENDBRANCH   7   8
ENDBRANCH   6   7
ENDBRANCH   5   6
ENDBRANCH   4   5
ENDBRANCH   1   4
BRANCH   3  15
ATOM     15  C   UNL d   1       4.200  -7.125   0.000  0.00  0.00     0.165 C 
BRANCH  15  16
ATOM     16  C   UNL d   1       4.204  -7.950   0.000  0.00  0.00     0.035 C 
BRANCH  16  17
ATOM     17  C   UNL d   1       4.917  -8.354   0.000  0.00  0.00     0.003 A 
ATOM     18  C   UNL d   1       5.638  -7.942   0.000  0.00  0.00     0.000 A 
ATOM     19  C   UNL d   1       6.350  -8.354   0.000  0.00  0.00     0.000 A 
ATOM     20  C   UNL d   1       6.350  -9.179   0.000  0.00  0.00     0.000 A 
ATOM     21  C   UNL d   1       5.629  -9.592   0.000  0.00  0.00     0.000 A 
ATOM     22  C   UNL d   1       4.917  -9.179   0.000  0.00  0.00     0.000 A 
ENDBRANCH  16  17
ENDBRANCH  15  16
ENDBRANCH   3  15
TORSDOF 8
