REMARK  7 active torsions:
REMARK  status: ('A' for Active; 'I' for Inactive)
REMARK    1  A    between atoms: N_2  and  C_1 
REMARK    2  A    between atoms: S_4  and  C_3 
REMARK    3  A    between atoms: C_6  and  S_4 
REMARK    4  A    between atoms: C_5  and  C_8 
REMARK    5  A    between atoms: C_9  and  C_6 
REMARK    6  A    between atoms: O_14  and  C_9 
REMARK    7  A    between atoms: C_12  and  O_14 
ROOT
ATOM      1  S   UNL d   1       2.584  -0.494   0.000  0.00  0.00     0.096 S 
ATOM      2  O   UNL d   1       3.294  -0.901   0.000  0.00  0.00    -0.247 OA
ENDROOT
BRANCH   1   3
ATOM      3  C   UNL d   1       1.870  -0.913   0.000  0.00  0.00     0.082 A 
ATOM      4  C   UNL d   1       1.870  -1.751   0.000  0.00  0.00     0.135 A 
ATOM      5  C   UNL d   1       1.152  -2.157   0.000  0.00  0.00     0.028 A 
ATOM      6  C   UNL d   1       0.435  -1.751   0.000  0.00  0.00     0.073 A 
ATOM      7  C   UNL d   1       0.435  -0.921   0.000  0.00  0.00     0.005 A 
ATOM      8  C   UNL d   1       1.152  -0.502   0.000  0.00  0.00     0.011 A 
BRANCH   4   9
ATOM      9  N   UNL d   1       2.588  -2.157   0.000  0.00  0.00    -0.113 N 
ATOM     10  O   UNL d   1       2.588  -2.991   0.000  0.00  0.00    -0.532 OA
ATOM     11  O   UNL d   1       3.306  -1.739   0.000  0.00  0.00    -0.532 OA
ENDBRANCH   4   9
BRANCH   6  12
ATOM     12  C   UNL d   1      -0.283  -2.157   0.000  0.00  0.00     0.419 C 
ATOM     13  F   UNL d   1      -0.419  -3.019   0.000  0.00  0.00    -0.166 F 
ATOM     14  F   UNL d   1      -0.933  -2.540   0.000  0.00  0.00    -0.166 F 
ATOM     15  F   UNL d   1      -1.097  -1.854   0.000  0.00  0.00    -0.166 F 
ENDBRANCH   6  12
ENDBRANCH   1   3
BRANCH   1  16
ATOM     16  C   UNL d   1       2.576   0.331   0.000  0.00  0.00     0.137 C 
BRANCH  16  17
ATOM     17  C   UNL d   1       3.290   0.750   0.000  0.00  0.00     0.309 C 
ATOM     18  O   UNL d   1       3.282   1.575   0.000  0.00  0.00    -0.258 OA
BRANCH  17  19
ATOM     19  O   UNL d   1       4.008   0.343   0.000  0.00  0.00    -0.273 OA
BRANCH  19  20
ATOM     20  C   UNL d   1       4.610   0.694   0.000  0.00  0.00     0.103 A 
ATOM     21  C   UNL d   1       5.220   0.355   0.000  0.00  0.00     0.025 A 
ATOM     22  C   UNL d   1       5.830   0.706   0.000  0.00  0.00     0.002 A 
ATOM     23  C   UNL d   1       6.440   0.367   0.000  0.00  0.00     0.000 C 
ATOM     24  C   UNL d   1       5.818   1.408   0.000  0.00  0.00     0.000 A 
ATOM     25  C   UNL d   1       5.196   1.758   0.000  0.00  0.00     0.002 A 
ATOM     26  C   UNL d   1       4.598   1.396   0.000  0.00  0.00     0.025 A 
ATOM     27  C   UNL d   1       5.184   2.472   0.000  0.00  0.00     0.000 C 
ENDBRANCH  19  20
ENDBRANCH  17  19
ENDBRANCH  16  17
ENDBRANCH   1  16
TORSDOF 7
