REMARK  6 active torsions:
REMARK  status: ('A' for Active; 'I' for Inactive)
REMARK    1  A    between atoms: N_6  and  S_1 
REMARK    2  A    between atoms: C_7  and  S_1 
REMARK       I    between atoms: C_2  and  N_4 
REMARK    3  A    between atoms: C_8  and  C_2 
REMARK    4  A    between atoms: C_3  and  C_12 
REMARK       I    between atoms: N_5  and  C_3 
REMARK    5  A    between atoms: C_23  and  N_6 
REMARK    6  A    between atoms: O_29  and  C_26 
ROOT
ATOM      1  C   UNL d   1      -0.711   0.870   0.000  0.00  0.00     0.057 A 
ATOM      2  C   UNL d   1      -2.321   0.520   0.000  0.00  0.00     0.094 A 
ATOM      3  C   UNL d   1      -0.969   0.083   0.000  0.00  0.00     0.006 A 
ATOM      4  C   UNL d   1      -1.261   1.481   0.000  0.00  0.00     0.006 A 
ATOM      5  C   UNL d   1      -1.781  -0.087   0.000  0.00  0.00     0.020 A 
ATOM      6  C   UNL d   1      -2.068   1.306   0.000  0.00  0.00     0.020 A 
ENDROOT
BRANCH   1   7
ATOM      7  C   UNL d   1       0.104   1.044   0.000  0.00  0.00     0.265 C 
ATOM      8  N   UNL d   1       0.666   0.433   0.000  0.00  0.00    -0.269 N 
ATOM      9  C   UNL d   1       1.473   0.607   0.000  0.00  0.00     0.102 A 
ATOM     10  C   UNL d   1       0.416  -0.354   0.000  0.00  0.00     0.102 A 
ATOM     11  C   UNL d   1       2.026  -0.004   0.000  0.00  0.00     0.102 A 
ATOM     12  N   UNL d   1       1.764  -0.786   0.000  0.00  0.00    -0.267 N 
ATOM     13  C   UNL d   1       2.313  -1.398   0.000  0.00  0.00     0.288 C 
ATOM     14  C   UNL d   1       0.965  -0.961   0.000  0.00  0.00     0.102 A 
ATOM     15  O   UNL d   1       3.124  -1.223   0.000  0.00  0.00    -0.264 OA
ATOM     16  O   UNL d   1       0.354   1.835   0.000  0.00  0.00    -0.267 OA
BRANCH  13  17
ATOM     17  C   UNL d   1       2.064  -2.176   0.000  0.00  0.00     0.156 A 
ATOM     18  O   UNL d   1       2.550  -2.850   0.000  0.00  0.00    -0.300 OA
ATOM     19  C   UNL d   1       2.064  -3.511   0.000  0.00  0.00     0.123 A 
ATOM     20  C   UNL d   1       1.277  -3.262   0.000  0.00  0.00     0.029 A 
ATOM     21  C   UNL d   1       1.277  -2.438   0.000  0.00  0.00     0.032 A 
ENDBRANCH  13  17
ENDBRANCH   1   7
BRANCH   2  22
ATOM     22  N   UNL d   1      -3.129   0.349   0.000  0.00  0.00    -0.158 NA
BRANCH  22  23
ATOM     23  S   UNL d   1      -3.378  -0.429   0.000  0.00  0.00     0.285 S 
ATOM     24  O   UNL d   1      -4.165  -0.179   0.000  0.00  0.00    -0.198 OA
ATOM     25  O   UNL d   1      -2.596  -0.686   0.000  0.00  0.00    -0.198 OA
BRANCH  23  26
ATOM     26  C   UNL d   1      -3.632  -1.215   0.000  0.00  0.00     0.107 A 
ATOM     27  C   UNL d   1      -3.079  -1.827   0.000  0.00  0.00     0.037 A 
ATOM     28  C   UNL d   1      -3.333  -2.613   0.000  0.00  0.00     0.095 A 
ATOM     29  C   UNL d   1      -4.140  -2.783   0.000  0.00  0.00     0.024 A 
ATOM     30  C   UNL d   1      -4.689  -2.176   0.000  0.00  0.00     0.003 A 
ATOM     31  C   UNL d   1      -4.439  -1.390   0.000  0.00  0.00     0.013 A 
BRANCH  28  32
ATOM     32  O   UNL d   1      -2.779  -3.237   0.000  0.00  0.00    -0.328 OA
ATOM     33  C   UNL d   1      -1.968  -3.075   0.000  0.00  0.00     0.181 C 
ENDBRANCH  28  32
ENDBRANCH  23  26
ENDBRANCH  22  23
ENDBRANCH   2  22
TORSDOF 6
