REMARK  5 active torsions:
REMARK  status: ('A' for Active; 'I' for Inactive)
REMARK       I    between atoms: N_3  and  C_1 
REMARK    1  A    between atoms: C_6  and  C_1 
REMARK    2  A    between atoms: C_2  and  S_4 
REMARK    3  A    between atoms: C_7  and  N_3 
REMARK    4  A    between atoms: S_4  and  C_8 
REMARK    5  A    between atoms: C_15  and  C_6 
ROOT
ATOM      1  C   UNL d   1       0.645   1.435   0.000  0.00  0.00     0.085 A 
ATOM      2  C   UNL d   1      -0.981   1.450   0.000  0.00  0.00     0.034 A 
ATOM      3  C   UNL d   1       0.245   2.156   0.000  0.00  0.00     0.020 A 
ATOM      4  C   UNL d   1       0.242   0.726   0.000  0.00  0.00     0.020 A 
ATOM      5  C   UNL d   1      -0.572   0.726   0.000  0.00  0.00     0.008 A 
ATOM      6  C   UNL d   1      -0.575   2.161   0.000  0.00  0.00     0.008 A 
ENDROOT
BRANCH   1   7
ATOM      7  N   UNL d   1       1.470   1.429   0.000  0.00  0.00    -0.208 NA
ATOM      8  C   UNL d   1       1.876   0.708   0.000  0.00  0.00     0.279 C 
ATOM      9  O   UNL d   1       2.685   0.696   0.000  0.00  0.00    -0.265 OA
BRANCH   8  10
ATOM     10  C   UNL d   1       1.452   0.008   0.000  0.00  0.00     0.062 C 
BRANCH  10  11
ATOM     11  C   UNL d   1       1.838  -0.696   0.000  0.00  0.00     0.005 A 
ATOM     12  C   UNL d   1       1.414  -1.409   0.000  0.00  0.00     0.000 A 
ATOM     13  C   UNL d   1       1.815  -2.148   0.000  0.00  0.00     0.000 A 
ATOM     14  C   UNL d   1       2.655  -2.158   0.000  0.00  0.00     0.000 A 
ATOM     15  C   UNL d   1       3.086  -1.440   0.000  0.00  0.00     0.000 A 
ATOM     16  C   UNL d   1       2.672  -0.714   0.000  0.00  0.00     0.000 A 
ENDBRANCH  10  11
ENDBRANCH   8  10
ENDBRANCH   1   7
BRANCH   2  17
ATOM     17  S   UNL d   1      -1.798   1.450   0.000  0.00  0.00    -0.028 SA
BRANCH  17  18
ATOM     18  C   UNL d   1      -2.216   0.746   0.000  0.00  0.00     0.309 C 
ATOM     19  F   UNL d   1      -1.813   0.038   0.000  0.00  0.00    -0.165 F 
ATOM     20  F   UNL d   1      -3.025   0.746   0.000  0.00  0.00    -0.165 F 
ENDBRANCH  17  18
ENDBRANCH   2  17
TORSDOF 5
