REMARK  6 active torsions:
REMARK  status: ('A' for Active; 'I' for Inactive)
REMARK    1  A    between atoms: C_4  and  N_1 
REMARK    2  A    between atoms: N_6  and  C_2 
REMARK    3  A    between atoms: S_10  and  C_7 
REMARK    4  A    between atoms: C_12  and  C_9 
REMARK    5  A    between atoms: C_11  and  S_10 
REMARK    6  A    between atoms: O_24  and  C_20 
ROOT
ATOM      1  N   UNL d   1      -0.252   0.072   0.000  0.00  0.00    -0.240 N 
ATOM      2  C   UNL d   1       0.154   0.781   0.000  0.00  0.00     0.268 A 
ATOM      3  C   UNL d   1       0.277  -0.567   0.000  0.00  0.00     0.273 A 
ATOM      4  C   UNL d   1       1.042  -0.230   0.000  0.00  0.00     0.091 A 
ATOM      5  C   UNL d   1       0.957   0.592   0.000  0.00  0.00     0.072 A 
ATOM      6  O   UNL d   1       0.113   1.480   0.000  0.00  0.00    -0.267 OA
ATOM      7  O   UNL d   1       0.113  -1.373   0.000  0.00  0.00    -0.266 OA
ENDROOT
BRANCH   1   8
ATOM      8  C   UNL d   1      -1.083   0.009   0.000  0.00  0.00     0.092 A 
ATOM      9  C   UNL d   1      -1.511   0.705   0.000  0.00  0.00     0.145 A 
ATOM     10  C   UNL d   1      -2.343   0.667   0.000  0.00  0.00     0.049 A 
ATOM     11  C   UNL d   1      -2.720  -0.066   0.000  0.00  0.00     0.096 A 
ATOM     12  C   UNL d   1      -2.267  -0.784   0.000  0.00  0.00     0.026 A 
ATOM     13  C   UNL d   1      -1.445  -0.731   0.000  0.00  0.00     0.021 A 
BRANCH   9  14
ATOM     14  N   UNL d   1      -1.121   1.433   0.000  0.00  0.00    -0.112 N 
ATOM     15  O   UNL d   1      -0.614   1.480   0.000  0.00  0.00    -0.532 OA
ATOM     16  O   UNL d   1      -1.508   2.163   0.000  0.00  0.00    -0.532 OA
ENDBRANCH   9  14
BRANCH  11  17
ATOM     17  O   UNL d   1      -3.548  -0.079   0.000  0.00  0.00    -0.328 OA
ATOM     18  C   UNL d   1      -3.983   0.614   0.000  0.00  0.00     0.181 C 
ENDBRANCH  11  17
ENDBRANCH   1   8
BRANCH   4  19
ATOM     19  S   UNL d   1       1.700  -0.718   0.000  0.00  0.00    -0.082 SA
BRANCH  19  20
ATOM     20  C   UNL d   1       2.469  -0.378   0.000  0.00  0.00     0.035 A 
ATOM     21  C   UNL d   1       3.127  -0.853   0.000  0.00  0.00     0.070 A 
ATOM     22  C   UNL d   1       3.876  -0.529   0.000  0.00  0.00     0.007 A 
ATOM     23  C   UNL d   1       3.958   0.302   0.000  0.00  0.00     0.000 A 
ATOM     24  C   UNL d   1       3.290   0.793   0.000  0.00  0.00     0.001 A 
ATOM     25  C   UNL d   1       2.544   0.425   0.000  0.00  0.00     0.007 A 
BRANCH  21  26
ATOM     26  C   UNL d   1       3.064  -1.675   0.000  0.00  0.00     0.211 C 
ATOM     27  O   UNL d   1       3.725  -2.157   0.000  0.00  0.00    -0.644 OA
ATOM     28  O   UNL d   1       2.308  -2.040   0.000  0.00  0.00    -0.644 OA
ENDBRANCH  21  26
ENDBRANCH  19  20
ENDBRANCH   4  19
TORSDOF 6
