REMARK  4 active torsions:
REMARK  status: ('A' for Active; 'I' for Inactive)
REMARK    1  A    between atoms: N_3  and  S_1 
REMARK    2  A    between atoms: C_5  and  S_1 
REMARK    3  A    between atoms: C_2  and  C_9 
REMARK       I    between atoms: N_4  and  C_2 
REMARK    4  A    between atoms: C_11  and  N_3 
ROOT
ATOM      1  C   UNL d   1       0.553   0.071   0.000  0.00  0.00     0.057 A 
ATOM      2  C   UNL d   1      -1.057  -0.275   0.000  0.00  0.00     0.094 A 
ATOM      3  C   UNL d   1       0.300  -0.716   0.000  0.00  0.00     0.006 A 
ATOM      4  C   UNL d   1       0.004   0.686   0.000  0.00  0.00     0.006 A 
ATOM      5  C   UNL d   1      -0.508  -0.886   0.000  0.00  0.00     0.020 A 
ATOM      6  C   UNL d   1      -0.799   0.520   0.000  0.00  0.00     0.020 A 
ENDROOT
BRANCH   2   7
ATOM      7  N   UNL d   1      -1.860  -0.441   0.000  0.00  0.00    -0.158 NA
BRANCH   7   8
ATOM      8  S   UNL d   1      -2.118  -1.227   0.000  0.00  0.00     0.285 S 
ATOM      9  O   UNL d   1      -2.904  -0.974   0.000  0.00  0.00    -0.198 OA
ATOM     10  O   UNL d   1      -1.331  -1.477   0.000  0.00  0.00    -0.198 OA
BRANCH   8  11
ATOM     11  C   UNL d   1      -2.372  -2.010   0.000  0.00  0.00     0.107 A 
ATOM     12  C   UNL d   1      -1.818  -2.625   0.000  0.00  0.00     0.043 A 
ATOM     13  C   UNL d   1      -2.072  -3.412   0.000  0.00  0.00     0.141 A 
ATOM     14  F   UNL d   1      -1.519  -4.036   0.000  0.00  0.00    -0.204 F 
ATOM     15  C   UNL d   1      -2.879  -3.582   0.000  0.00  0.00     0.030 A 
ATOM     16  C   UNL d   1      -3.428  -2.971   0.000  0.00  0.00     0.003 A 
ATOM     17  C   UNL d   1      -3.179  -2.184   0.000  0.00  0.00     0.013 A 
ENDBRANCH   8  11
ENDBRANCH   7   8
ENDBRANCH   2   7
BRANCH   1  18
ATOM     18  C   UNL d   1       1.373   0.250   0.000  0.00  0.00     0.265 C 
ATOM     19  N   UNL d   1       1.926  -0.366   0.000  0.00  0.00    -0.272 N 
ATOM     20  C   UNL d   1       2.734  -0.191   0.000  0.00  0.00     0.083 A 
ATOM     21  C   UNL d   1       1.677  -1.148   0.000  0.00  0.00     0.083 A 
ATOM     22  C   UNL d   1       3.287  -0.803   0.000  0.00  0.00     0.019 A 
ATOM     23  C   UNL d   1       3.025  -1.577   0.000  0.00  0.00     0.003 A 
ATOM     24  C   UNL d   1       2.226  -1.752   0.000  0.00  0.00     0.019 A 
ATOM     25  O   UNL d   1       1.623   1.044   0.000  0.00  0.00    -0.267 OA
ENDBRANCH   1  18
TORSDOF 4
