REMARK  6 active torsions:
REMARK  status: ('A' for Active; 'I' for Inactive)
REMARK    1  A    between atoms: C_14  and  N_1 
REMARK    2  A    between atoms: S_12  and  C_3 
REMARK    3  A    between atoms: C_5  and  N_11 
REMARK    4  A    between atoms: C_15  and  C_8 
REMARK       I    between atoms: N_11  and  C_13 
REMARK    5  A    between atoms: C_17  and  S_12 
REMARK    6  A    between atoms: C_13  and  C_17 
ROOT
ATOM      1  N   UNL d   1       2.027  -0.317   0.000  0.00  0.00    -0.181 NA
ATOM      2  C   UNL d   1       2.607   0.284   0.000  0.00  0.00     0.288 C 
ATOM      3  O   UNL d   1       3.396   0.083   0.000  0.00  0.00    -0.265 OA
ENDROOT
BRANCH   2   4
ATOM      4  C   UNL d   1       2.369   1.072   0.000  0.00  0.00     0.101 C 
BRANCH   4   5
ATOM      5  S   UNL d   1       2.941   1.664   0.000  0.00  0.00    -0.041 SA
BRANCH   5   6
ATOM      6  C   UNL d   1       2.707   2.449   0.000  0.00  0.00     0.219 A 
ATOM      7  N   UNL d   1       1.906   2.649   0.000  0.00  0.00    -0.186 N 
ATOM      8  N   UNL d   1       1.844   3.466   0.000  0.00  0.00    -0.038 NA
ATOM      9  N   UNL d   1       2.595   3.779   0.000  0.00  0.00    -0.022 NA
ATOM     10  N   UNL d   1       3.141   3.154   0.000  0.00  0.00    -0.101 NA
BRANCH   7  11
ATOM     11  C   UNL d   1       1.256   2.148   0.000  0.00  0.00     0.087 A 
ATOM     12  C   UNL d   1       1.368   1.322   0.000  0.00  0.00     0.019 A 
ATOM     13  C   UNL d   1       0.718   0.822   0.000  0.00  0.00     0.002 A 
ATOM     14  C   UNL d   1      -0.046   1.126   0.000  0.00  0.00     0.000 A 
ATOM     15  C   UNL d   1      -0.159   1.948   0.000  0.00  0.00     0.002 A 
ATOM     16  C   UNL d   1       0.492   2.461   0.000  0.00  0.00     0.019 A 
ENDBRANCH   7  11
ENDBRANCH   5   6
ENDBRANCH   4   5
ENDBRANCH   2   4
BRANCH   1  17
ATOM     17  C   UNL d   1       2.257  -1.118   0.000  0.00  0.00     0.216 A 
ATOM     18  N   UNL d   1       3.029  -1.414   0.000  0.00  0.00    -0.200 NA
ATOM     19  C   UNL d   1       2.983  -2.232   0.000  0.00  0.00     0.172 A 
ATOM     20  N   UNL d   1       2.194  -2.445   0.000  0.00  0.00    -0.187 NA
ATOM     21  S   UNL d   1       1.744  -1.744   0.000  0.00  0.00     0.054 SA
BRANCH  19  22
ATOM     22  C   UNL d   1       3.567  -2.820   0.000  0.00  0.00     0.036 A 
ATOM     23  C   UNL d   1       4.359  -2.607   0.000  0.00  0.00     0.003 A 
ATOM     24  C   UNL d   1       4.947  -3.195   0.000  0.00  0.00     0.000 A 
ATOM     25  C   UNL d   1       4.735  -3.984   0.000  0.00  0.00     0.000 A 
ATOM     26  C   UNL d   1       3.929  -4.197   0.000  0.00  0.00     0.000 A 
ATOM     27  C   UNL d   1       3.345  -3.621   0.000  0.00  0.00     0.003 A 
ENDBRANCH  19  22
ENDBRANCH   1  17
TORSDOF 6
