REMARK  5 active torsions:
REMARK  status: ('A' for Active; 'I' for Inactive)
REMARK    1  A    between atoms: C_17  and  N_5 
REMARK    2  A    between atoms: S_14  and  C_6 
REMARK    3  A    between atoms: C_11  and  C_18 
REMARK    4  A    between atoms: C_18  and  S_14 
REMARK    5  A    between atoms: C_19  and  C_17 
ROOT
ATOM      1  C   UNL d   1       4.580  -3.596   0.000  0.00  0.00     0.081 A 
ATOM      2  C   UNL d   1       4.675  -2.772   0.000  0.00  0.00     0.117 A 
ATOM      3  N   UNL d   1       4.011  -2.280   0.000  0.00  0.00    -0.215 NA
ATOM      4  C   UNL d   1       3.826  -3.929   0.000  0.00  0.00     0.268 A 
ATOM      5  N   UNL d   1       3.154  -3.436   0.000  0.00  0.00    -0.253 N 
ATOM      6  C   UNL d   1       3.252  -2.612   0.000  0.00  0.00     0.182 A 
ATOM      7  S   UNL d   1       5.479  -2.612   0.000  0.00  0.00    -0.068 SA
ATOM      8  C   UNL d   1       5.331  -3.941   0.000  0.00  0.00     0.013 A 
ATOM      9  C   UNL d   1       5.885  -3.334   0.000  0.00  0.00     0.031 A 
ATOM     10  O   UNL d   1       3.732  -4.740   0.000  0.00  0.00    -0.267 OA
ATOM     11  C   UNL d   1       5.454  -4.753   0.000  0.00  0.00     0.001 A 
ATOM     12  C   UNL d   1       6.709  -3.387   0.000  0.00  0.00     0.006 A 
ATOM     13  C   UNL d   1       6.168  -5.167   0.000  0.00  0.00     0.000 A 
ATOM     14  C   UNL d   1       7.176  -4.064   0.000  0.00  0.00     0.001 A 
ATOM     15  C   UNL d   1       6.942  -4.859   0.000  0.00  0.00     0.000 A 
ENDROOT
BRANCH   6  16
ATOM     16  S   UNL d   1       2.583  -2.120   0.000  0.00  0.00    -0.048 SA
BRANCH  16  17
ATOM     17  C   UNL d   1       2.674  -1.304   0.000  0.00  0.00     0.058 C 
BRANCH  17  18
ATOM     18  C   UNL d   1       3.432  -0.972   0.000  0.00  0.00     0.095 A 
ATOM     19  N   UNL d   1       4.133  -1.378   0.000  0.00  0.00    -0.238 NA
ATOM     20  C   UNL d   1       4.740  -0.828   0.000  0.00  0.00     0.111 A 
ATOM     21  C   UNL d   1       5.540  -0.976   0.000  0.00  0.00     0.028 C 
ATOM     22  S   UNL d   1       4.408  -0.090   0.000  0.00  0.00    -0.066 SA
ATOM     23  C   UNL d   1       3.604  -0.176   0.000  0.00  0.00     0.057 A 
ENDBRANCH  17  18
ENDBRANCH  16  17
ENDBRANCH   6  16
BRANCH   5  24
ATOM     24  C   UNL d   1       2.399  -3.756   0.000  0.00  0.00     0.085 C 
BRANCH  24  25
ATOM     25  C   UNL d   1       2.305  -4.589   0.000  0.00  0.00     0.019 C 
ATOM     26  C   UNL d   1       1.550  -4.921   0.000  0.00  0.00     0.002 C 
ENDBRANCH  24  25
ENDBRANCH   5  24
TORSDOF 5
