REMARK  6 active torsions:
REMARK  status: ('A' for Active; 'I' for Inactive)
REMARK    1  A    between atoms: S_9  and  C_3 
REMARK    2  A    between atoms: C_11  and  C_4 
REMARK    3  A    between atoms: C_20  and  S_9 
REMARK    4  A    between atoms: C_12  and  C_20 
REMARK       I    between atoms: N_17  and  C_12 
REMARK    5  A    between atoms: C_25  and  N_17 
REMARK    6  A    between atoms: C_24  and  C_25 
ROOT
ATOM      1  N   UNL d   1      -1.048   1.540   0.000  0.00  0.00    -0.263 N 
ATOM      2  C   UNL d   1      -1.064   2.362   0.000  0.00  0.00     0.202 A 
ATOM      3  C   UNL d   1      -0.259   1.302   0.000  0.00  0.00     0.202 A 
ATOM      4  C   UNL d   1      -1.828   1.273   0.000  0.00  0.00     0.074 A 
ATOM      5  N   UNL d   1      -0.296   2.638   0.000  0.00  0.00    -0.121 NA
ATOM      6  N   UNL d   1       0.213   1.987   0.000  0.00  0.00    -0.121 NA
ATOM      7  S   UNL d   1      -1.853   2.604   0.000  0.00  0.00    -0.046 SA
ATOM      8  C   UNL d   1      -2.325   1.937   0.000  0.00  0.00     0.056 A 
ENDROOT
BRANCH   3   9
ATOM      9  S   UNL d   1      -0.063   0.501   0.000  0.00  0.00    -0.043 SA
BRANCH   9  10
ATOM     10  C   UNL d   1       0.730   0.263   0.000  0.00  0.00     0.101 C 
BRANCH  10  11
ATOM     11  C   UNL d   1       0.918  -0.538   0.000  0.00  0.00     0.286 C 
ATOM     12  N   UNL d   1       1.715  -0.776   0.000  0.00  0.00    -0.206 NA
ATOM     13  O   UNL d   1       0.317  -1.102   0.000  0.00  0.00    -0.265 OA
BRANCH  12  14
ATOM     14  C   UNL d   1       1.907  -1.582   0.000  0.00  0.00     0.102 C 
BRANCH  14  15
ATOM     15  C   UNL d   1       2.705  -1.820   0.000  0.00  0.00     0.021 A 
ATOM     16  C   UNL d   1       2.917  -2.621   0.000  0.00  0.00     0.028 A 
ATOM     17  C   UNL d   1       3.706  -2.834   0.000  0.00  0.00     0.119 A 
ATOM     18  O   UNL d   1       4.082  -3.560   0.000  0.00  0.00    -0.300 OA
ATOM     19  C   UNL d   1       4.287  -2.254   0.000  0.00  0.00     0.119 A 
ATOM     20  C   UNL d   1       4.875  -3.448   0.000  0.00  0.00     0.304 A 
ATOM     21  O   UNL d   1       5.013  -2.630   0.000  0.00  0.00    -0.300 OA
ATOM     22  C   UNL d   1       4.074  -1.465   0.000  0.00  0.00     0.026 A 
ATOM     23  C   UNL d   1       3.272  -1.252   0.000  0.00  0.00     0.004 A 
ENDBRANCH  14  15
ENDBRANCH  12  14
ENDBRANCH  10  11
ENDBRANCH   9  10
ENDBRANCH   3   9
BRANCH   4  24
ATOM     24  C   UNL d   1      -2.112   0.497   0.000  0.00  0.00     0.017 A 
ATOM     25  C   UNL d   1      -2.917   0.351   0.000  0.00  0.00     0.002 A 
ATOM     26  C   UNL d   1      -3.201  -0.417   0.000  0.00  0.00     0.011 A 
ATOM     27  C   UNL d   1      -2.663  -1.052   0.000  0.00  0.00     0.058 A 
ATOM     28  C   UNL d   1      -1.849  -0.906   0.000  0.00  0.00     0.011 A 
ATOM     29 CL   UNL d   1      -2.938  -1.832   0.000  0.00  0.00    -0.082 Cl
ATOM     30  C   UNL d   1      -1.573  -0.129   0.000  0.00  0.00     0.002 A 
ENDBRANCH   4  24
TORSDOF 6
