REMARK  6 active torsions:
REMARK  status: ('A' for Active; 'I' for Inactive)
REMARK    1  A    between atoms: S_13  and  C_3 
REMARK    2  A    between atoms: C_21  and  C_4 
REMARK       I    between atoms: N_7  and  C_10 
REMARK    3  A    between atoms: C_10  and  C_20 
REMARK    4  A    between atoms: C_20  and  S_13 
REMARK    5  A    between atoms: O_24  and  C_16 
REMARK    6  A    between atoms: O_25  and  C_17 
ROOT
ATOM      1  N   UNL d   1       2.912  -0.155   0.000  0.00  0.00    -0.272 N 
ATOM      2  C   UNL d   1       3.648  -0.581   0.000  0.00  0.00     0.271 C 
ATOM      3  C   UNL d   1       1.492  -0.155   0.000  0.00  0.00     0.020 A 
ATOM      4  C   UNL d   1       2.198  -0.568   0.000  0.00  0.00     0.083 A 
ATOM      5  C   UNL d   1       1.492   0.652   0.000  0.00  0.00     0.005 A 
ATOM      6  C   UNL d   1       0.769  -0.568   0.000  0.00  0.00     0.028 A 
ATOM      7  C   UNL d   1       0.054  -0.155   0.000  0.00  0.00     0.116 A 
ATOM      8  C   UNL d   1       0.054   0.652   0.000  0.00  0.00     0.116 A 
ATOM      9  C   UNL d   1       0.769   1.074   0.000  0.00  0.00     0.026 A 
ATOM     10  C   UNL d   1       2.912   0.652   0.000  0.00  0.00     0.083 A 
ATOM     11  O   UNL d   1       3.639  -1.408   0.000  0.00  0.00    -0.266 OA
ATOM     12  C   UNL d   1       2.198   1.074   0.000  0.00  0.00     0.019 A 
ENDROOT
BRANCH   2  13
ATOM     13  C   UNL d   1       4.362  -0.167   0.000  0.00  0.00     0.099 C 
BRANCH  13  14
ATOM     14  S   UNL d   1       5.069  -0.581   0.000  0.00  0.00    -0.043 SA
BRANCH  14  15
ATOM     15  C   UNL d   1       5.796  -0.167   0.000  0.00  0.00     0.202 A 
ATOM     16  N   UNL d   1       5.871   0.635   0.000  0.00  0.00    -0.263 N 
ATOM     17  C   UNL d   1       6.673   0.802   0.000  0.00  0.00     0.202 A 
ATOM     18  C   UNL d   1       5.465   1.354   0.000  0.00  0.00     0.074 A 
ATOM     19  N   UNL d   1       7.087   0.100   0.000  0.00  0.00    -0.121 NA
ATOM     20  S   UNL d   1       6.769   1.625   0.000  0.00  0.00    -0.046 SA
ATOM     21  N   UNL d   1       6.535  -0.501   0.000  0.00  0.00    -0.121 NA
ATOM     22  C   UNL d   1       6.017   1.968   0.000  0.00  0.00     0.056 A 
BRANCH  18  23
ATOM     23  C   UNL d   1       4.651   1.437   0.000  0.00  0.00     0.017 A 
ATOM     24  C   UNL d   1       4.316   2.202   0.000  0.00  0.00     0.002 A 
ATOM     25  C   UNL d   1       3.510   2.277   0.000  0.00  0.00     0.000 A 
ATOM     26  C   UNL d   1       3.013   1.625   0.000  0.00  0.00     0.000 A 
ATOM     27  C   UNL d   1       3.360   0.865   0.000  0.00  0.00     0.000 A 
ATOM     28  C   UNL d   1       4.166   0.785   0.000  0.00  0.00     0.002 A 
ENDBRANCH  18  23
ENDBRANCH  14  15
ENDBRANCH  13  14
ENDBRANCH   2  13
BRANCH   7  29
ATOM     29  O   UNL d   1      -0.652  -0.581   0.000  0.00  0.00    -0.326 OA
ATOM     30  C   UNL d   1      -1.387  -0.167   0.000  0.00  0.00     0.181 C 
ENDBRANCH   7  29
BRANCH   8  31
ATOM     31  O   UNL d   1      -0.652   1.074   0.000  0.00  0.00    -0.326 OA
ATOM     32  C   UNL d   1      -1.375   0.652   0.000  0.00  0.00     0.181 C 
ENDBRANCH   8  31
TORSDOF 6
