REMARK  7 active torsions:
REMARK  status: ('A' for Active; 'I' for Inactive)
REMARK    1  A    between atoms: C_2  and  S_1 
REMARK    2  A    between atoms: N_3  and  S_1 
REMARK    3  A    between atoms: C_15  and  N_3 
REMARK    4  A    between atoms: C_4  and  C_9 
REMARK       I    between atoms: N_5  and  C_4 
REMARK    5  A    between atoms: C_16  and  N_5 
REMARK    6  A    between atoms: C_18  and  C_15 
REMARK    7  A    between atoms: C_17  and  C_16 
ROOT
ATOM      1  C   UNL d   1       4.579  -2.082   0.000  0.00  0.00     0.058 A 
ATOM      2  C   UNL d   1       5.106  -1.430   0.000  0.00  0.00     0.005 A 
ATOM      3  C   UNL d   1       4.884  -2.848   0.000  0.00  0.00     0.005 A 
ATOM      4  C   UNL d   1       6.214  -2.325   0.000  0.00  0.00     0.020 A 
ATOM      5  C   UNL d   1       5.913  -1.560   0.000  0.00  0.00     0.002 A 
ATOM      6  C   UNL d   1       5.699  -2.973   0.000  0.00  0.00     0.002 A 
ENDROOT
BRANCH   4   7
ATOM      7  C   UNL d   1       7.038  -2.450   0.000  0.00  0.00     0.112 C 
BRANCH   7   8
ATOM      8  N   UNL d   1       7.556  -1.806   0.000  0.00  0.00    -0.157 NA
BRANCH   8   9
ATOM      9  S   UNL d   1       8.380  -1.932   0.000  0.00  0.00     0.285 S 
ATOM     10  O   UNL d   1       8.505  -1.108   0.000  0.00  0.00    -0.198 OA
ATOM     11  O   UNL d   1       8.246  -2.752   0.000  0.00  0.00    -0.198 OA
BRANCH   9  12
ATOM     12  C   UNL d   1       9.200  -2.062   0.000  0.00  0.00     0.106 A 
ATOM     13  C   UNL d   1       9.501  -2.827   0.000  0.00  0.00     0.024 A 
ATOM     14  C   UNL d   1      10.316  -2.952   0.000  0.00  0.00     0.059 A 
ATOM     15 CL   UNL d   1      10.617  -3.730   0.000  0.00  0.00    -0.082 Cl
ATOM     16  C   UNL d   1      10.830  -2.312   0.000  0.00  0.00     0.011 A 
ATOM     17  C   UNL d   1      10.529  -1.547   0.000  0.00  0.00     0.002 A 
ATOM     18  C   UNL d   1       9.714  -1.422   0.000  0.00  0.00     0.013 A 
ENDBRANCH   9  12
ENDBRANCH   8   9
ENDBRANCH   7   8
ENDBRANCH   4   7
BRANCH   1  19
ATOM     19  C   UNL d   1       3.755  -1.961   0.000  0.00  0.00     0.279 C 
ATOM     20  N   UNL d   1       3.454  -1.196   0.000  0.00  0.00    -0.205 NA
ATOM     21  O   UNL d   1       3.236  -2.614   0.000  0.00  0.00    -0.265 OA
BRANCH  20  22
ATOM     22  C   UNL d   1       2.634  -1.071   0.000  0.00  0.00     0.121 C 
BRANCH  22  23
ATOM     23  C   UNL d   1       2.124  -1.723   0.000  0.00  0.00     0.101 A 
ATOM     24  N   UNL d   1       1.309  -1.597   0.000  0.00  0.00    -0.242 NA
ATOM     25  C   UNL d   1       0.807  -2.250   0.000  0.00  0.00     0.099 A 
ATOM     26  C   UNL d   1       1.108  -3.015   0.000  0.00  0.00     0.021 A 
ATOM     27  C   UNL d   1       1.932  -3.128   0.000  0.00  0.00     0.003 A 
ATOM     28  C   UNL d   1       2.438  -2.475   0.000  0.00  0.00     0.021 A 
ENDBRANCH  22  23
ENDBRANCH  20  22
ENDBRANCH   1  19
TORSDOF 7
