REMARK  3 active torsions:
REMARK  status: ('A' for Active; 'I' for Inactive)
REMARK    1  A    between atoms: N_5  and  C_2 
REMARK    2  A    between atoms: C_8  and  C_3 
REMARK       I    between atoms: C_7  and  N_5 
REMARK    3  A    between atoms: C_10  and  C_7 
ROOT
ATOM      1  N   UNL d   1       1.852  -1.303   0.000  0.00  0.00    -0.200 NA
ATOM      2  C   UNL d   1       1.523  -0.549   0.000  0.00  0.00     0.216 A 
ATOM      3  C   UNL d   1       1.224  -1.852   0.000  0.00  0.00     0.172 A 
ATOM      4  N   UNL d   1       0.516  -1.415   0.000  0.00  0.00    -0.187 NA
ATOM      5  S   UNL d   1       0.712  -0.612   0.000  0.00  0.00     0.054 SA
ENDROOT
BRANCH   2   6
ATOM      6  N   UNL d   1       1.952   0.171   0.000  0.00  0.00    -0.181 NA
ATOM      7  C   UNL d   1       1.565   0.895   0.000  0.00  0.00     0.281 C 
ATOM      8  O   UNL d   1       2.002   1.594   0.000  0.00  0.00    -0.265 OA
BRANCH   7   9
ATOM      9  C   UNL d   1       0.741   0.920   0.000  0.00  0.00     0.058 C 
ATOM     10  C   UNL d   1       0.304   0.221   0.000  0.00  0.00     0.005 C 
ATOM     11  C   UNL d   1       0.354   1.648   0.000  0.00  0.00     0.005 C 
ENDBRANCH   7   9
ENDBRANCH   2   6
BRANCH   3  12
ATOM     12  C   UNL d   1       1.261  -2.676   0.000  0.00  0.00     0.036 A 
ATOM     13  C   UNL d   1       0.562  -3.126   0.000  0.00  0.00     0.003 A 
ATOM     14  C   UNL d   1       0.599  -3.950   0.000  0.00  0.00     0.000 A 
ATOM     15  C   UNL d   1       1.336  -4.333   0.000  0.00  0.00     0.000 A 
ATOM     16  C   UNL d   1       2.035  -3.884   0.000  0.00  0.00     0.000 A 
ATOM     17  C   UNL d   1       1.998  -3.059   0.000  0.00  0.00     0.003 A 
ENDBRANCH   3  12
TORSDOF 3
