REMARK  6 active torsions:
REMARK  status: ('A' for Active; 'I' for Inactive)
REMARK    1  A    between atoms: C_15  and  N_1 
REMARK    2  A    between atoms: S_12  and  C_3 
REMARK    3  A    between atoms: C_4  and  N_11 
REMARK    4  A    between atoms: C_14  and  C_8 
REMARK       I    between atoms: N_11  and  C_13 
REMARK    5  A    between atoms: C_17  and  S_12 
REMARK    6  A    between atoms: C_13  and  C_17 
ROOT
ATOM      1  N   UNL d   1       4.327  -1.429   0.000  0.00  0.00    -0.018 NA
ATOM      2  C   UNL d   1       4.827  -2.078   0.000  0.00  0.00     0.302 C 
ATOM      3  O   UNL d   1       5.651  -1.966   0.000  0.00  0.00    -0.264 OA
ENDROOT
BRANCH   2   4
ATOM      4  C   UNL d   1       4.514  -2.840   0.000  0.00  0.00     0.101 C 
BRANCH   4   5
ATOM      5  S   UNL d   1       3.690  -2.953   0.000  0.00  0.00    -0.041 SA
BRANCH   5   6
ATOM      6  C   UNL d   1       3.377  -3.715   0.000  0.00  0.00     0.219 A 
ATOM      7  N   UNL d   1       3.890  -4.365   0.000  0.00  0.00    -0.186 N 
ATOM      8  N   UNL d   1       3.428  -5.052   0.000  0.00  0.00    -0.038 NA
ATOM      9  N   UNL d   1       2.640  -4.827   0.000  0.00  0.00    -0.022 NA
ATOM     10  N   UNL d   1       2.611  -4.002   0.000  0.00  0.00    -0.101 NA
BRANCH   7  11
ATOM     11  C   UNL d   1       4.710  -4.377   0.000  0.00  0.00     0.087 A 
ATOM     12  C   UNL d   1       5.127  -3.665   0.000  0.00  0.00     0.019 A 
ATOM     13  C   UNL d   1       5.951  -3.673   0.000  0.00  0.00     0.002 A 
ATOM     14  C   UNL d   1       6.364  -4.377   0.000  0.00  0.00     0.000 A 
ATOM     15  C   UNL d   1       5.947  -5.102   0.000  0.00  0.00     0.002 A 
ATOM     16  C   UNL d   1       5.114  -5.098   0.000  0.00  0.00     0.019 A 
ENDBRANCH   7  11
ENDBRANCH   5   6
ENDBRANCH   4   5
ENDBRANCH   2   4
BRANCH   1  17
ATOM     17  C   UNL d   1       3.502  -1.541   0.000  0.00  0.00     0.760 A 
ATOM     18  N   UNL d   1       3.103  -2.253   0.000  0.00  0.00    -0.051 NA
ATOM     19  C   UNL d   1       2.303  -2.091   0.000  0.00  0.00     0.147 A 
ATOM     20  S   UNL d   1       2.211  -1.287   0.000  0.00  0.00     0.052 SA
ATOM     21  N   UNL d   1       2.961  -0.954   0.000  0.00  0.00    -0.019 NA
BRANCH  19  22
ATOM     22  C   UNL d   1       1.716  -2.678   0.000  0.00  0.00     0.026 A 
ATOM     23  C   UNL d   1       1.937  -3.473   0.000  0.00  0.00     0.003 A 
ATOM     24  C   UNL d   1       1.353  -4.052   0.000  0.00  0.00     0.011 A 
ATOM     25  C   UNL d   1       0.554  -3.836   0.000  0.00  0.00     0.058 A 
ATOM     26  C   UNL d   1       0.342  -3.053   0.000  0.00  0.00     0.011 A 
ATOM     27 CL   UNL d   1      -0.037  -4.402   0.000  0.00  0.00    -0.082 Cl
ATOM     28  C   UNL d   1       0.924  -2.466   0.000  0.00  0.00     0.003 A 
ENDBRANCH  19  22
ENDBRANCH   1  17
TORSDOF 6
