REMARK  6 active torsions:
REMARK  status: ('A' for Active; 'I' for Inactive)
REMARK    1  A    between atoms: C_14  and  N_1 
REMARK    2  A    between atoms: S_12  and  C_3 
REMARK    3  A    between atoms: C_4  and  N_11 
REMARK    4  A    between atoms: C_15  and  C_8 
REMARK       I    between atoms: N_11  and  C_13 
REMARK    5  A    between atoms: C_17  and  S_12 
REMARK    6  A    between atoms: C_13  and  C_17 
ROOT
ATOM      1  N   UNL d   1       2.032  -0.317   0.000  0.00  0.00    -0.018 NA
ATOM      2  C   UNL d   1       2.608   0.275   0.000  0.00  0.00     0.302 C 
ATOM      3  O   UNL d   1       3.397   0.083   0.000  0.00  0.00    -0.264 OA
ENDROOT
BRANCH   2   4
ATOM      4  C   UNL d   1       2.379   1.064   0.000  0.00  0.00     0.101 C 
BRANCH   4   5
ATOM      5  S   UNL d   1       2.946   1.661   0.000  0.00  0.00    -0.041 SA
BRANCH   5   6
ATOM      6  C   UNL d   1       2.717   2.450   0.000  0.00  0.00     0.219 A 
ATOM      7  N   UNL d   1       1.907   2.650   0.000  0.00  0.00    -0.186 N 
ATOM      8  N   UNL d   1       1.845   3.464   0.000  0.00  0.00    -0.038 NA
ATOM      9  N   UNL d   1       2.604   3.777   0.000  0.00  0.00    -0.022 NA
ATOM     10  N   UNL d   1       3.147   3.151   0.000  0.00  0.00    -0.101 NA
BRANCH   7  11
ATOM     11  C   UNL d   1       1.256   2.137   0.000  0.00  0.00     0.087 A 
ATOM     12  C   UNL d   1       1.369   1.323   0.000  0.00  0.00     0.019 A 
ATOM     13  C   UNL d   1       0.718   0.814   0.000  0.00  0.00     0.002 A 
ATOM     14  C   UNL d   1      -0.046   1.123   0.000  0.00  0.00     0.000 A 
ATOM     15  C   UNL d   1      -0.159   1.949   0.000  0.00  0.00     0.002 A 
ATOM     16  C   UNL d   1       0.501   2.450   0.000  0.00  0.00     0.019 A 
ENDBRANCH   7  11
ENDBRANCH   5   6
ENDBRANCH   4   5
ENDBRANCH   2   4
BRANCH   1  17
ATOM     17  C   UNL d   1       2.258  -1.119   0.000  0.00  0.00     0.760 A 
ATOM     18  N   UNL d   1       3.034  -1.419   0.000  0.00  0.00    -0.051 NA
ATOM     19  C   UNL d   1       2.984  -2.241   0.000  0.00  0.00     0.147 A 
ATOM     20  S   UNL d   1       2.195  -2.446   0.000  0.00  0.00     0.052 SA
ATOM     21  N   UNL d   1       1.753  -1.753   0.000  0.00  0.00    -0.019 NA
BRANCH  19  22
ATOM     22  C   UNL d   1       3.572  -2.829   0.000  0.00  0.00     0.026 A 
ATOM     23  C   UNL d   1       4.370  -2.617   0.000  0.00  0.00     0.002 A 
ATOM     24  C   UNL d   1       4.950  -3.205   0.000  0.00  0.00     0.000 A 
ATOM     25  C   UNL d   1       4.737  -3.986   0.000  0.00  0.00     0.000 A 
ATOM     26  C   UNL d   1       3.936  -4.211   0.000  0.00  0.00     0.000 A 
ATOM     27  C   UNL d   1       3.355  -3.623   0.000  0.00  0.00     0.002 A 
ENDBRANCH  19  22
ENDBRANCH   1  17
TORSDOF 6
