REMARK  5 active torsions:
REMARK  status: ('A' for Active; 'I' for Inactive)
REMARK    1  A    between atoms: C_11  and  C_5 
REMARK    2  A    between atoms: C_25  and  N_6 
REMARK    3  A    between atoms: N_14  and  C_27 
REMARK    4  A    between atoms: C_26  and  C_25 
REMARK    5  A    between atoms: C_27  and  C_26 
ROOT
ATOM      1  C   UNL d   1       7.188  -7.197   0.000  0.00  0.00     0.082 A 
ATOM      2  C   UNL d   1       6.476  -6.776   0.000  0.00  0.00     0.267 A 
ATOM      3  C   UNL d   1       7.188  -8.025   0.000  0.00  0.00     0.108 A 
ATOM      4  C   UNL d   1       8.625  -7.201   0.000  0.00  0.00     0.113 A 
ATOM      5  C   UNL d   1       7.909  -6.776   0.000  0.00  0.00     0.043 A 
ATOM      6  N   UNL d   1       5.764  -7.197   0.000  0.00  0.00    -0.273 N 
ATOM      7  C   UNL d   1       8.621  -8.025   0.000  0.00  0.00     0.213 A 
ATOM      8  O   UNL d   1       7.900  -8.438   0.000  0.00  0.00    -0.287 OA
ATOM      9  C   UNL d   1       6.476  -8.433   0.000  0.00  0.00     0.043 A 
ATOM     10  C   UNL d   1       5.764  -8.025   0.000  0.00  0.00     0.069 A 
ATOM     11  C   UNL d   1       9.337  -6.788   0.000  0.00  0.00     0.105 C 
ATOM     12  N   UNL d   1      10.049  -6.376   0.000  0.00  0.00    -0.191 NA
ATOM     13  O   UNL d   1       6.476  -5.947   0.000  0.00  0.00    -0.267 OA
ATOM     14  N   UNL d   1       9.333  -8.446   0.000  0.00  0.00    -0.120 N 
ATOM     15  C   UNL d   1       5.039  -8.438   0.000  0.00  0.00     0.019 C 
ENDROOT
BRANCH   5  16
ATOM     16  C   UNL d   1       7.913  -5.951   0.000  0.00  0.00     0.101 A 
ATOM     17  O   UNL d   1       8.575  -5.472   0.000  0.00  0.00    -0.305 OA
ATOM     18  C   UNL d   1       8.325  -4.685   0.000  0.00  0.00     0.123 A 
ATOM     19  C   UNL d   1       7.500  -4.685   0.000  0.00  0.00     0.029 A 
ATOM     20  C   UNL d   1       7.238  -5.464   0.000  0.00  0.00     0.027 A 
ENDBRANCH   5  16
BRANCH   6  21
ATOM     21  C   UNL d   1       5.039  -6.776   0.000  0.00  0.00     0.085 C 
BRANCH  21  22
ATOM     22  C   UNL d   1       4.323  -7.188   0.000  0.00  0.00     0.038 C 
BRANCH  22  23
ATOM     23  C   UNL d   1       3.611  -6.772   0.000  0.00  0.00     0.083 C 
BRANCH  23  24
ATOM     24  N   UNL d   1       2.890  -7.176   0.000  0.00  0.00    -0.285 N 
ATOM     25  C   UNL d   1       2.141  -6.838   0.000  0.00  0.00     0.183 A 
ATOM     26  N   UNL d   1       1.587  -7.446   0.000  0.00  0.00    -0.222 NA
ATOM     27  C   UNL d   1       1.991  -8.163   0.000  0.00  0.00     0.120 A 
ATOM     28  C   UNL d   1       2.790  -8.000   0.000  0.00  0.00     0.102 A 
ENDBRANCH  23  24
ENDBRANCH  22  23
ENDBRANCH  21  22
ENDBRANCH   6  21
TORSDOF 5
