REMARK  4 active torsions:
REMARK  status: ('A' for Active; 'I' for Inactive)
REMARK    1  A    between atoms: C_10  and  C_2 
REMARK    2  A    between atoms: C_13  and  C_6 
REMARK    3  A    between atoms: O_17  and  C_10 
REMARK    4  A    between atoms: C_23  and  O_17 
ROOT
ATOM      1  C   UNL d   1       5.562  -3.851   0.000  0.00  0.00     0.081 A 
ATOM      2  C   UNL d   1       4.129  -3.863   0.000  0.00  0.00     0.106 A 
ATOM      3  C   UNL d   1       4.117  -3.033   0.000  0.00  0.00     0.208 A 
ATOM      4  C   UNL d   1       5.550  -3.020   0.000  0.00  0.00     0.108 A 
ATOM      5  C   UNL d   1       6.285  -4.254   0.000  0.00  0.00     0.281 A 
ATOM      6  C   UNL d   1       4.852  -4.275   0.000  0.00  0.00     0.015 A 
ATOM      7  O   UNL d   1       4.835  -2.617   0.000  0.00  0.00    -0.288 OA
ATOM      8  N   UNL d   1       6.996  -3.830   0.000  0.00  0.00    -0.208 NA
ATOM      9  C   UNL d   1       6.260  -2.592   0.000  0.00  0.00     0.044 A 
ATOM     10  C   UNL d   1       6.992  -2.995   0.000  0.00  0.00     0.087 A 
ATOM     11  O   UNL d   1       6.294  -5.076   0.000  0.00  0.00    -0.265 OA
ATOM     12  N   UNL d   1       3.406  -2.634   0.000  0.00  0.00    -0.121 N 
ATOM     13  C   UNL d   1       7.694  -2.580   0.000  0.00  0.00     0.021 C 
ENDROOT
BRANCH   6  14
ATOM     14  C   UNL d   1       4.865  -5.097   0.000  0.00  0.00     0.004 A 
ATOM     15  C   UNL d   1       4.154  -5.513   0.000  0.00  0.00     0.021 A 
ATOM     16  C   UNL d   1       4.167  -6.335   0.000  0.00  0.00     0.099 A 
ATOM     17  N   UNL d   1       4.885  -6.734   0.000  0.00  0.00    -0.242 NA
ATOM     18  C   UNL d   1       5.596  -6.310   0.000  0.00  0.00     0.099 A 
ATOM     19  C   UNL d   1       5.583  -5.496   0.000  0.00  0.00     0.021 A 
ENDBRANCH   6  14
BRANCH   2  20
ATOM     20  C   UNL d   1       3.419  -4.279   0.000  0.00  0.00     0.304 C 
ATOM     21  O   UNL d   1       3.431  -5.101   0.000  0.00  0.00    -0.259 OA
BRANCH  20  22
ATOM     22  O   UNL d   1       2.708  -3.880   0.000  0.00  0.00    -0.271 OA
BRANCH  22  23
ATOM     23  C   UNL d   1       1.994  -4.287   0.000  0.00  0.00     0.126 C 
ATOM     24  C   UNL d   1       1.284  -3.868   0.000  0.00  0.00     0.029 C 
ENDBRANCH  22  23
ENDBRANCH  20  22
ENDBRANCH   2  20
TORSDOF 4
