REMARK  5 active torsions:
REMARK  status: ('A' for Active; 'I' for Inactive)
REMARK    1  A    between atoms: S_9  and  C_2 
REMARK    2  A    between atoms: C_19  and  S_9 
REMARK    3  A    between atoms: C_11  and  C_19 
REMARK       I    between atoms: N_16  and  C_11 
REMARK    4  A    between atoms: C_22  and  N_16 
REMARK    5  A    between atoms: C_21  and  C_22 
ROOT
ATOM      1  C   UNL d   1       3.250  -2.027   0.000  0.00  0.00     0.092 A 
ATOM      2  C   UNL d   1       3.250  -2.859   0.000  0.00  0.00     0.120 A 
ATOM      3  N   UNL d   1       2.539  -3.263   0.000  0.00  0.00    -0.238 NA
ATOM      4  C   UNL d   1       2.539  -1.602   0.000  0.00  0.00     0.013 A 
ATOM      5  C   UNL d   1       1.823  -2.027   0.000  0.00  0.00     0.018 A 
ATOM      6  C   UNL d   1       1.823  -2.851   0.000  0.00  0.00     0.082 A 
ATOM      7  C   UNL d   1       3.974  -1.615   0.000  0.00  0.00     0.103 C 
ATOM      8  N   UNL d   1       4.686  -1.198   0.000  0.00  0.00    -0.191 NA
ATOM      9  C   UNL d   1       2.539  -0.778   0.000  0.00  0.00     0.001 A 
ATOM     10  C   UNL d   1       1.103  -1.611   0.000  0.00  0.00     0.002 A 
ATOM     11  C   UNL d   1       1.111  -3.263   0.000  0.00  0.00     0.021 C 
ATOM     12  C   UNL d   1       1.827  -0.366   0.000  0.00  0.00     0.000 A 
ATOM     13  C   UNL d   1       1.103  -0.778   0.000  0.00  0.00     0.000 A 
ENDROOT
BRANCH   2  14
ATOM     14  S   UNL d   1       3.970  -3.271   0.000  0.00  0.00    -0.062 SA
BRANCH  14  15
ATOM     15  C   UNL d   1       4.682  -2.851   0.000  0.00  0.00     0.099 C 
BRANCH  15  16
ATOM     16  C   UNL d   1       5.397  -3.259   0.000  0.00  0.00     0.286 C 
ATOM     17  N   UNL d   1       6.109  -2.838   0.000  0.00  0.00    -0.206 NA
ATOM     18  O   UNL d   1       5.406  -4.087   0.000  0.00  0.00    -0.265 OA
BRANCH  17  19
ATOM     19  C   UNL d   1       6.833  -3.238   0.000  0.00  0.00     0.102 C 
BRANCH  19  20
ATOM     20  C   UNL d   1       7.541  -2.813   0.000  0.00  0.00     0.021 A 
ATOM     21  C   UNL d   1       8.257  -3.213   0.000  0.00  0.00     0.028 A 
ATOM     22  C   UNL d   1       8.964  -2.788   0.000  0.00  0.00     0.119 A 
ATOM     23  O   UNL d   1       9.750  -3.034   0.000  0.00  0.00    -0.300 OA
ATOM     24  C   UNL d   1       8.951  -1.973   0.000  0.00  0.00     0.119 A 
ATOM     25  C   UNL d   1      10.225  -2.360   0.000  0.00  0.00     0.304 A 
ATOM     26  O   UNL d   1       9.730  -1.702   0.000  0.00  0.00    -0.300 OA
ATOM     27  C   UNL d   1       8.219  -1.565   0.000  0.00  0.00     0.026 A 
ATOM     28  C   UNL d   1       7.520  -1.998   0.000  0.00  0.00     0.004 A 
ENDBRANCH  19  20
ENDBRANCH  17  19
ENDBRANCH  15  16
ENDBRANCH  14  15
ENDBRANCH   2  14
TORSDOF 5
