REMARK  4 active torsions:
REMARK  status: ('A' for Active; 'I' for Inactive)
REMARK    1  A    between atoms: C_13  and  N_5 
REMARK    2  A    between atoms: C_14  and  C_6 
REMARK    3  A    between atoms: C_21  and  C_13 
REMARK    4  A    between atoms: O_25  and  C_20 
ROOT
ATOM      1  C   UNL d   1       6.804  -9.379   0.000  0.00  0.00     0.080 A 
ATOM      2  C   UNL d   1       6.088  -8.954   0.000  0.00  0.00     0.267 A 
ATOM      3  C   UNL d   1       6.800 -10.204   0.000  0.00  0.00     0.108 A 
ATOM      4  C   UNL d   1       8.238  -9.379   0.000  0.00  0.00     0.111 A 
ATOM      5  N   UNL d   1       5.375  -9.379   0.000  0.00  0.00    -0.273 N 
ATOM      6  C   UNL d   1       7.517  -8.963   0.000  0.00  0.00     0.020 A 
ATOM      7  C   UNL d   1       8.229 -10.213   0.000  0.00  0.00     0.213 A 
ATOM      8  C   UNL d   1       6.088 -10.617   0.000  0.00  0.00     0.043 A 
ATOM      9  O   UNL d   1       7.513 -10.617   0.000  0.00  0.00    -0.287 OA
ATOM     10  C   UNL d   1       5.375 -10.204   0.000  0.00  0.00     0.069 A 
ATOM     11  C   UNL d   1       8.954  -8.975   0.000  0.00  0.00     0.105 C 
ATOM     12  N   UNL d   1       9.667  -8.554   0.000  0.00  0.00    -0.191 NA
ATOM     13  O   UNL d   1       6.088  -8.129   0.000  0.00  0.00    -0.267 OA
ATOM     14  N   UNL d   1       8.942 -10.629   0.000  0.00  0.00    -0.120 N 
ATOM     15  C   UNL d   1       4.654 -10.617   0.000  0.00  0.00     0.019 C 
ENDROOT
BRANCH   6  16
ATOM     16  C   UNL d   1       7.525  -8.137   0.000  0.00  0.00     0.001 A 
ATOM     17  C   UNL d   1       8.238  -7.729   0.000  0.00  0.00     0.002 A 
ATOM     18  C   UNL d   1       8.242  -6.904   0.000  0.00  0.00     0.024 A 
ATOM     19  C   UNL d   1       7.529  -6.492   0.000  0.00  0.00     0.094 A 
ATOM     20  C   UNL d   1       6.804  -6.904   0.000  0.00  0.00     0.024 A 
ATOM     21  C   UNL d   1       6.812  -7.729   0.000  0.00  0.00     0.002 A 
BRANCH  19  22
ATOM     22  O   UNL d   1       7.529  -5.667   0.000  0.00  0.00    -0.328 OA
ATOM     23  C   UNL d   1       8.242  -5.254   0.000  0.00  0.00     0.181 C 
ENDBRANCH  19  22
ENDBRANCH   6  16
BRANCH   5  24
ATOM     24  C   UNL d   1       4.654  -8.963   0.000  0.00  0.00     0.083 C 
BRANCH  24  25
ATOM     25  C   UNL d   1       3.929  -9.367   0.000  0.00  0.00     0.021 A 
ATOM     26  C   UNL d   1       3.217  -8.954   0.000  0.00  0.00     0.022 A 
ATOM     27  C   UNL d   1       2.504  -9.367   0.000  0.00  0.00     0.099 A 
ATOM     28  N   UNL d   1       2.500 -10.188   0.000  0.00  0.00    -0.242 NA
ATOM     29  C   UNL d   1       3.217 -10.604   0.000  0.00  0.00     0.099 A 
ATOM     30  C   UNL d   1       3.929 -10.192   0.000  0.00  0.00     0.022 A 
ENDBRANCH  24  25
ENDBRANCH   5  24
TORSDOF 4
