REMARK  4 active torsions:
REMARK  status: ('A' for Active; 'I' for Inactive)
REMARK    1  A    between atoms: N_3  and  S_1 
REMARK    2  A    between atoms: C_4  and  S_1 
REMARK    3  A    between atoms: C_2  and  C_5 
REMARK    4  A    between atoms: C_8  and  N_3 
ROOT
ATOM      1  N   UNL d   1       4.463  -3.697   0.000  0.00  0.00    -0.158 NA
ENDROOT
BRANCH   1   2
ATOM      2  S   UNL d   1       5.287  -3.697   0.000  0.00  0.00     0.285 S 
ATOM      3  O   UNL d   1       5.300  -2.864   0.000  0.00  0.00    -0.198 OA
ATOM      4  O   UNL d   1       5.275  -4.521   0.000  0.00  0.00    -0.198 OA
BRANCH   2   5
ATOM      5  C   UNL d   1       6.112  -3.689   0.000  0.00  0.00     0.105 A 
ATOM      6  C   UNL d   1       6.520  -2.977   0.000  0.00  0.00     0.013 A 
ATOM      7  C   UNL d   1       7.336  -2.977   0.000  0.00  0.00     0.001 A 
ATOM      8  C   UNL d   1       7.760  -3.689   0.000  0.00  0.00     0.000 A 
ATOM      9  C   UNL d   1       7.348  -4.401   0.000  0.00  0.00     0.001 A 
ATOM     10  C   UNL d   1       8.585  -3.689   0.000  0.00  0.00     0.000 C 
ATOM     11  C   UNL d   1       6.524  -4.409   0.000  0.00  0.00     0.013 A 
ENDBRANCH   2   5
ENDBRANCH   1   2
BRANCH   1  12
ATOM     12  C   UNL d   1       3.972  -3.027   0.000  0.00  0.00     0.094 A 
ATOM     13  C   UNL d   1       3.147  -3.122   0.000  0.00  0.00     0.024 A 
ATOM     14  C   UNL d   1       2.660  -2.452   0.000  0.00  0.00     0.073 A 
ATOM     15  C   UNL d   1       2.989  -1.690   0.000  0.00  0.00     0.004 A 
ATOM     16  C   UNL d   1       3.813  -1.603   0.000  0.00  0.00     0.002 A 
ATOM     17  C   UNL d   1       4.301  -2.273   0.000  0.00  0.00     0.020 A 
BRANCH  14  18
ATOM     18  C   UNL d   1       1.840  -2.540   0.000  0.00  0.00     0.419 C 
ATOM     19  F   UNL d   1       1.353  -1.873   0.000  0.00  0.00    -0.166 F 
ATOM     20  F   UNL d   1       1.503  -3.289   0.000  0.00  0.00    -0.166 F 
ATOM     21  F   UNL d   1       1.965  -1.724   0.000  0.00  0.00    -0.166 F 
ENDBRANCH  14  18
ENDBRANCH   1  12
TORSDOF 4
