REMARK  4 active torsions:
REMARK  status: ('A' for Active; 'I' for Inactive)
REMARK    1  A    between atoms: C_3  and  C_1 
REMARK    2  A    between atoms: C_8  and  C_3 
REMARK    3  A    between atoms: O_6  and  C_8 
REMARK    4  A    between atoms: C_7  and  O_6 
ROOT
ATOM      1  C   UNL d   1       6.142  -3.812   0.000  0.00  0.00     0.223 C 
ATOM      2  O   UNL d   1       6.142  -4.639   0.000  0.00  0.00    -0.284 OA
ENDROOT
BRANCH   1   3
ATOM      3  C   UNL d   1       5.428  -3.399   0.000  0.00  0.00     0.080 A 
ATOM      4  C   UNL d   1       5.428  -2.572   0.000  0.00  0.00     0.202 A 
ATOM      5  C   UNL d   1       4.714  -2.159   0.000  0.00  0.00     0.084 A 
ATOM      6  O   UNL d   1       6.142  -2.159   0.000  0.00  0.00    -0.286 OA
ATOM      7  C   UNL d   1       4.000  -2.580   0.000  0.00  0.00     0.199 A 
ATOM      8  C   UNL d   1       4.000  -3.399   0.000  0.00  0.00     0.042 A 
ATOM      9  O   UNL d   1       3.273  -2.159   0.000  0.00  0.00    -0.286 OA
ATOM     10  C   UNL d   1       4.714  -3.812   0.000  0.00  0.00     0.010 A 
ENDBRANCH   1   3
BRANCH   1  11
ATOM     11  C   UNL d   1       6.864  -3.399   0.000  0.00  0.00     0.165 C 
BRANCH  11  12
ATOM     12  O   UNL d   1       7.578  -3.820   0.000  0.00  0.00    -0.301 OA
BRANCH  12  13
ATOM     13  C   UNL d   1       8.292  -3.399   0.000  0.00  0.00     0.106 A 
ATOM     14  C   UNL d   1       9.010  -3.800   0.000  0.00  0.00     0.057 A 
ATOM     15 BR   UNL d   1       9.010  -4.626   0.000  0.00  0.00    -0.047 Br
ATOM     16  C   UNL d   1       9.720  -3.382   0.000  0.00  0.00     0.009 A 
ATOM     17  C   UNL d   1       9.712  -2.555   0.000  0.00  0.00     0.001 A 
ATOM     18  C   UNL d   1       8.985  -2.146   0.000  0.00  0.00     0.002 A 
ATOM     19  C   UNL d   1       8.280  -2.572   0.000  0.00  0.00     0.025 A 
ENDBRANCH  12  13
ENDBRANCH  11  12
ENDBRANCH   1  11
TORSDOF 4
