REMARK  5 active torsions:
REMARK  status: ('A' for Active; 'I' for Inactive)
REMARK    1  A    between atoms: C_7  and  C_1 
REMARK    2  A    between atoms: C_8  and  C_2 
REMARK    3  A    between atoms: O_22  and  C_8 
REMARK    4  A    between atoms: C_24  and  C_14 
REMARK    5  A    between atoms: C_27  and  O_22 
ROOT
ATOM      1  C   UNL d   1       1.137  -2.017   0.000  0.00  0.00     0.067 A 
ATOM      2  C   UNL d   1       1.137  -1.192   0.000  0.00  0.00     0.166 A 
ATOM      3  C   UNL d   1       0.417  -2.429   0.000  0.00  0.00     0.200 A 
ATOM      4  C   UNL d   1      -0.296  -2.017   0.000  0.00  0.00     0.062 A 
ATOM      5  O   UNL d   1       0.417  -0.779   0.000  0.00  0.00    -0.301 OA
ATOM      6  C   UNL d   1      -0.296  -1.192   0.000  0.00  0.00     0.106 A 
ATOM      7  C   UNL d   1      -1.008  -2.429   0.000  0.00  0.00     0.008 A 
ATOM      8  C   UNL d   1      -1.008  -0.779   0.000  0.00  0.00     0.067 A 
ATOM      9  C   UNL d   1      -1.721  -1.192   0.000  0.00  0.00     0.198 A 
ATOM     10  C   UNL d   1      -1.721  -2.017   0.000  0.00  0.00     0.039 A 
ATOM     11  O   UNL d   1       0.417  -3.254   0.000  0.00  0.00    -0.286 OA
ATOM     12  O   UNL d   1      -2.446  -0.779   0.000  0.00  0.00    -0.286 OA
ENDROOT
BRANCH   1  13
ATOM     13  C   UNL d   1       1.850  -2.429   0.000  0.00  0.00     0.007 A 
ATOM     14  C   UNL d   1       2.567  -2.017   0.000  0.00  0.00     0.027 A 
ATOM     15  C   UNL d   1       3.279  -2.429   0.000  0.00  0.00     0.123 A 
ATOM     16  O   UNL d   1       3.992  -2.013   0.000  0.00  0.00    -0.301 OA
ATOM     17  C   UNL d   1       3.279  -3.254   0.000  0.00  0.00     0.123 A 
ATOM     18  C   UNL d   1       4.717  -2.438   0.000  0.00  0.00     0.149 A 
ATOM     19  C   UNL d   1       4.725  -3.263   0.000  0.00  0.00     0.149 A 
ATOM     20  O   UNL d   1       4.004  -3.675   0.000  0.00  0.00    -0.301 OA
ATOM     21  C   UNL d   1       2.562  -3.667   0.000  0.00  0.00     0.027 A 
ATOM     22  C   UNL d   1       1.850  -3.254   0.000  0.00  0.00     0.002 A 
ENDBRANCH   1  13
BRANCH   2  23
ATOM     23  C   UNL d   1       1.854  -0.779   0.000  0.00  0.00     0.323 C 
ATOM     24  O   UNL d   1       1.854   0.046   0.000  0.00  0.00    -0.257 OA
BRANCH  23  25
ATOM     25  O   UNL d   1       2.567  -1.192   0.000  0.00  0.00    -0.270 OA
BRANCH  25  26
ATOM     26  C   UNL d   1       3.279  -0.779   0.000  0.00  0.00     0.126 C 
ATOM     27  C   UNL d   1       3.992  -1.192   0.000  0.00  0.00     0.029 C 
ENDBRANCH  25  26
ENDBRANCH  23  25
ENDBRANCH   2  23
BRANCH  10  28
ATOM     28  C   UNL d   1      -2.438  -2.429   0.000  0.00  0.00     0.003 C 
ATOM     29  C   UNL d   1      -2.446  -3.254   0.000  0.00  0.00     0.000 C 
ENDBRANCH  10  28
TORSDOF 5
