REMARK  6 active torsions:
REMARK  status: ('A' for Active; 'I' for Inactive)
REMARK    1  A    between atoms: C_4  and  C_1 
REMARK    2  A    between atoms: C_7  and  C_4 
REMARK    3  A    between atoms: N_10  and  C_7 
REMARK    4  A    between atoms: C_13  and  N_10 
REMARK    5  A    between atoms: O_18  and  C_11 
REMARK    6  A    between atoms: O_20  and  C_15 
ROOT
ATOM      1  C   UNL d   1       9.267  -3.317   0.000  0.00  0.00     0.122 C 
ATOM      2  C   UNL d   1       9.679  -4.029   0.000  0.00  0.00     0.106 C 
ATOM      3  N   UNL d   1      10.092  -4.742   0.000  0.00  0.00    -0.191 NA
ENDROOT
BRANCH   1   4
ATOM      4  C   UNL d   1       8.442  -3.317   0.000  0.00  0.00     0.159 A 
ATOM      5  N   UNL d   1       7.954  -2.650   0.000  0.00  0.00    -0.226 NA
ATOM      6  C   UNL d   1       7.175  -2.904   0.000  0.00  0.00     0.099 A 
ATOM      7  C   UNL d   1       6.454  -2.492   0.000  0.00  0.00     0.021 A 
ATOM      8  C   UNL d   1       7.175  -3.729   0.000  0.00  0.00     0.083 A 
ATOM      9  C   UNL d   1       5.742  -2.913   0.000  0.00  0.00     0.002 A 
ATOM     10  C   UNL d   1       5.742  -3.737   0.000  0.00  0.00     0.002 A 
ATOM     11  C   UNL d   1       6.454  -4.150   0.000  0.00  0.00     0.019 A 
ATOM     12  N   UNL d   1       7.954  -3.987   0.000  0.00  0.00    -0.287 N 
ATOM     13  C   UNL d   1       8.217  -4.775   0.000  0.00  0.00     0.101 C 
ENDBRANCH   1   4
BRANCH   1  14
ATOM     14  C   UNL d   1       9.679  -2.604   0.000  0.00  0.00     0.112 C 
BRANCH  14  15
ATOM     15  N   UNL d   1      10.504  -2.604   0.000  0.00  0.00    -0.241 NA
BRANCH  15  16
ATOM     16  C   UNL d   1      10.917  -1.892   0.000  0.00  0.00     0.104 A 
ATOM     17  C   UNL d   1      11.742  -1.892   0.000  0.00  0.00     0.114 A 
ATOM     18  C   UNL d   1      12.154  -1.179   0.000  0.00  0.00     0.050 A 
ATOM     19  C   UNL d   1      11.742  -0.463   0.000  0.00  0.00     0.096 A 
ATOM     20  C   UNL d   1      10.917  -0.467   0.000  0.00  0.00     0.026 A 
ATOM     21  C   UNL d   1      10.504  -1.179   0.000  0.00  0.00     0.023 A 
BRANCH  17  22
ATOM     22  O   UNL d   1      12.154  -2.604   0.000  0.00  0.00    -0.327 OA
ATOM     23  C   UNL d   1      12.979  -2.604   0.000  0.00  0.00     0.181 C 
ENDBRANCH  17  22
BRANCH  19  24
ATOM     24  O   UNL d   1      12.154   0.250   0.000  0.00  0.00    -0.328 OA
ATOM     25  C   UNL d   1      11.742   0.971   0.000  0.00  0.00     0.181 C 
ENDBRANCH  19  24
ENDBRANCH  15  16
ENDBRANCH  14  15
ENDBRANCH   1  14
TORSDOF 6
