REMARK  5 active torsions:
REMARK  status: ('A' for Active; 'I' for Inactive)
REMARK    1  A    between atoms: C_7  and  C_1 
REMARK    2  A    between atoms: C_6  and  O_13 
REMARK    3  A    between atoms: C_12  and  C_6 
REMARK    4  A    between atoms: O_13  and  C_10 
REMARK    5  A    between atoms: C_28  and  C_14 
ROOT
ATOM      1  C   UNL d   1       8.054  -1.512   0.000  0.00  0.00     0.064 A 
ATOM      2  C   UNL d   1       6.629  -1.512   0.000  0.00  0.00     0.062 A 
ATOM      3  C   UNL d   1       7.342  -1.925   0.000  0.00  0.00     0.199 A 
ATOM      4  C   UNL d   1       8.054  -0.688   0.000  0.00  0.00     0.126 A 
ATOM      5  C   UNL d   1       6.629  -0.688   0.000  0.00  0.00     0.105 A 
ATOM      6  O   UNL d   1       7.342  -0.275   0.000  0.00  0.00    -0.305 OA
ATOM      7  C   UNL d   1       5.917  -1.925   0.000  0.00  0.00     0.007 A 
ATOM      8  C   UNL d   1       5.200  -0.688   0.000  0.00  0.00     0.105 A 
ATOM      9  C   UNL d   1       5.917  -0.275   0.000  0.00  0.00     0.050 A 
ATOM     10  C   UNL d   1       5.200  -1.512   0.000  0.00  0.00     0.023 A 
ATOM     11  O   UNL d   1       7.342  -2.750   0.000  0.00  0.00    -0.286 OA
ENDROOT
BRANCH   1  12
ATOM     12  C   UNL d   1       8.767  -1.925   0.000  0.00  0.00     0.007 A 
ATOM     13  C   UNL d   1       9.492  -1.512   0.000  0.00  0.00     0.027 A 
ATOM     14  C   UNL d   1      10.200  -1.917   0.000  0.00  0.00     0.123 A 
ATOM     15  O   UNL d   1      10.912  -1.504   0.000  0.00  0.00    -0.301 OA
ATOM     16  C   UNL d   1      10.204  -2.754   0.000  0.00  0.00     0.123 A 
ATOM     17  C   UNL d   1      11.629  -1.917   0.000  0.00  0.00     0.149 A 
ATOM     18  C   UNL d   1      11.637  -2.742   0.000  0.00  0.00     0.149 A 
ATOM     19  O   UNL d   1      10.917  -3.163   0.000  0.00  0.00    -0.301 OA
ATOM     20  C   UNL d   1       9.479  -3.167   0.000  0.00  0.00     0.027 A 
ATOM     21  C   UNL d   1       8.767  -2.754   0.000  0.00  0.00     0.002 A 
ENDBRANCH   1  12
BRANCH  10  22
ATOM     22  C   UNL d   1       4.479  -1.925   0.000  0.00  0.00     0.002 C 
ATOM     23  C   UNL d   1       3.767  -1.512   0.000  0.00  0.00     0.000 C 
ENDBRANCH  10  22
BRANCH   8  24
ATOM     24  O   UNL d   1       4.479  -0.275   0.000  0.00  0.00    -0.271 OA
BRANCH  24  25
ATOM     25  C   UNL d   1       4.475   0.550   0.000  0.00  0.00     0.323 C 
ATOM     26  O   UNL d   1       5.179   0.971   0.000  0.00  0.00    -0.257 OA
BRANCH  25  27
ATOM     27  C   UNL d   1       3.754   0.958   0.000  0.00  0.00     0.163 A 
ATOM     28  O   UNL d   1       3.004   0.621   0.000  0.00  0.00    -0.300 OA
ATOM     29  C   UNL d   1       2.442   1.225   0.000  0.00  0.00     0.123 A 
ATOM     30  C   UNL d   1       2.854   1.946   0.000  0.00  0.00     0.029 A 
ATOM     31  C   UNL d   1       3.667   1.775   0.000  0.00  0.00     0.032 A 
ENDBRANCH  25  27
ENDBRANCH  24  25
ENDBRANCH   8  24
TORSDOF 5
