REMARK  6 active torsions:
REMARK  status: ('A' for Active; 'I' for Inactive)
REMARK    1  A    between atoms: C_11  and  C_3 
REMARK    2  A    between atoms: C_12  and  C_4 
REMARK    3  A    between atoms: C_13  and  C_7 
REMARK    4  A    between atoms: N_15  and  C_11 
REMARK    5  A    between atoms: N_14  and  C_12 
REMARK    6  A    between atoms: O_24  and  C_21 
ROOT
ATOM      1  C   UNL d   1       7.770  -6.342   0.000  0.00  0.00     0.101 A 
ATOM      2  C   UNL d   1       7.770  -5.516   0.000  0.00  0.00     0.111 A 
ATOM      3  C   UNL d   1       7.056  -5.102   0.000  0.00  0.00     0.080 A 
ATOM      4  C   UNL d   1       6.351  -6.342   0.000  0.00  0.00     0.096 A 
ATOM      5  C   UNL d   1       8.493  -6.752   0.000  0.00  0.00     0.203 A 
ATOM      6  C   UNL d   1       7.056  -6.752   0.000  0.00  0.00     0.205 A 
ATOM      7  C   UNL d   1       9.207  -6.338   0.000  0.00  0.00     0.064 A 
ATOM      8  C   UNL d   1       6.351  -5.516   0.000  0.00  0.00     0.203 A 
ATOM      9  O   UNL d   1       8.484  -5.090   0.000  0.00  0.00    -0.305 OA
ATOM     10  C   UNL d   1       9.207  -5.503   0.000  0.00  0.00     0.126 A 
ATOM     11  O   UNL d   1       8.493  -7.570   0.000  0.00  0.00    -0.286 OA
ATOM     12  O   UNL d   1       7.056  -7.578   0.000  0.00  0.00    -0.286 OA
ATOM     13  O   UNL d   1       5.628  -5.102   0.000  0.00  0.00    -0.286 OA
ENDROOT
BRANCH   7  14
ATOM     14  C   UNL d   1       9.921  -6.752   0.000  0.00  0.00     0.005 A 
ATOM     15  C   UNL d   1      10.634  -6.330   0.000  0.00  0.00     0.002 A 
ATOM     16  C   UNL d   1      11.348  -6.743   0.000  0.00  0.00     0.024 A 
ATOM     17  C   UNL d   1      11.353  -7.570   0.000  0.00  0.00     0.094 A 
ATOM     18  C   UNL d   1      10.639  -7.983   0.000  0.00  0.00     0.024 A 
ATOM     19  C   UNL d   1       9.921  -7.578   0.000  0.00  0.00     0.002 A 
BRANCH  17  20
ATOM     20  O   UNL d   1      12.067  -7.983   0.000  0.00  0.00    -0.328 OA
ATOM     21  C   UNL d   1      12.781  -7.566   0.000  0.00  0.00     0.181 C 
ENDBRANCH  17  20
ENDBRANCH   7  14
BRANCH   3  22
ATOM     22  C   UNL d   1       7.065  -4.276   0.000  0.00  0.00     0.085 C 
BRANCH  22  23
ATOM     23  N   UNL d   1       6.342  -3.862   0.000  0.00  0.00    -0.302 N 
ATOM     24  C   UNL d   1       6.342  -3.035   0.000  0.00  0.00     0.080 A 
ATOM     25  C   UNL d   1       5.628  -2.630   0.000  0.00  0.00     0.019 A 
ATOM     26  C   UNL d   1       4.910  -3.048   0.000  0.00  0.00     0.003 A 
ATOM     27  C   UNL d   1       4.914  -3.870   0.000  0.00  0.00     0.019 A 
ATOM     28  C   UNL d   1       5.628  -4.284   0.000  0.00  0.00     0.080 A 
ENDBRANCH  22  23
ENDBRANCH   3  22
BRANCH   4  29
ATOM     29  C   UNL d   1       5.637  -6.756   0.000  0.00  0.00     0.087 C 
BRANCH  29  30
ATOM     30  N   UNL d   1       5.637  -7.582   0.000  0.00  0.00    -0.302 N 
ATOM     31  C   UNL d   1       4.923  -7.996   0.000  0.00  0.00     0.080 A 
ATOM     32  C   UNL d   1       4.923  -8.822   0.000  0.00  0.00     0.019 A 
ATOM     33  C   UNL d   1       5.641  -9.236   0.000  0.00  0.00     0.003 A 
ATOM     34  C   UNL d   1       6.355  -8.822   0.000  0.00  0.00     0.019 A 
ATOM     35  C   UNL d   1       6.355  -7.996   0.000  0.00  0.00     0.080 A 
ENDBRANCH  29  30
ENDBRANCH   4  29
TORSDOF 6
