REMARK  2 active torsions:
REMARK  status: ('A' for Active; 'I' for Inactive)
REMARK    1  A    between atoms: C_6  and  C_1 
REMARK    2  A    between atoms: C_10  and  C_6 
ROOT
ATOM      1  C   UNL d   1       6.322  -1.702   0.000  0.00  0.00     0.139 A 
ATOM      2  C   UNL d   1       5.049  -1.290   0.000  0.00  0.00     0.064 A 
ATOM      3  C   UNL d   1       5.835  -1.036   0.000  0.00  0.00     0.220 A 
ATOM      4  C   UNL d   1       5.049  -2.114   0.000  0.00  0.00     0.106 A 
ATOM      5  O   UNL d   1       5.835  -2.364   0.000  0.00  0.00    -0.304 OA
ATOM      6  C   UNL d   1       4.345  -2.535   0.000  0.00  0.00     0.067 A 
ATOM      7  C   UNL d   1       4.337  -0.878   0.000  0.00  0.00     0.009 A 
ATOM      8  O   UNL d   1       6.097  -0.250   0.000  0.00  0.00    -0.284 OA
ATOM      9  C   UNL d   1       3.633  -2.127   0.000  0.00  0.00     0.198 A 
ATOM     10  C   UNL d   1       3.625  -1.299   0.000  0.00  0.00     0.042 A 
ATOM     11  O   UNL d   1       2.913  -2.551   0.000  0.00  0.00    -0.286 OA
ENDROOT
BRANCH   1  12
ATOM     12  C   UNL d   1       7.146  -1.702   0.000  0.00  0.00     0.028 C 
BRANCH  12  13
ATOM     13  C   UNL d   1       7.558  -2.426   0.000  0.00  0.00     0.002 A 
ATOM     14  C   UNL d   1       8.382  -2.426   0.000  0.00  0.00     0.001 A 
ATOM     15  C   UNL d   1       8.794  -3.138   0.000  0.00  0.00     0.007 A 
ATOM     16  C   UNL d   1       8.382  -3.858   0.000  0.00  0.00     0.035 A 
ATOM     17  C   UNL d   1       7.554  -3.858   0.000  0.00  0.00     0.007 A 
ATOM     18 BR   UNL d   1       8.782  -4.574   0.000  0.00  0.00    -0.049 Br
ATOM     19  C   UNL d   1       7.142  -3.138   0.000  0.00  0.00     0.001 A 
ENDBRANCH  12  13
ENDBRANCH   1  12
TORSDOF 2
