REMARK  4 active torsions:
REMARK  status: ('A' for Active; 'I' for Inactive)
REMARK    1  A    between atoms: C_8  and  C_1 
REMARK    2  A    between atoms: C_12  and  C_3 
REMARK    3  A    between atoms: N_10  and  C_8 
REMARK    4  A    between atoms: C_25  and  C_13 
ROOT
ATOM      1  C   UNL d   1       2.842  -1.867   0.000  0.00  0.00     0.079 A 
ATOM      2  C   UNL d   1       3.554  -3.104   0.000  0.00  0.00     0.062 A 
ATOM      3  C   UNL d   1       4.979  -3.104   0.000  0.00  0.00     0.064 A 
ATOM      4  C   UNL d   1       3.554  -2.279   0.000  0.00  0.00     0.108 A 
ATOM      5  C   UNL d   1       4.267  -3.517   0.000  0.00  0.00     0.199 A 
ATOM      6  O   UNL d   1       4.267  -1.867   0.000  0.00  0.00    -0.305 OA
ATOM      7  C   UNL d   1       4.979  -2.279   0.000  0.00  0.00     0.126 A 
ATOM      8  C   UNL d   1       2.125  -2.279   0.000  0.00  0.00     0.199 A 
ATOM      9  C   UNL d   1       2.842  -3.517   0.000  0.00  0.00     0.008 A 
ATOM     10  C   UNL d   1       2.125  -3.104   0.000  0.00  0.00     0.039 A 
ATOM     11  O   UNL d   1       4.267  -4.342   0.000  0.00  0.00    -0.286 OA
ATOM     12  O   UNL d   1       1.417  -1.875   0.000  0.00  0.00    -0.286 OA
ENDROOT
BRANCH   3  13
ATOM     13  C   UNL d   1       5.692  -3.517   0.000  0.00  0.00     0.007 A 
ATOM     14  C   UNL d   1       6.417  -3.104   0.000  0.00  0.00     0.027 A 
ATOM     15  C   UNL d   1       7.129  -3.517   0.000  0.00  0.00     0.123 A 
ATOM     16  O   UNL d   1       7.842  -3.104   0.000  0.00  0.00    -0.301 OA
ATOM     17  C   UNL d   1       7.125  -4.342   0.000  0.00  0.00     0.123 A 
ATOM     18  C   UNL d   1       8.562  -3.517   0.000  0.00  0.00     0.149 A 
ATOM     19  C   UNL d   1       8.554  -4.350   0.000  0.00  0.00     0.149 A 
ATOM     20  O   UNL d   1       7.838  -4.754   0.000  0.00  0.00    -0.301 OA
ATOM     21  C   UNL d   1       6.404  -4.754   0.000  0.00  0.00     0.027 A 
ATOM     22  C   UNL d   1       5.692  -4.342   0.000  0.00  0.00     0.002 A 
ENDBRANCH   3  13
BRANCH   1  23
ATOM     23  C   UNL d   1       2.842  -1.042   0.000  0.00  0.00     0.085 C 
BRANCH  23  24
ATOM     24  N   UNL d   1       2.129  -0.629   0.000  0.00  0.00    -0.304 N 
ATOM     25  C   UNL d   1       2.125   0.196   0.000  0.00  0.00     0.064 A 
ATOM     26  C   UNL d   1       2.837   0.608   0.000  0.00  0.00     0.019 C 
ATOM     27  C   UNL d   1       1.413   0.600   0.000  0.00  0.00     0.018 A 
ATOM     28  C   UNL d   1       0.692   0.183   0.000  0.00  0.00     0.003 A 
ATOM     29  C   UNL d   1       0.700  -0.637   0.000  0.00  0.00     0.019 A 
ATOM     30  C   UNL d   1       1.413  -1.050   0.000  0.00  0.00     0.080 A 
ENDBRANCH  23  24
ENDBRANCH   1  23
BRANCH  10  31
ATOM     31  C   UNL d   1       1.404  -3.517   0.000  0.00  0.00     0.003 C 
ATOM     32  C   UNL d   1       1.404  -4.342   0.000  0.00  0.00     0.000 C 
ENDBRANCH  10  31
TORSDOF 4
