REMARK  5 active torsions:
REMARK  status: ('A' for Active; 'I' for Inactive)
REMARK    1  A    between atoms: C_3  and  C_1 
REMARK    2  A    between atoms: C_7  and  C_3 
REMARK       I    between atoms: C_6  and  N_5 
REMARK    3  A    between atoms: O_18  and  C_6 
REMARK    4  A    between atoms: N_10  and  C_7 
REMARK    5  A    between atoms: C_21  and  O_18 
ROOT
ATOM      1  C   UNL d   1       5.150  -0.029   0.000  0.00  0.00     0.110 C 
ATOM      2  C   UNL d   1       5.562  -0.750   0.000  0.00  0.00     0.105 C 
ATOM      3  N   UNL d   1       5.967  -1.462   0.000  0.00  0.00    -0.191 NA
ENDROOT
BRANCH   1   4
ATOM      4  C   UNL d   1       4.325  -0.029   0.000  0.00  0.00     0.122 A 
ATOM      5  N   UNL d   1       3.837   0.633   0.000  0.00  0.00    -0.238 NA
ATOM      6  C   UNL d   1       3.054   0.375   0.000  0.00  0.00     0.088 A 
ATOM      7  C   UNL d   1       2.337   0.787   0.000  0.00  0.00     0.020 A 
ATOM      8  C   UNL d   1       3.054  -0.450   0.000  0.00  0.00     0.049 A 
ATOM      9  C   UNL d   1       1.625   0.375   0.000  0.00  0.00     0.002 A 
ATOM     10  C   UNL d   1       1.625  -0.454   0.000  0.00  0.00     0.001 A 
ATOM     11  C   UNL d   1       2.337  -0.867   0.000  0.00  0.00     0.008 A 
ATOM     12  S   UNL d   1       3.837  -0.704   0.000  0.00  0.00    -0.066 SA
ENDBRANCH   1   4
BRANCH   1  13
ATOM     13  C   UNL d   1       5.562   0.683   0.000  0.00  0.00     0.093 C 
BRANCH  13  14
ATOM     14  N   UNL d   1       6.388   0.683   0.000  0.00  0.00    -0.299 N 
ATOM     15  C   UNL d   1       6.800  -0.042   0.000  0.00  0.00     0.100 A 
ATOM     16  C   UNL d   1       7.617  -0.042   0.000  0.00  0.00     0.104 A 
ATOM     17  N   UNL d   1       8.037   0.671   0.000  0.00  0.00    -0.249 N 
ATOM     18  C   UNL d   1       7.625   1.387   0.000  0.00  0.00     0.104 A 
ATOM     19  C   UNL d   1       8.863   0.671   0.000  0.00  0.00     0.378 C 
ATOM     20  C   UNL d   1       6.792   1.396   0.000  0.00  0.00     0.100 A 
ATOM     21  O   UNL d   1       9.279   1.383   0.000  0.00  0.00    -0.237 OA
BRANCH  19  22
ATOM     22  O   UNL d   1       9.267  -0.042   0.000  0.00  0.00    -0.257 OA
BRANCH  22  23
ATOM     23  C   UNL d   1       8.854  -0.754   0.000  0.00  0.00     0.128 C 
ATOM     24  C   UNL d   1       9.267  -1.475   0.000  0.00  0.00     0.029 C 
ENDBRANCH  22  23
ENDBRANCH  19  22
ENDBRANCH  13  14
ENDBRANCH   1  13
TORSDOF 5
