REMARK  6 active torsions:
REMARK  status: ('A' for Active; 'I' for Inactive)
REMARK    1  A    between atoms: C_3  and  C_1 
REMARK    2  A    between atoms: C_2  and  C_3 
REMARK    3  A    between atoms: C_4  and  C_2 
REMARK    4  A    between atoms: C_7  and  C_4 
REMARK    5  A    between atoms: O_17  and  C_5 
REMARK    6  A    between atoms: O_20  and  C_13 
ROOT
ATOM      1  C   UNL d   1       6.289  -2.786   0.000  0.00  0.00     0.042 C 
ENDROOT
BRANCH   1   2
ATOM      2  C   UNL d   1       5.577  -3.203   0.000  0.00  0.00     0.199 C 
ATOM      3  O   UNL d   1       5.577  -4.027   0.000  0.00  0.00    -0.286 OA
BRANCH   2   4
ATOM      4  C   UNL d   1       4.860  -2.790   0.000  0.00  0.00     0.079 A 
ATOM      5  C   UNL d   1       4.860  -1.962   0.000  0.00  0.00     0.199 A 
ATOM      6  C   UNL d   1       4.140  -1.549   0.000  0.00  0.00     0.043 A 
ATOM      7  O   UNL d   1       5.572  -1.541   0.000  0.00  0.00    -0.286 OA
ATOM      8  C   UNL d   1       3.428  -1.962   0.000  0.00  0.00     0.015 A 
ATOM      9  C   UNL d   1       3.428  -2.790   0.000  0.00  0.00     0.058 A 
ATOM     10  C   UNL d   1       4.140  -3.203   0.000  0.00  0.00     0.018 A 
ATOM     11 CL   UNL d   1       2.715  -3.203   0.000  0.00  0.00    -0.082 Cl
ENDBRANCH   2   4
ENDBRANCH   1   2
BRANCH   1  12
ATOM     12  C   UNL d   1       7.001  -3.198   0.000  0.00  0.00     0.005 C 
BRANCH  12  13
ATOM     13  C   UNL d   1       7.713  -2.786   0.000  0.00  0.00     0.022 A 
ATOM     14  C   UNL d   1       8.433  -3.198   0.000  0.00  0.00     0.096 A 
ATOM     15  C   UNL d   1       9.146  -2.786   0.000  0.00  0.00     0.048 A 
ATOM     16  C   UNL d   1       9.146  -1.962   0.000  0.00  0.00     0.096 A 
ATOM     17  C   UNL d   1       8.425  -1.549   0.000  0.00  0.00     0.024 A 
ATOM     18  C   UNL d   1       7.713  -1.966   0.000  0.00  0.00     0.004 A 
BRANCH  14  19
ATOM     19  O   UNL d   1       8.433  -4.015   0.000  0.00  0.00    -0.328 OA
ATOM     20  C   UNL d   1       9.146  -4.427   0.000  0.00  0.00     0.181 C 
ENDBRANCH  14  19
BRANCH  16  21
ATOM     21  O   UNL d   1       9.849  -1.541   0.000  0.00  0.00    -0.328 OA
ATOM     22  C   UNL d   1       9.849  -0.716   0.000  0.00  0.00     0.181 C 
ENDBRANCH  16  21
ENDBRANCH  12  13
ENDBRANCH   1  12
TORSDOF 6
