REMARK  2 active torsions:
REMARK  status: ('A' for Active; 'I' for Inactive)
REMARK    1  A    between atoms: C_7  and  C_1 
REMARK    2  A    between atoms: O_19  and  C_15 
ROOT
ATOM      1  C   UNL d   1      11.764   0.421   0.000  0.00  0.00     0.064 A 
ATOM      2  C   UNL d   1      11.039   0.008   0.000  0.00  0.00     0.199 A 
ATOM      3  C   UNL d   1      10.322   0.421   0.000  0.00  0.00     0.062 A 
ATOM      4  C   UNL d   1      11.764   1.258   0.000  0.00  0.00     0.126 A 
ATOM      5  C   UNL d   1      10.326   1.258   0.000  0.00  0.00     0.106 A 
ATOM      6  O   UNL d   1      11.039   1.675   0.000  0.00  0.00    -0.305 OA
ATOM      7  C   UNL d   1       9.610   0.013   0.000  0.00  0.00     0.009 A 
ATOM      8  C   UNL d   1       9.610   1.670   0.000  0.00  0.00     0.067 A 
ATOM      9  O   UNL d   1      11.039  -0.817   0.000  0.00  0.00    -0.286 OA
ATOM     10  C   UNL d   1       8.898   1.250   0.000  0.00  0.00     0.198 A 
ATOM     11  C   UNL d   1       8.898   0.425   0.000  0.00  0.00     0.042 A 
ATOM     12  O   UNL d   1       8.185   1.662   0.000  0.00  0.00    -0.286 OA
ENDROOT
BRANCH   1  13
ATOM     13  C   UNL d   1      12.472   0.008   0.000  0.00  0.00     0.005 A 
ATOM     14  C   UNL d   1      12.463  -0.817   0.000  0.00  0.00     0.002 A 
ATOM     15  C   UNL d   1      13.176  -1.229   0.000  0.00  0.00     0.024 A 
ATOM     16  C   UNL d   1      13.896  -0.825   0.000  0.00  0.00     0.094 A 
ATOM     17  C   UNL d   1      13.896   0.008   0.000  0.00  0.00     0.024 A 
ATOM     18  C   UNL d   1      13.184   0.421   0.000  0.00  0.00     0.002 A 
BRANCH  16  19
ATOM     19  O   UNL d   1      14.608  -1.237   0.000  0.00  0.00    -0.328 OA
ATOM     20  C   UNL d   1      15.325  -0.825   0.000  0.00  0.00     0.181 C 
ENDBRANCH  16  19
ENDBRANCH   1  13
TORSDOF 2
