REMARK  5 active torsions:
REMARK  status: ('A' for Active; 'I' for Inactive)
REMARK    1  A    between atoms: C_8  and  C_1 
REMARK    2  A    between atoms: C_7  and  O_11 
REMARK    3  A    between atoms: C_9  and  C_7 
REMARK    4  A    between atoms: O_11  and  C_15 
REMARK    5  A    between atoms: O_23  and  C_18 
ROOT
ATOM      1  C   UNL d   1       7.754  -2.404   0.000  0.00  0.00     0.064 A 
ATOM      2  C   UNL d   1       7.037  -2.817   0.000  0.00  0.00     0.199 A 
ATOM      3  C   UNL d   1       7.754  -1.579   0.000  0.00  0.00     0.103 A 
ATOM      4  C   UNL d   1       6.325  -2.404   0.000  0.00  0.00     0.062 A 
ATOM      5  C   UNL d   1       6.325  -1.579   0.000  0.00  0.00     0.105 A 
ATOM      6  O   UNL d   1       7.037  -1.167   0.000  0.00  0.00    -0.307 OA
ATOM      7  C   UNL d   1       5.612  -1.167   0.000  0.00  0.00     0.050 A 
ATOM      8  C   UNL d   1       5.612  -2.817   0.000  0.00  0.00     0.007 A 
ATOM      9  O   UNL d   1       7.037  -3.642   0.000  0.00  0.00    -0.286 OA
ATOM     10  C   UNL d   1       4.892  -1.587   0.000  0.00  0.00     0.105 A 
ATOM     11  C   UNL d   1       4.892  -2.404   0.000  0.00  0.00     0.025 A 
ATOM     12  C   UNL d   1       8.467  -1.167   0.000  0.00  0.00     0.027 C 
ENDROOT
BRANCH   1  13
ATOM     13  C   UNL d   1       8.467  -2.825   0.000  0.00  0.00     0.027 A 
ATOM     14  C   UNL d   1       8.467  -3.650   0.000  0.00  0.00     0.094 A 
ATOM     15  C   UNL d   1       9.179  -4.062   0.000  0.00  0.00     0.024 A 
ATOM     16  C   UNL d   1       9.900  -3.650   0.000  0.00  0.00     0.002 A 
ATOM     17  C   UNL d   1       9.900  -2.817   0.000  0.00  0.00     0.000 A 
ATOM     18  C   UNL d   1       9.188  -2.404   0.000  0.00  0.00     0.002 A 
BRANCH  14  19
ATOM     19  O   UNL d   1       7.754  -4.054   0.000  0.00  0.00    -0.328 OA
ATOM     20  C   UNL d   1       7.754  -4.879   0.000  0.00  0.00     0.181 C 
ENDBRANCH  14  19
ENDBRANCH   1  13
BRANCH  10  21
ATOM     21  O   UNL d   1       4.175  -1.167   0.000  0.00  0.00    -0.271 OA
BRANCH  21  22
ATOM     22  C   UNL d   1       3.462  -1.587   0.000  0.00  0.00     0.323 C 
ATOM     23  O   UNL d   1       3.462  -2.413   0.000  0.00  0.00    -0.257 OA
BRANCH  22  24
ATOM     24  C   UNL d   1       2.742  -1.175   0.000  0.00  0.00     0.163 A 
ATOM     25  O   UNL d   1       1.992  -1.517   0.000  0.00  0.00    -0.300 OA
ATOM     26  C   UNL d   1       1.438  -0.904   0.000  0.00  0.00     0.123 A 
ATOM     27  C   UNL d   1       1.842  -0.188   0.000  0.00  0.00     0.029 A 
ATOM     28  C   UNL d   1       2.654  -0.354   0.000  0.00  0.00     0.032 A 
ENDBRANCH  22  24
ENDBRANCH  21  22
ENDBRANCH  10  21
TORSDOF 5
