REMARK  3 active torsions:
REMARK  status: ('A' for Active; 'I' for Inactive)
REMARK    1  A    between atoms: C_6  and  C_1 
REMARK    2  A    between atoms: O_18  and  C_11 
REMARK    3  A    between atoms: O_19  and  C_13 
ROOT
ATOM      1  C   UNL d   1       3.950  -1.542   0.000  0.00  0.00     0.064 A 
ATOM      2  C   UNL d   1       3.229  -1.954   0.000  0.00  0.00     0.199 A 
ATOM      3  C   UNL d   1       2.517  -1.542   0.000  0.00  0.00     0.062 A 
ATOM      4  C   UNL d   1       3.950  -0.717   0.000  0.00  0.00     0.126 A 
ATOM      5  C   UNL d   1       2.517  -0.717   0.000  0.00  0.00     0.106 A 
ATOM      6  O   UNL d   1       3.229  -0.304   0.000  0.00  0.00    -0.305 OA
ATOM      7  C   UNL d   1       1.804  -1.954   0.000  0.00  0.00     0.009 A 
ATOM      8  C   UNL d   1       1.804  -0.304   0.000  0.00  0.00     0.067 A 
ATOM      9  O   UNL d   1       3.229  -2.779   0.000  0.00  0.00    -0.286 OA
ATOM     10  C   UNL d   1       1.092  -0.717   0.000  0.00  0.00     0.198 A 
ATOM     11  C   UNL d   1       1.092  -1.542   0.000  0.00  0.00     0.042 A 
ATOM     12  O   UNL d   1       0.367  -0.304   0.000  0.00  0.00    -0.286 OA
ENDROOT
BRANCH   1  13
ATOM     13  C   UNL d   1       4.662  -1.954   0.000  0.00  0.00     0.007 A 
ATOM     14  C   UNL d   1       5.379  -1.542   0.000  0.00  0.00     0.026 A 
ATOM     15  C   UNL d   1       6.092  -1.954   0.000  0.00  0.00     0.116 A 
ATOM     16  C   UNL d   1       6.092  -2.779   0.000  0.00  0.00     0.116 A 
ATOM     17  C   UNL d   1       5.375  -3.192   0.000  0.00  0.00     0.026 A 
ATOM     18  C   UNL d   1       4.662  -2.779   0.000  0.00  0.00     0.002 A 
BRANCH  15  19
ATOM     19  O   UNL d   1       6.804  -1.542   0.000  0.00  0.00    -0.326 OA
ATOM     20  C   UNL d   1       6.804  -0.717   0.000  0.00  0.00     0.181 C 
ENDBRANCH  15  19
BRANCH  16  21
ATOM     21  O   UNL d   1       6.804  -3.200   0.000  0.00  0.00    -0.326 OA
ATOM     22  C   UNL d   1       7.525  -2.788   0.000  0.00  0.00     0.181 C 
ENDBRANCH  16  21
ENDBRANCH   1  13
TORSDOF 3
