REMARK  6 active torsions:
REMARK  status: ('A' for Active; 'I' for Inactive)
REMARK    1  A    between atoms: C_12  and  C_3 
REMARK    2  A    between atoms: O_11  and  C_5 
REMARK    3  A    between atoms: O_16  and  C_10 
REMARK    4  A    between atoms: C_13  and  O_11 
REMARK    5  A    between atoms: C_15  and  O_16 
REMARK    6  A    between atoms: O_24  and  C_21 
ROOT
ATOM      1  C   UNL d   1       1.363  -1.204   0.000  0.00  0.00     0.201 A 
ATOM      2  C   UNL d   1       0.642  -0.800   0.000  0.00  0.00     0.085 A 
ATOM      3  C   UNL d   1       2.067  -0.792   0.000  0.00  0.00     0.064 A 
ATOM      4  C   UNL d   1       0.642   0.025   0.000  0.00  0.00     0.107 A 
ATOM      5  C   UNL d   1      -0.071  -1.204   0.000  0.00  0.00     0.110 A 
ATOM      6  C   UNL d   1       2.067   0.033   0.000  0.00  0.00     0.126 A 
ATOM      7  O   UNL d   1       1.354   0.446   0.000  0.00  0.00    -0.305 OA
ATOM      8  C   UNL d   1      -0.071   0.438   0.000  0.00  0.00     0.050 A 
ATOM      9  C   UNL d   1      -0.775  -0.800   0.000  0.00  0.00     0.050 A 
ATOM     10  C   UNL d   1      -0.775   0.025   0.000  0.00  0.00     0.107 A 
ATOM     11  O   UNL d   1       1.363  -2.029   0.000  0.00  0.00    -0.286 OA
ENDROOT
BRANCH   3  12
ATOM     12  C   UNL d   1       2.788  -1.204   0.000  0.00  0.00     0.005 A 
ATOM     13  C   UNL d   1       3.500  -0.792   0.000  0.00  0.00     0.002 A 
ATOM     14  C   UNL d   1       4.213  -1.200   0.000  0.00  0.00     0.024 A 
ATOM     15  C   UNL d   1       4.213  -2.029   0.000  0.00  0.00     0.094 A 
ATOM     16  C   UNL d   1       3.504  -2.442   0.000  0.00  0.00     0.024 A 
ATOM     17  C   UNL d   1       2.788  -2.029   0.000  0.00  0.00     0.002 A 
BRANCH  15  18
ATOM     18  O   UNL d   1       4.929  -2.442   0.000  0.00  0.00    -0.328 OA
ATOM     19  C   UNL d   1       5.650  -2.029   0.000  0.00  0.00     0.181 C 
ENDBRANCH  15  18
ENDBRANCH   3  12
BRANCH   5  20
ATOM     20  O   UNL d   1      -0.071  -2.029   0.000  0.00  0.00    -0.273 OA
BRANCH  20  21
ATOM     21  C   UNL d   1      -0.783  -2.442   0.000  0.00  0.00     0.300 C 
ATOM     22  O   UNL d   1      -0.783  -3.267   0.000  0.00  0.00    -0.259 OA
ATOM     23  C   UNL d   1      -1.496  -2.029   0.000  0.00  0.00     0.074 C 
ENDBRANCH  20  21
ENDBRANCH   5  20
BRANCH  10  24
ATOM     24  O   UNL d   1      -1.496   0.438   0.000  0.00  0.00    -0.273 OA
BRANCH  24  25
ATOM     25  C   UNL d   1      -1.496   1.262   0.000  0.00  0.00     0.300 C 
ATOM     26  O   UNL d   1      -0.783   1.675   0.000  0.00  0.00    -0.259 OA
ATOM     27  C   UNL d   1      -2.208   1.683   0.000  0.00  0.00     0.074 C 
ENDBRANCH  24  25
ENDBRANCH  10  24
TORSDOF 6
