REMARK  6 active torsions:
REMARK  status: ('A' for Active; 'I' for Inactive)
REMARK    1  A    between atoms: C_2  and  C_1 
REMARK    2  A    between atoms: C_4  and  C_1 
REMARK    3  A    between atoms: C_6  and  C_2 
REMARK    4  A    between atoms: O_12  and  C_3 
REMARK    5  A    between atoms: C_8  and  C_4 
REMARK    6  A    between atoms: O_13  and  C_10 
ROOT
ATOM      1  C   UNL d   1       6.655  -5.165   0.000  0.00  0.00     0.096 A 
ATOM      2  C   UNL d   1       7.369  -4.752   0.000  0.00  0.00     0.048 A 
ATOM      3  C   UNL d   1       5.941  -4.752   0.000  0.00  0.00     0.022 A 
ATOM      4  C   UNL d   1       5.937  -3.925   0.000  0.00  0.00     0.004 A 
ATOM      5  C   UNL d   1       7.369  -3.925   0.000  0.00  0.00     0.096 A 
ATOM      6  C   UNL d   1       6.651  -3.511   0.000  0.00  0.00     0.024 A 
ENDROOT
BRANCH   3   7
ATOM      7  C   UNL d   1       5.228  -5.165   0.000  0.00  0.00     0.005 C 
BRANCH   7   8
ATOM      8  C   UNL d   1       4.513  -4.752   0.000  0.00  0.00     0.042 C 
BRANCH   8   9
ATOM      9  C   UNL d   1       3.795  -5.152   0.000  0.00  0.00     0.196 C 
ATOM     10  O   UNL d   1       3.783  -5.979   0.000  0.00  0.00    -0.287 OA
BRANCH   9  11
ATOM     11  C   UNL d   1       3.086  -4.735   0.000  0.00  0.00     0.039 A 
ATOM     12  C   UNL d   1       2.367  -5.136   0.000  0.00  0.00     0.003 A 
ATOM     13  C   UNL d   1       1.658  -4.701   0.000  0.00  0.00     0.000 A 
ATOM     14  C   UNL d   1       1.670  -3.875   0.000  0.00  0.00     0.000 A 
ATOM     15  C   UNL d   1       2.397  -3.474   0.000  0.00  0.00     0.000 A 
ATOM     16  C   UNL d   1       3.098  -3.900   0.000  0.00  0.00     0.003 A 
ENDBRANCH   9  11
ENDBRANCH   8   9
ENDBRANCH   7   8
ENDBRANCH   3   7
BRANCH   1  17
ATOM     17  O   UNL d   1       6.655  -5.992   0.000  0.00  0.00    -0.328 OA
ATOM     18  C   UNL d   1       7.369  -6.405   0.000  0.00  0.00     0.181 C 
ENDBRANCH   1  17
BRANCH   5  19
ATOM     19  O   UNL d   1       8.083  -3.511   0.000  0.00  0.00    -0.328 OA
ATOM     20  C   UNL d   1       8.083  -2.685   0.000  0.00  0.00     0.181 C 
ENDBRANCH   5  19
TORSDOF 6
