REMARK  4 active torsions:
REMARK  status: ('A' for Active; 'I' for Inactive)
REMARK    1  A    between atoms: C_4  and  C_1 
REMARK    2  A    between atoms: C_7  and  C_4 
REMARK    3  A    between atoms: N_10  and  C_7 
REMARK    4  A    between atoms: C_11  and  N_10 
ROOT
ATOM      1  C   UNL d   1       9.256  -3.313   0.000  0.00  0.00     0.122 C 
ATOM      2  C   UNL d   1       9.668  -4.024   0.000  0.00  0.00     0.106 C 
ATOM      3  N   UNL d   1      10.080  -4.736   0.000  0.00  0.00    -0.191 NA
ENDROOT
BRANCH   1   4
ATOM      4  C   UNL d   1       8.432  -3.313   0.000  0.00  0.00     0.159 A 
ATOM      5  N   UNL d   1       7.945  -2.647   0.000  0.00  0.00    -0.226 NA
ATOM      6  C   UNL d   1       7.167  -2.901   0.000  0.00  0.00     0.099 A 
ATOM      7  C   UNL d   1       6.447  -2.489   0.000  0.00  0.00     0.021 A 
ATOM      8  C   UNL d   1       7.167  -3.725   0.000  0.00  0.00     0.083 A 
ATOM      9  C   UNL d   1       5.735  -2.909   0.000  0.00  0.00     0.002 A 
ATOM     10  C   UNL d   1       5.735  -3.733   0.000  0.00  0.00     0.002 A 
ATOM     11  C   UNL d   1       6.447  -4.145   0.000  0.00  0.00     0.019 A 
ATOM     12  N   UNL d   1       7.945  -3.983   0.000  0.00  0.00    -0.287 N 
ATOM     13  C   UNL d   1       8.207  -4.769   0.000  0.00  0.00     0.101 C 
ENDBRANCH   1   4
BRANCH   1  14
ATOM     14  C   UNL d   1       9.668  -2.601   0.000  0.00  0.00     0.114 C 
BRANCH  14  15
ATOM     15  N   UNL d   1      10.492  -2.601   0.000  0.00  0.00    -0.225 NA
BRANCH  15  16
ATOM     16  C   UNL d   1      10.904  -1.885   0.000  0.00  0.00     0.163 A 
ATOM     17  N   UNL d   1      11.728  -1.877   0.000  0.00  0.00    -0.225 NA
ATOM     18  C   UNL d   1      12.136  -1.161   0.000  0.00  0.00     0.101 A 
ATOM     19  C   UNL d   1      11.715  -0.450   0.000  0.00  0.00     0.021 A 
ATOM     20  C   UNL d   1      10.879  -0.454   0.000  0.00  0.00     0.005 A 
ATOM     21  C   UNL d   1      10.479  -1.178   0.000  0.00  0.00     0.039 A 
ENDBRANCH  15  16
ENDBRANCH  14  15
ENDBRANCH   1  14
TORSDOF 4
