REMARK  5 active torsions:
REMARK  status: ('A' for Active; 'I' for Inactive)
REMARK    1  A    between atoms: C_3  and  C_1 
REMARK    2  A    between atoms: C_5  and  C_3 
REMARK    3  A    between atoms: N_8  and  C_5 
REMARK    4  A    between atoms: C_19  and  N_11 
REMARK    5  A    between atoms: C_18  and  C_19 
ROOT
ATOM      1  C   UNL d   1       9.954  -1.129   0.000  0.00  0.00     0.110 C 
ATOM      2  C   UNL d   1      10.367  -1.842   0.000  0.00  0.00     0.105 C 
ATOM      3  N   UNL d   1      10.767  -2.554   0.000  0.00  0.00    -0.191 NA
ENDROOT
BRANCH   1   4
ATOM      4  C   UNL d   1       9.129  -1.129   0.000  0.00  0.00     0.122 A 
ATOM      5  N   UNL d   1       8.642  -0.463   0.000  0.00  0.00    -0.238 NA
ATOM      6  C   UNL d   1       7.854  -0.717   0.000  0.00  0.00     0.088 A 
ATOM      7  C   UNL d   1       7.142  -0.304   0.000  0.00  0.00     0.020 A 
ATOM      8  C   UNL d   1       7.854  -1.542   0.000  0.00  0.00     0.049 A 
ATOM      9  C   UNL d   1       6.429  -0.725   0.000  0.00  0.00     0.002 A 
ATOM     10  C   UNL d   1       6.429  -1.550   0.000  0.00  0.00     0.001 A 
ATOM     11  C   UNL d   1       7.142  -1.962   0.000  0.00  0.00     0.008 A 
ATOM     12  S   UNL d   1       8.642  -1.800   0.000  0.00  0.00    -0.066 SA
ENDBRANCH   1   4
BRANCH   1  13
ATOM     13  C   UNL d   1      10.367  -0.417   0.000  0.00  0.00     0.093 C 
BRANCH  13  14
ATOM     14  N   UNL d   1      11.192  -0.417   0.000  0.00  0.00    -0.299 N 
ATOM     15  C   UNL d   1      11.600   0.296   0.000  0.00  0.00     0.100 A 
ATOM     16  C   UNL d   1      12.429   0.296   0.000  0.00  0.00     0.100 A 
ATOM     17  N   UNL d   1      12.842  -0.425   0.000  0.00  0.00    -0.300 N 
ATOM     18  C   UNL d   1      12.425  -1.137   0.000  0.00  0.00     0.100 A 
ATOM     19  C   UNL d   1      11.604  -1.137   0.000  0.00  0.00     0.100 A 
BRANCH  17  20
ATOM     20  C   UNL d   1      13.667  -0.429   0.000  0.00  0.00     0.080 C 
BRANCH  20  21
ATOM     21  C   UNL d   1      14.075  -1.142   0.000  0.00  0.00     0.020 A 
ATOM     22  C   UNL d   1      14.892  -1.142   0.000  0.00  0.00     0.028 A 
ATOM     23  C   UNL d   1      15.304  -1.854   0.000  0.00  0.00     0.119 A 
ATOM     24  O   UNL d   1      16.117  -2.017   0.000  0.00  0.00    -0.300 OA
ATOM     25  C   UNL d   1      14.892  -2.567   0.000  0.00  0.00     0.119 A 
ATOM     26  C   UNL d   1      16.204  -2.842   0.000  0.00  0.00     0.304 A 
ATOM     27  O   UNL d   1      15.450  -3.179   0.000  0.00  0.00    -0.300 OA
ATOM     28  C   UNL d   1      14.067  -2.567   0.000  0.00  0.00     0.026 A 
ATOM     29  C   UNL d   1      13.654  -1.850   0.000  0.00  0.00     0.004 A 
ENDBRANCH  20  21
ENDBRANCH  17  20
ENDBRANCH  13  14
ENDBRANCH   1  13
TORSDOF 5
