REMARK  5 active torsions:
REMARK  status: ('A' for Active; 'I' for Inactive)
REMARK    1  A    between atoms: O_6  and  C_1 
REMARK    2  A    between atoms: C_2  and  C_4 
REMARK    3  A    between atoms: O_7  and  C_3 
REMARK    4  A    between atoms: C_8  and  O_6 
REMARK    5  A    between atoms: C_9  and  O_7 
ROOT
ATOM      1  C   UNL d   1       1.097   1.952   0.000  0.00  0.00     0.126 A 
ATOM      2  C   UNL d   1       0.384   1.539   0.000  0.00  0.00     0.126 A 
ATOM      3  C   UNL d   1       1.811   0.709   0.000  0.00  0.00     0.067 A 
ATOM      4  C   UNL d   1       1.811   1.539   0.000  0.00  0.00     0.033 A 
ATOM      5  C   UNL d   1       0.384   0.709   0.000  0.00  0.00     0.027 A 
ATOM      6  C   UNL d   1       1.097   0.301   0.000  0.00  0.00     0.008 A 
ENDROOT
BRANCH   1   7
ATOM      7  O   UNL d   1       1.097   2.777   0.000  0.00  0.00    -0.271 OA
BRANCH   7   8
ATOM      8  C   UNL d   1       0.384   3.190   0.000  0.00  0.00     0.300 C 
ATOM      9  O   UNL d   1       0.384   4.030   0.000  0.00  0.00    -0.259 OA
ATOM     10  C   UNL d   1      -0.330   2.777   0.000  0.00  0.00     0.074 C 
ENDBRANCH   7   8
ENDBRANCH   1   7
BRANCH   2  11
ATOM     11  O   UNL d   1      -0.345   1.962   0.000  0.00  0.00    -0.271 OA
BRANCH  11  12
ATOM     12  C   UNL d   1      -1.058   1.554   0.000  0.00  0.00     0.300 C 
ATOM     13  O   UNL d   1      -1.063   0.728   0.000  0.00  0.00    -0.259 OA
ATOM     14  C   UNL d   1      -1.772   1.976   0.000  0.00  0.00     0.074 C 
ENDBRANCH  11  12
ENDBRANCH   2  11
BRANCH   3  15
ATOM     15  C   UNL d   1       2.535   0.277   0.000  0.00  0.00     0.211 C 
ATOM     16  O   UNL d   1       3.248   0.694   0.000  0.00  0.00    -0.644 OA
ATOM     17  O   UNL d   1       2.525  -0.558   0.000  0.00  0.00    -0.644 OA
ENDBRANCH   3  15
TORSDOF 5
