REMARK  4 active torsions:
REMARK  status: ('A' for Active; 'I' for Inactive)
REMARK    1  A    between atoms: C_8  and  C_1 
REMARK    2  A    between atoms: C_10  and  C_7 
REMARK    3  A    between atoms: N_9  and  C_10 
REMARK    4  A    between atoms: O_23  and  C_15 
ROOT
ATOM      1  C   UNL d   1      -0.100  -0.514   0.000  0.00  0.00     0.064 A 
ATOM      2  C   UNL d   1      -1.536   0.309   0.000  0.00  0.00     0.107 A 
ATOM      3  C   UNL d   1      -0.814  -0.927   0.000  0.00  0.00     0.199 A 
ATOM      4  C   UNL d   1      -1.536  -0.518   0.000  0.00  0.00     0.062 A 
ATOM      5  C   UNL d   1      -0.100   0.322   0.000  0.00  0.00     0.103 A 
ATOM      6  O   UNL d   1      -0.823   0.735   0.000  0.00  0.00    -0.307 OA
ATOM      7  C   UNL d   1      -2.251   0.722   0.000  0.00  0.00     0.079 A 
ATOM      8  C   UNL d   1      -2.251  -0.927   0.000  0.00  0.00     0.009 A 
ATOM      9  C   UNL d   1      -2.956   0.309   0.000  0.00  0.00     0.199 A 
ATOM     10  O   UNL d   1      -0.814  -1.745   0.000  0.00  0.00    -0.286 OA
ATOM     11  C   UNL d   1      -2.956  -0.518   0.000  0.00  0.00     0.042 A 
ATOM     12  C   UNL d   1       0.614   0.735   0.000  0.00  0.00     0.027 C 
ATOM     13  O   UNL d   1      -3.678   0.722   0.000  0.00  0.00    -0.286 OA
ENDROOT
BRANCH   1  14
ATOM     14  C   UNL d   1       0.614  -0.927   0.000  0.00  0.00     0.027 A 
ATOM     15  C   UNL d   1       0.614  -1.754   0.000  0.00  0.00     0.094 A 
ATOM     16  C   UNL d   1       1.332  -2.159   0.000  0.00  0.00     0.024 A 
ATOM     17  C   UNL d   1       2.046  -1.745   0.000  0.00  0.00     0.002 A 
ATOM     18  C   UNL d   1       2.042  -0.919   0.000  0.00  0.00     0.000 A 
ATOM     19  C   UNL d   1       1.328  -0.505   0.000  0.00  0.00     0.002 A 
BRANCH  15  20
ATOM     20  O   UNL d   1      -0.100  -2.167   0.000  0.00  0.00    -0.328 OA
ATOM     21  C   UNL d   1      -0.096  -2.994   0.000  0.00  0.00     0.181 C 
ENDBRANCH  15  20
ENDBRANCH   1  14
BRANCH   7  22
ATOM     22  C   UNL d   1      -2.251   1.549   0.000  0.00  0.00     0.086 C 
BRANCH  22  23
ATOM     23  N   UNL d   1      -2.964   1.962   0.000  0.00  0.00    -0.300 N 
ATOM     24  C   UNL d   1      -3.678   1.549   0.000  0.00  0.00     0.100 A 
ATOM     25  C   UNL d   1      -4.405   1.962   0.000  0.00  0.00     0.100 A 
ATOM     26  N   UNL d   1      -4.405   2.781   0.000  0.00  0.00    -0.299 N 
ATOM     27  C   UNL d   1      -3.678   3.194   0.000  0.00  0.00     0.100 A 
ATOM     28  C   UNL d   1      -5.111   3.202   0.000  0.00  0.00     0.100 C 
ATOM     29  C   UNL d   1      -2.964   2.781   0.000  0.00  0.00     0.100 A 
ENDBRANCH  22  23
ENDBRANCH   7  22
TORSDOF 4
