REMARK  10 active torsions:
REMARK  status: ('A' for Active; 'I' for Inactive)
REMARK    1  A    between atoms: C_7  and  C_1 
REMARK    2  A    between atoms: C_8  and  C_2 
REMARK    3  A    between atoms: O_24  and  C_8 
REMARK    4  A    between atoms: O_25  and  C_12 
REMARK    5  A    between atoms: C_14  and  C_22 
REMARK    6  A    between atoms: O_26  and  C_14 
REMARK    7  A    between atoms: O_27  and  C_16 
REMARK    8  A    between atoms: O_21  and  C_20 
REMARK    9  A    between atoms: C_22  and  O_21 
REMARK   10  A    between atoms: C_28  and  O_24 
ROOT
ATOM      1  C   UNL d   1       5.729  -0.367   0.000  0.00  0.00     0.067 A 
ATOM      2  C   UNL d   1       5.725   0.463   0.000  0.00  0.00     0.166 A 
ATOM      3  C   UNL d   1       5.004  -0.787   0.000  0.00  0.00     0.200 A 
ATOM      4  O   UNL d   1       5.000   0.883   0.000  0.00  0.00    -0.301 OA
ATOM      5  C   UNL d   1       4.292  -0.379   0.000  0.00  0.00     0.062 A 
ATOM      6  C   UNL d   1       4.287   0.458   0.000  0.00  0.00     0.105 A 
ATOM      7  C   UNL d   1       3.567   0.871   0.000  0.00  0.00     0.050 A 
ATOM      8  C   UNL d   1       3.567  -0.787   0.000  0.00  0.00     0.007 A 
ATOM      9  O   UNL d   1       5.013  -1.613   0.000  0.00  0.00    -0.286 OA
ATOM     10  C   UNL d   1       2.854   0.450   0.000  0.00  0.00     0.102 A 
ATOM     11  C   UNL d   1       2.854  -0.375   0.000  0.00  0.00     0.025 A 
ENDROOT
BRANCH   1  12
ATOM     12  C   UNL d   1       6.442  -0.779   0.000  0.00  0.00     0.007 A 
ATOM     13  C   UNL d   1       7.154  -0.354   0.000  0.00  0.00     0.026 A 
ATOM     14  C   UNL d   1       7.867  -0.775   0.000  0.00  0.00     0.116 A 
ATOM     15  C   UNL d   1       7.867  -1.604   0.000  0.00  0.00     0.116 A 
ATOM     16  C   UNL d   1       7.154  -2.017   0.000  0.00  0.00     0.026 A 
ATOM     17  C   UNL d   1       6.442  -1.604   0.000  0.00  0.00     0.002 A 
BRANCH  14  18
ATOM     18  O   UNL d   1       8.579  -0.362   0.000  0.00  0.00    -0.326 OA
ATOM     19  C   UNL d   1       8.579   0.463   0.000  0.00  0.00     0.181 C 
ENDBRANCH  14  18
BRANCH  15  20
ATOM     20  O   UNL d   1       8.579  -2.013   0.000  0.00  0.00    -0.326 OA
ATOM     21  C   UNL d   1       9.292  -1.592   0.000  0.00  0.00     0.181 C 
ENDBRANCH  15  20
ENDBRANCH   1  12
BRANCH   2  22
ATOM     22  C   UNL d   1       6.438   0.875   0.000  0.00  0.00     0.323 C 
ATOM     23  O   UNL d   1       7.154   0.471   0.000  0.00  0.00    -0.257 OA
BRANCH  22  24
ATOM     24  O   UNL d   1       6.438   1.708   0.000  0.00  0.00    -0.270 OA
BRANCH  24  25
ATOM     25  C   UNL d   1       7.150   2.121   0.000  0.00  0.00     0.126 C 
ATOM     26  C   UNL d   1       7.150   2.946   0.000  0.00  0.00     0.029 C 
ENDBRANCH  24  25
ENDBRANCH  22  24
ENDBRANCH   2  22
BRANCH  10  27
ATOM     27  O   UNL d   1       2.142   0.863   0.000  0.00  0.00    -0.300 OA
BRANCH  27  28
ATOM     28  C   UNL d   1       1.429   0.458   0.000  0.00  0.00     0.191 C 
BRANCH  28  29
ATOM     29  C   UNL d   1       0.717   0.875   0.000  0.00  0.00     0.321 C 
ATOM     30  O   UNL d   1       0.717   1.700   0.000  0.00  0.00    -0.257 OA
BRANCH  29  31
ATOM     31  O   UNL d   1       0.000   0.471   0.000  0.00  0.00    -0.294 OA
ATOM     32  C   UNL d   1      -0.713   0.883   0.000  0.00  0.00     0.185 C 
ENDBRANCH  29  31
ENDBRANCH  28  29
ENDBRANCH  27  28
ENDBRANCH  10  27
TORSDOF 10
