REMARK  3 active torsions:
REMARK  status: ('A' for Active; 'I' for Inactive)
REMARK    1  A    between atoms: C_3  and  C_1 
REMARK    2  A    between atoms: C_5  and  C_3 
REMARK    3  A    between atoms: C_10  and  C_5 
ROOT
ATOM      1  C   UNL d   1       5.888  -2.092   0.000  0.00  0.00     0.109 C 
ATOM      2  C   UNL d   1       6.304  -2.804   0.000  0.00  0.00     0.105 C 
ATOM      3  N   UNL d   1       6.713  -3.517   0.000  0.00  0.00    -0.191 NA
ENDROOT
BRANCH   1   4
ATOM      4  C   UNL d   1       5.062  -2.100   0.000  0.00  0.00     0.192 A 
ATOM      5  N   UNL d   1       4.567  -1.429   0.000  0.00  0.00    -0.220 NA
ATOM      6  C   UNL d   1       3.788  -1.692   0.000  0.00  0.00     0.106 A 
ATOM      7  C   UNL d   1       3.067  -1.279   0.000  0.00  0.00     0.021 A 
ATOM      8  C   UNL d   1       3.792  -2.517   0.000  0.00  0.00     0.119 A 
ATOM      9  C   UNL d   1       2.354  -1.700   0.000  0.00  0.00     0.002 A 
ATOM     10  C   UNL d   1       2.354  -2.525   0.000  0.00  0.00     0.002 A 
ATOM     11  C   UNL d   1       3.067  -2.938   0.000  0.00  0.00     0.026 A 
ATOM     12  O   UNL d   1       4.579  -2.767   0.000  0.00  0.00    -0.287 OA
ENDBRANCH   1   4
BRANCH   1  13
ATOM     13  C   UNL d   1       6.292  -1.379   0.000  0.00  0.00     0.014 C 
BRANCH  13  14
ATOM     14  C   UNL d   1       7.117  -1.375   0.000  0.00  0.00     0.004 A 
ATOM     15  C   UNL d   1       7.529  -2.087   0.000  0.00  0.00     0.042 A 
ATOM     16  C   UNL d   1       8.354  -2.079   0.000  0.00  0.00     0.196 A 
ATOM     17  O   UNL d   1       8.775  -2.792   0.000  0.00  0.00    -0.287 OA
ATOM     18  C   UNL d   1       8.767  -1.367   0.000  0.00  0.00     0.042 A 
ATOM     19  C   UNL d   1       8.342  -0.650   0.000  0.00  0.00     0.003 A 
ATOM     20  C   UNL d   1       7.517  -0.654   0.000  0.00  0.00     0.000 A 
ENDBRANCH  13  14
ENDBRANCH   1  13
TORSDOF 3
