REMARK  3 active torsions:
REMARK  status: ('A' for Active; 'I' for Inactive)
REMARK    1  A    between atoms: C_5  and  C_1 
REMARK    2  A    between atoms: C_4  and  C_6 
REMARK    3  A    between atoms: C_6  and  C_5 
ROOT
ATOM      1  C   UNL d   1       3.770  -2.672   0.000  0.00  0.00     0.068 C 
ENDROOT
BRANCH   1   2
ATOM      2  C   UNL d   1       4.489  -3.086   0.000  0.00  0.00     0.114 A 
ATOM      3  N   UNL d   1       4.576  -3.908   0.000  0.00  0.00    -0.238 NA
ATOM      4  C   UNL d   1       5.386  -4.075   0.000  0.00  0.00     0.088 A 
ATOM      5  C   UNL d   1       5.800  -4.789   0.000  0.00  0.00     0.020 A 
ATOM      6  C   UNL d   1       5.800  -3.361   0.000  0.00  0.00     0.049 A 
ATOM      7  C   UNL d   1       6.626  -4.789   0.000  0.00  0.00     0.002 A 
ATOM      8  C   UNL d   1       7.031  -4.071   0.000  0.00  0.00     0.001 A 
ATOM      9  C   UNL d   1       6.618  -3.361   0.000  0.00  0.00     0.008 A 
ATOM     10  S   UNL d   1       5.240  -2.747   0.000  0.00  0.00    -0.066 SA
ENDBRANCH   1   2
BRANCH   1  11
ATOM     11  C   UNL d   1       3.056  -3.094   0.000  0.00  0.00     0.201 C 
ATOM     12  O   UNL d   1       3.056  -3.921   0.000  0.00  0.00    -0.286 OA
BRANCH  11  13
ATOM     13  C   UNL d   1       2.334  -2.680   0.000  0.00  0.00     0.078 A 
ATOM     14  C   UNL d   1       2.334  -1.845   0.000  0.00  0.00     0.202 A 
ATOM     15  C   UNL d   1       1.620  -1.432   0.000  0.00  0.00     0.084 A 
ATOM     16  O   UNL d   1       3.048  -1.432   0.000  0.00  0.00    -0.286 OA
ATOM     17  C   UNL d   1       0.906  -1.854   0.000  0.00  0.00     0.199 A 
ATOM     18  C   UNL d   1       0.906  -2.680   0.000  0.00  0.00     0.042 A 
ATOM     19  O   UNL d   1       0.192  -1.440   0.000  0.00  0.00    -0.286 OA
ATOM     20  C   UNL d   1       1.620  -3.094   0.000  0.00  0.00     0.010 A 
ENDBRANCH  11  13
ENDBRANCH   1  11
TORSDOF 3
