REMARK  4 active torsions:
REMARK  status: ('A' for Active; 'I' for Inactive)
REMARK    1  A    between atoms: C_2  and  C_1 
REMARK    2  A    between atoms: C_3  and  C_1 
REMARK    3  A    between atoms: C_4  and  C_2 
REMARK    4  A    between atoms: C_9  and  C_3 
ROOT
ATOM      1  C   UNL d   1       0.825  -2.886   0.000  0.00  0.00     0.196 C 
ATOM      2  O   UNL d   1       0.825  -3.711   0.000  0.00  0.00    -0.287 OA
ENDROOT
BRANCH   1   3
ATOM      3  C   UNL d   1       0.104  -2.474   0.000  0.00  0.00     0.042 C 
BRANCH   3   4
ATOM      4  C   UNL d   1      -0.608  -2.890   0.000  0.00  0.00     0.005 C 
BRANCH   4   5
ATOM      5  C   UNL d   1      -1.320  -2.478   0.000  0.00  0.00     0.019 A 
ATOM      6  C   UNL d   1      -2.037  -2.890   0.000  0.00  0.00     0.099 A 
ATOM      7  N   UNL d   1      -2.749  -2.478   0.000  0.00  0.00    -0.242 NA
ATOM      8  C   UNL d   1      -2.749  -1.649   0.000  0.00  0.00     0.099 A 
ATOM      9  C   UNL d   1      -2.037  -1.237   0.000  0.00  0.00     0.021 A 
ATOM     10  C   UNL d   1      -1.320  -1.649   0.000  0.00  0.00     0.003 A 
ENDBRANCH   4   5
ENDBRANCH   3   4
ENDBRANCH   1   3
BRANCH   1  11
ATOM     11  C   UNL d   1       1.537  -2.474   0.000  0.00  0.00     0.039 A 
ATOM     12  C   UNL d   1       1.528  -1.653   0.000  0.00  0.00     0.006 A 
ATOM     13  C   UNL d   1       2.241  -1.237   0.000  0.00  0.00     0.042 A 
ATOM     14  C   UNL d   1       2.965  -1.649   0.000  0.00  0.00     0.196 A 
ATOM     15  C   UNL d   1       2.965  -2.474   0.000  0.00  0.00     0.042 A 
ATOM     16  O   UNL d   1       3.677  -1.229   0.000  0.00  0.00    -0.287 OA
ATOM     17  C   UNL d   1       2.253  -2.886   0.000  0.00  0.00     0.006 A 
ENDBRANCH   1  11
TORSDOF 4
