REMARK  9 active torsions:
REMARK  status: ('A' for Active; 'I' for Inactive)
REMARK    1  A    between atoms: C_6  and  N_1 
REMARK    2  A    between atoms: C_2  and  O_5 
REMARK    3  A    between atoms: C_8  and  C_3 
REMARK    4  A    between atoms: C_4  and  C_9 
REMARK    5  A    between atoms: O_5  and  C_4 
REMARK    6  A    between atoms: C_7  and  C_8 
REMARK    7  A    between atoms: C_13  and  C_7 
REMARK    8  A    between atoms: C_10  and  C_13 
REMARK    9  A    between atoms: O_25  and  C_23 
ROOT
ATOM      1  C   UNL d   1       0.802  -2.347   0.000  0.00  0.00     0.108 A 
ATOM      2  C   UNL d   1       0.802  -3.173   0.000  0.00  0.00     0.062 A 
ATOM      3  C   UNL d   1       0.079  -1.933   0.000  0.00  0.00     0.049 A 
ATOM      4  C   UNL d   1       0.079  -3.587   0.000  0.00  0.00     0.007 A 
ATOM      5  C   UNL d   1      -0.635  -2.347   0.000  0.00  0.00     0.096 A 
ATOM      6  C   UNL d   1      -0.635  -3.173   0.000  0.00  0.00     0.024 A 
ENDROOT
BRANCH   1   7
ATOM      7  O   UNL d   1       1.516  -1.929   0.000  0.00  0.00    -0.273 OA
BRANCH   7   8
ATOM      8  C   UNL d   1       1.507  -1.102   0.000  0.00  0.00     0.300 C 
ATOM      9  O   UNL d   1       0.793  -0.693   0.000  0.00  0.00    -0.259 OA
BRANCH   8  10
ATOM     10  C   UNL d   1       2.221  -0.689   0.000  0.00  0.00     0.065 A 
ATOM     11  C   UNL d   1       2.209   0.134   0.000  0.00  0.00     0.029 A 
ATOM     12  C   UNL d   1       2.918   0.547   0.000  0.00  0.00     0.127 A 
ATOM     13  C   UNL d   1       3.637   0.138   0.000  0.00  0.00     0.024 A 
ATOM     14  C   UNL d   1       3.637  -0.681   0.000  0.00  0.00     0.002 A 
ATOM     15  C   UNL d   1       2.931  -1.094   0.000  0.00  0.00     0.005 A 
BRANCH  12  16
ATOM     16  N   UNL d   1       2.910   1.374   0.000  0.00  0.00    -0.114 N 
ATOM     17  O   UNL d   1       3.620   1.791   0.000  0.00  0.00    -0.532 OA
ATOM     18  O   UNL d   1       2.184   1.787   0.000  0.00  0.00    -0.532 OA
ENDBRANCH  12  16
ENDBRANCH   8  10
ENDBRANCH   7   8
ENDBRANCH   1   7
BRANCH   2  19
ATOM     19  C   UNL d   1       1.520  -3.587   0.000  0.00  0.00     0.198 C 
ATOM     20  O   UNL d   1       1.520  -4.413   0.000  0.00  0.00    -0.286 OA
BRANCH  19  21
ATOM     21  C   UNL d   1       2.234  -3.173   0.000  0.00  0.00     0.043 C 
BRANCH  21  22
ATOM     22  C   UNL d   1       2.948  -3.587   0.000  0.00  0.00     0.010 C 
BRANCH  22  23
ATOM     23  C   UNL d   1       3.662  -3.173   0.000  0.00  0.00     0.030 A 
ATOM     24  S   UNL d   1       4.422  -3.499   0.000  0.00  0.00    -0.086 SA
ATOM     25  C   UNL d   1       4.973  -2.885   0.000  0.00  0.00     0.035 A 
ATOM     26  C   UNL d   1       4.559  -2.171   0.000  0.00  0.00     0.007 A 
ATOM     27  C   UNL d   1       3.749  -2.347   0.000  0.00  0.00     0.007 A 
ENDBRANCH  22  23
ENDBRANCH  21  22
ENDBRANCH  19  21
ENDBRANCH   2  19
BRANCH   5  28
ATOM     28  O   UNL d   1      -1.349  -1.933   0.000  0.00  0.00    -0.328 OA
ATOM     29  C   UNL d   1      -2.067  -2.347   0.000  0.00  0.00     0.181 C 
ENDBRANCH   5  28
TORSDOF 9
