REMARK  3 active torsions:
REMARK  status: ('A' for Active; 'I' for Inactive)
REMARK    1  A    between atoms: C_7  and  C_1 
REMARK    2  A    between atoms: O_20  and  C_12 
REMARK    3  A    between atoms: O_22  and  C_16 
ROOT
ATOM      1  C   UNL d   1       4.867  -0.554   0.000  0.00  0.00     0.062 A 
ATOM      2  C   UNL d   1       4.142  -0.967   0.000  0.00  0.00     0.202 A 
ATOM      3  C   UNL d   1       3.425  -0.554   0.000  0.00  0.00     0.101 A 
ATOM      4  C   UNL d   1       4.867   0.283   0.000  0.00  0.00     0.103 A 
ATOM      5  C   UNL d   1       3.429   0.283   0.000  0.00  0.00     0.109 A 
ATOM      6  O   UNL d   1       4.142   0.700   0.000  0.00  0.00    -0.307 OA
ATOM      7  C   UNL d   1       2.712  -0.963   0.000  0.00  0.00     0.204 A 
ATOM      8  C   UNL d   1       2.712   0.696   0.000  0.00  0.00     0.067 A 
ATOM      9  C   UNL d   1       2.000  -0.550   0.000  0.00  0.00     0.084 A 
ATOM     10  O   UNL d   1       4.142  -1.792   0.000  0.00  0.00    -0.286 OA
ATOM     11  C   UNL d   1       2.000   0.275   0.000  0.00  0.00     0.201 A 
ATOM     12  O   UNL d   1       2.712  -1.788   0.000  0.00  0.00    -0.286 OA
ATOM     13  C   UNL d   1       5.579   0.688   0.000  0.00  0.00     0.027 C 
ATOM     14  O   UNL d   1       1.288   0.688   0.000  0.00  0.00    -0.286 OA
ENDROOT
BRANCH   1  15
ATOM     15  C   UNL d   1       5.575  -0.967   0.000  0.00  0.00     0.007 A 
ATOM     16  C   UNL d   1       6.287  -0.554   0.000  0.00  0.00     0.026 A 
ATOM     17  C   UNL d   1       7.000  -0.967   0.000  0.00  0.00     0.116 A 
ATOM     18  C   UNL d   1       7.000  -1.800   0.000  0.00  0.00     0.116 A 
ATOM     19  C   UNL d   1       6.279  -2.204   0.000  0.00  0.00     0.026 A 
ATOM     20  C   UNL d   1       5.567  -1.792   0.000  0.00  0.00     0.002 A 
BRANCH  17  21
ATOM     21  O   UNL d   1       7.717  -0.554   0.000  0.00  0.00    -0.326 OA
ATOM     22  C   UNL d   1       7.713   0.271   0.000  0.00  0.00     0.181 C 
ENDBRANCH  17  21
BRANCH  18  23
ATOM     23  O   UNL d   1       7.713  -2.212   0.000  0.00  0.00    -0.326 OA
ATOM     24  C   UNL d   1       8.429  -1.800   0.000  0.00  0.00     0.181 C 
ENDBRANCH  18  23
ENDBRANCH   1  15
TORSDOF 3
