REMARK  3 active torsions:
REMARK  status: ('A' for Active; 'I' for Inactive)
REMARK    1  A    between atoms: C_11  and  C_3 
REMARK    2  A    between atoms: O_13  and  C_10 
REMARK    3  A    between atoms: C_21  and  O_13 
ROOT
ATOM      1  C   UNL d   1       1.267  -5.213   0.000  0.00  0.00     0.203 A 
ATOM      2  C   UNL d   1       0.554  -4.800   0.000  0.00  0.00     0.101 A 
ATOM      3  C   UNL d   1       1.979  -4.800   0.000  0.00  0.00     0.064 A 
ATOM      4  C   UNL d   1       0.554  -3.975   0.000  0.00  0.00     0.108 A 
ATOM      5  C   UNL d   1      -0.158  -5.213   0.000  0.00  0.00     0.203 A 
ATOM      6  C   UNL d   1       1.979  -3.975   0.000  0.00  0.00     0.126 A 
ATOM      7  O   UNL d   1       1.267  -3.562   0.000  0.00  0.00    -0.305 OA
ATOM      8  C   UNL d   1      -0.158  -3.562   0.000  0.00  0.00     0.050 A 
ATOM      9  C   UNL d   1      -0.875  -4.800   0.000  0.00  0.00     0.067 A 
ATOM     10  C   UNL d   1      -0.875  -3.975   0.000  0.00  0.00     0.105 A 
ATOM     11  O   UNL d   1       1.267  -6.037   0.000  0.00  0.00    -0.286 OA
ATOM     12  O   UNL d   1      -0.158  -6.037   0.000  0.00  0.00    -0.286 OA
ENDROOT
BRANCH   3  13
ATOM     13  C   UNL d   1       2.692  -5.213   0.000  0.00  0.00     0.005 A 
ATOM     14  C   UNL d   1       3.417  -4.800   0.000  0.00  0.00     0.003 A 
ATOM     15  C   UNL d   1       4.129  -5.213   0.000  0.00  0.00     0.042 A 
ATOM     16  C   UNL d   1       4.129  -6.042   0.000  0.00  0.00     0.196 A 
ATOM     17  C   UNL d   1       3.404  -6.454   0.000  0.00  0.00     0.042 A 
ATOM     18  O   UNL d   1       4.842  -6.454   0.000  0.00  0.00    -0.287 OA
ATOM     19  C   UNL d   1       2.692  -6.042   0.000  0.00  0.00     0.003 A 
ENDBRANCH   3  13
BRANCH  10  20
ATOM     20  O   UNL d   1      -1.596  -3.562   0.000  0.00  0.00    -0.307 OA
BRANCH  20  21
ATOM     21  C   UNL d   1      -2.312  -3.967   0.000  0.00  0.00     0.100 C 
ATOM     22  C   UNL d   1      -3.025  -3.550   0.000  0.00  0.00     0.027 C 
ATOM     23  C   UNL d   1      -2.321  -4.792   0.000  0.00  0.00     0.027 C 
ENDBRANCH  20  21
ENDBRANCH  10  20
TORSDOF 3
