REMARK  7 active torsions:
REMARK  status: ('A' for Active; 'I' for Inactive)
REMARK    1  A    between atoms: S_2  and  C_1 
REMARK    2  A    between atoms: C_8  and  S_2 
REMARK    3  A    between atoms: N_16  and  C_6 
REMARK    4  A    between atoms: N_9  and  C_22 
REMARK    5  A    between atoms: C_24  and  N_16 
REMARK    6  A    between atoms: C_22  and  C_23 
REMARK    7  A    between atoms: C_23  and  C_24 
ROOT
ATOM      1  C   UNL d   1       1.308  -0.548   0.000  0.00  0.00     0.187 A 
ATOM      2  N   UNL d   1       1.968  -0.067   0.000  0.00  0.00    -0.208 NA
ATOM      3  C   UNL d   1       1.557  -1.333   0.000  0.00  0.00     0.118 A 
ATOM      4  S   UNL d   1       2.371  -1.333   0.000  0.00  0.00    -0.035 SA
ATOM      5  C   UNL d   1       2.633  -0.548   0.000  0.00  0.00     0.196 A 
ATOM      6 CL   UNL d   1       1.076  -1.998   0.000  0.00  0.00    -0.073 Cl
ENDROOT
BRANCH   1   7
ATOM      7  S   UNL d   1       0.527  -0.291   0.000  0.00  0.00     0.228 S 
ATOM      8  O   UNL d   1       0.760   0.494   0.000  0.00  0.00    -0.216 OA
ATOM      9  O   UNL d   1       0.291  -1.084   0.000  0.00  0.00    -0.216 OA
BRANCH   7  10
ATOM     10  C   UNL d   1      -0.270  -0.079   0.000  0.00  0.00     0.089 A 
ATOM     11  C   UNL d   1      -0.856  -0.652   0.000  0.00  0.00     0.011 A 
ATOM     12  C   UNL d   1      -1.653  -0.440   0.000  0.00  0.00     0.001 A 
ATOM     13  C   UNL d   1      -1.865   0.361   0.000  0.00  0.00     0.000 A 
ATOM     14  C   UNL d   1      -1.279   0.943   0.000  0.00  0.00     0.001 A 
ATOM     15  C   UNL d   1      -2.662   0.581   0.000  0.00  0.00     0.000 C 
ATOM     16  C   UNL d   1      -0.482   0.731   0.000  0.00  0.00     0.011 A 
ENDBRANCH   7  10
ENDBRANCH   1   7
BRANCH   5  17
ATOM     17  N   UNL d   1       3.418  -0.291   0.000  0.00  0.00    -0.220 NA
BRANCH  17  18
ATOM     18  C   UNL d   1       4.028  -0.847   0.000  0.00  0.00     0.103 C 
BRANCH  18  19
ATOM     19  C   UNL d   1       4.813  -0.590   0.000  0.00  0.00     0.040 C 
BRANCH  19  20
ATOM     20  C   UNL d   1       5.424  -1.146   0.000  0.00  0.00     0.083 C 
BRANCH  20  21
ATOM     21  N   UNL d   1       6.204  -0.889   0.000  0.00  0.00    -0.285 N 
ATOM     22  C   UNL d   1       6.458  -0.112   0.000  0.00  0.00     0.183 A 
ATOM     23  N   UNL d   1       7.280  -0.112   0.000  0.00  0.00    -0.222 NA
ATOM     24  C   UNL d   1       7.529  -0.889   0.000  0.00  0.00     0.120 A 
ATOM     25  C   UNL d   1       6.865  -1.375   0.000  0.00  0.00     0.102 A 
ENDBRANCH  20  21
ENDBRANCH  19  20
ENDBRANCH  18  19
ENDBRANCH  17  18
ENDBRANCH   5  17
TORSDOF 7
