REMARK  4 active torsions:
REMARK  status: ('A' for Active; 'I' for Inactive)
REMARK    1  A    between atoms: C_2  and  C_1 
REMARK    2  A    between atoms: C_7  and  O_14 
REMARK       I    between atoms: N_12  and  C_7 
REMARK    3  A    between atoms: O_14  and  C_11 
REMARK    4  A    between atoms: C_24  and  C_18 
ROOT
ATOM      1  C   UNL d   1       5.808  -2.633   0.000  0.00  0.00     0.099 A 
ATOM      2  C   UNL d   1       5.095  -3.046   0.000  0.00  0.00     0.202 A 
ATOM      3  C   UNL d   1       4.373  -2.633   0.000  0.00  0.00     0.062 A 
ATOM      4  C   UNL d   1       5.808  -1.802   0.000  0.00  0.00     0.129 A 
ATOM      5  C   UNL d   1       4.373  -1.807   0.000  0.00  0.00     0.105 A 
ATOM      6  O   UNL d   1       5.086  -1.389   0.000  0.00  0.00    -0.305 OA
ATOM      7  C   UNL d   1       2.954  -1.815   0.000  0.00  0.00     0.107 A 
ATOM      8  C   UNL d   1       3.659  -3.046   0.000  0.00  0.00     0.007 A 
ATOM      9  C   UNL d   1       3.659  -1.394   0.000  0.00  0.00     0.050 A 
ATOM     10  C   UNL d   1       2.954  -2.633   0.000  0.00  0.00     0.023 A 
ATOM     11  O   UNL d   1       5.095  -3.868   0.000  0.00  0.00    -0.286 OA
ENDROOT
BRANCH   1  12
ATOM     12  C   UNL d   1       6.526  -3.042   0.000  0.00  0.00     0.168 A 
ATOM     13  N   UNL d   1       7.277  -2.704   0.000  0.00  0.00    -0.225 NA
ATOM     14  C   UNL d   1       7.836  -3.321   0.000  0.00  0.00     0.101 A 
ATOM     15  C   UNL d   1       8.654  -3.321   0.000  0.00  0.00     0.021 A 
ATOM     16  C   UNL d   1       7.423  -4.035   0.000  0.00  0.00     0.101 A 
ATOM     17  C   UNL d   1       9.075  -4.030   0.000  0.00  0.00     0.002 A 
ATOM     18  C   UNL d   1       8.654  -4.748   0.000  0.00  0.00     0.002 A 
ATOM     19  C   UNL d   1       7.827  -4.748   0.000  0.00  0.00     0.021 A 
ATOM     20  N   UNL d   1       6.613  -3.860   0.000  0.00  0.00    -0.225 NA
ENDBRANCH   1  12
BRANCH  10  21
ATOM     21  C   UNL d   1       2.232  -3.046   0.000  0.00  0.00     0.002 C 
ATOM     22  C   UNL d   1       2.232  -3.872   0.000  0.00  0.00     0.000 C 
ENDBRANCH  10  21
BRANCH   7  23
ATOM     23  O   UNL d   1       2.232  -1.394   0.000  0.00  0.00    -0.259 OA
BRANCH  23  24
ATOM     24  C   UNL d   1       2.232  -0.568   0.000  0.00  0.00     0.378 C 
ATOM     25  N   UNL d   1       1.519  -0.154   0.000  0.00  0.00    -0.247 N 
ATOM     26  C   UNL d   1       1.527   0.672   0.000  0.00  0.00     0.112 A 
ATOM     27  C   UNL d   1       0.805  -0.568   0.000  0.00  0.00     0.112 A 
ATOM     28  C   UNL d   1       0.818   1.085   0.000  0.00  0.00     0.142 A 
ATOM     29  O   UNL d   1       0.100   0.676   0.000  0.00  0.00    -0.300 OA
ATOM     30  C   UNL d   1       0.092  -0.150   0.000  0.00  0.00     0.142 A 
ATOM     31  O   UNL d   1       2.946  -0.154   0.000  0.00  0.00    -0.237 OA
ENDBRANCH  23  24
ENDBRANCH   7  23
TORSDOF 4
