REMARK  5 active torsions:
REMARK  status: ('A' for Active; 'I' for Inactive)
REMARK    1  A    between atoms: C_3  and  C_1 
REMARK    2  A    between atoms: C_4  and  C_3 
REMARK    3  A    between atoms: C_7  and  C_4 
REMARK    4  A    between atoms: C_10  and  C_7 
REMARK    5  A    between atoms: O_19  and  C_9 
ROOT
ATOM      1  C   UNL d   1       3.454  -0.329   0.000  0.00  0.00     0.199 C 
ATOM      2  O   UNL d   1       3.454  -1.154   0.000  0.00  0.00    -0.286 OA
ENDROOT
BRANCH   1   3
ATOM      3  C   UNL d   1       2.742   0.083   0.000  0.00  0.00     0.078 A 
ATOM      4  C   UNL d   1       2.742   0.908   0.000  0.00  0.00     0.201 A 
ATOM      5  C   UNL d   1       2.025   1.321   0.000  0.00  0.00     0.066 A 
ATOM      6  O   UNL d   1       3.454   1.325   0.000  0.00  0.00    -0.286 OA
ATOM      7  C   UNL d   1       1.312   0.908   0.000  0.00  0.00     0.097 A 
ATOM      8  C   UNL d   1       1.312   0.083   0.000  0.00  0.00     0.025 A 
ATOM      9  C   UNL d   1       2.025  -0.329   0.000  0.00  0.00     0.008 A 
BRANCH   7  10
ATOM     10  O   UNL d   1       0.592   1.321   0.000  0.00  0.00    -0.328 OA
ATOM     11  C   UNL d   1      -0.121   0.908   0.000  0.00  0.00     0.181 C 
ENDBRANCH   7  10
ENDBRANCH   1   3
BRANCH   1  12
ATOM     12  C   UNL d   1       4.167   0.083   0.000  0.00  0.00     0.042 C 
BRANCH  12  13
ATOM     13  C   UNL d   1       4.888  -0.329   0.000  0.00  0.00     0.003 C 
BRANCH  13  14
ATOM     14  C   UNL d   1       5.600   0.083   0.000  0.00  0.00     0.000 A 
ATOM     15  C   UNL d   1       5.592   0.908   0.000  0.00  0.00     0.001 A 
ATOM     16  C   UNL d   1       6.304   1.321   0.000  0.00  0.00     0.011 A 
ATOM     17  C   UNL d   1       7.029   0.883   0.000  0.00  0.00     0.058 A 
ATOM     18  C   UNL d   1       7.029   0.083   0.000  0.00  0.00     0.011 A 
ATOM     19 CL   UNL d   1       7.742   1.283   0.000  0.00  0.00    -0.082 Cl
ATOM     20  C   UNL d   1       6.317  -0.329   0.000  0.00  0.00     0.001 A 
ENDBRANCH  13  14
ENDBRANCH  12  13
ENDBRANCH   1  12
TORSDOF 5
