REMARK  3 active torsions:
REMARK  status: ('A' for Active; 'I' for Inactive)
REMARK    1  A    between atoms: C_3  and  C_1 
REMARK    2  A    between atoms: C_5  and  C_3 
REMARK    3  A    between atoms: C_11  and  C_5 
ROOT
ATOM      1  C   UNL d   1       6.313  -2.443   0.000  0.00  0.00     0.109 C 
ATOM      2  C   UNL d   1       6.718  -3.156   0.000  0.00  0.00     0.105 C 
ATOM      3  N   UNL d   1       7.131  -3.870   0.000  0.00  0.00    -0.191 NA
ENDROOT
BRANCH   1   4
ATOM      4  C   UNL d   1       5.486  -2.443   0.000  0.00  0.00     0.192 A 
ATOM      5  N   UNL d   1       4.989  -1.770   0.000  0.00  0.00    -0.220 NA
ATOM      6  C   UNL d   1       4.200  -2.029   0.000  0.00  0.00     0.106 A 
ATOM      7  C   UNL d   1       3.486  -1.616   0.000  0.00  0.00     0.021 A 
ATOM      8  C   UNL d   1       4.200  -2.860   0.000  0.00  0.00     0.119 A 
ATOM      9  C   UNL d   1       2.772  -2.029   0.000  0.00  0.00     0.002 A 
ATOM     10  C   UNL d   1       2.772  -2.860   0.000  0.00  0.00     0.002 A 
ATOM     11  C   UNL d   1       3.486  -3.273   0.000  0.00  0.00     0.026 A 
ATOM     12  O   UNL d   1       4.989  -3.119   0.000  0.00  0.00    -0.287 OA
ENDBRANCH   1   4
BRANCH   1  13
ATOM     13  C   UNL d   1       6.726  -1.729   0.000  0.00  0.00     0.014 C 
BRANCH  13  14
ATOM     14  C   UNL d   1       7.553  -1.729   0.000  0.00  0.00     0.004 A 
ATOM     15  C   UNL d   1       7.958  -2.447   0.000  0.00  0.00     0.021 A 
ATOM     16  C   UNL d   1       8.785  -2.447   0.000  0.00  0.00     0.099 A 
ATOM     17  N   UNL d   1       9.198  -1.733   0.000  0.00  0.00    -0.242 NA
ATOM     18  C   UNL d   1       8.785  -1.006   0.000  0.00  0.00     0.099 A 
ATOM     19  C   UNL d   1       7.958  -1.015   0.000  0.00  0.00     0.021 A 
ENDBRANCH  13  14
ENDBRANCH   1  13
TORSDOF 3
