REMARK  4 active torsions:
REMARK  status: ('A' for Active; 'I' for Inactive)
REMARK    1  A    between atoms: C_4  and  C_1 
REMARK       I    between atoms: N_9  and  C_4 
REMARK    2  A    between atoms: C_7  and  C_13 
REMARK    3  A    between atoms: C_12  and  N_9 
REMARK    4  A    between atoms: C_13  and  C_12 
ROOT
ATOM      1  C   UNL d   1      -0.661   0.048   0.000  0.00  0.00     0.302 C 
ATOM      2  O   UNL d   1      -0.240  -0.645   0.000  0.00  0.00    -0.263 OA
ATOM      3  N   UNL d   1      -0.254   0.782   0.000  0.00  0.00    -0.205 NA
ENDROOT
BRANCH   3   4
ATOM      4  C   UNL d   1       0.563   0.782   0.000  0.00  0.00     0.102 C 
BRANCH   4   5
ATOM      5  C   UNL d   1       0.981   0.067   0.000  0.00  0.00     0.021 C 
BRANCH   5   6
ATOM      6  C   UNL d   1       1.802   0.067   0.000  0.00  0.00     0.002 A 
ATOM      7  C   UNL d   1       2.213   0.793   0.000  0.00  0.00     0.000 A 
ATOM      8  C   UNL d   1       3.037   0.806   0.000  0.00  0.00     0.000 A 
ATOM      9  C   UNL d   1       3.466   0.099   0.000  0.00  0.00     0.000 A 
ATOM     10  C   UNL d   1       3.061  -0.613   0.000  0.00  0.00     0.000 A 
ATOM     11  C   UNL d   1       2.230  -0.626   0.000  0.00  0.00     0.000 A 
ENDBRANCH   5   6
ENDBRANCH   4   5
ENDBRANCH   3   4
BRANCH   1  12
ATOM     12  C   UNL d   1      -1.485   0.042   0.000  0.00  0.00     0.158 A 
ATOM     13  O   UNL d   1      -2.002  -0.605   0.000  0.00  0.00    -0.296 OA
ATOM     14  C   UNL d   1      -2.784  -0.329   0.000  0.00  0.00     0.134 A 
ATOM     15 BR   UNL d   1      -3.466  -0.802   0.000  0.00  0.00    -0.022 Br
ATOM     16  C   UNL d   1      -2.747   0.496   0.000  0.00  0.00     0.034 A 
ATOM     17  C   UNL d   1      -1.961   0.725   0.000  0.00  0.00     0.032 A 
ENDBRANCH   1  12
TORSDOF 4
