REMARK  3 active torsions:
REMARK  status: ('A' for Active; 'I' for Inactive)
REMARK    1  A    between atoms: CB_6  and  CG_1 
REMARK    2  A    between atoms: C_5  and  CA_8 
REMARK    3  A    between atoms: CA_8  and  CB_6 
ROOT
ATOM      1  CG  TRP d   1       1.605  -3.844   0.000  0.00  0.00     0.022 A 
ATOM      2  NE1 TRP d   1       0.452  -4.505   0.000  0.00  0.00    -0.244 NA
ATOM      3  CD1 TRP d   1       1.272  -4.584   0.000  0.00  0.00     0.099 A 
ATOM      4  CD2 TRP d   1       0.990  -3.286   0.000  0.00  0.00     0.019 A 
ATOM      5  CE2 TRP d   1       0.278  -3.698   0.000  0.00  0.00     0.081 A 
ATOM      6  CE3 TRP d   1       0.990  -2.458   0.000  0.00  0.00     0.002 A 
ATOM      7  CZ2 TRP d   1      -0.437  -3.286   0.000  0.00  0.00     0.019 A 
ATOM      8  CZ3 TRP d   1       0.278  -2.047   0.000  0.00  0.00     0.000 A 
ATOM      9  CH2 TRP d   1      -0.437  -2.458   0.000  0.00  0.00     0.002 A 
ENDROOT
BRANCH   1  10
ATOM     10  CB  TRP d   1       2.418  -3.689   0.000  0.00  0.00     0.029 C 
BRANCH  10  11
ATOM     11  CA  TRP d   1       2.949  -4.309   0.000  0.00  0.00     0.167 C 
ATOM     12  N   TRP d   1       3.760  -4.157   0.000  0.00  0.00    -0.142 N 
BRANCH  11  13
ATOM     13  C   TRP d   1       2.672  -5.083   0.000  0.00  0.00     0.231 C 
ATOM     14  O   TRP d   1       1.870  -5.232   0.000  0.00  0.00    -0.643 OA
ATOM     15  OXT TRP d   1       3.210  -5.707   0.000  0.00  0.00    -0.643 OA
ENDBRANCH  11  13
ENDBRANCH  10  11
ENDBRANCH   1  10
TORSDOF 3
