REMARK  3 active torsions:
REMARK  status: ('A' for Active; 'I' for Inactive)
REMARK    1  A    between atoms: N_5  and  C_1 
REMARK    2  A    between atoms: C_8  and  C_2 
REMARK       I    between atoms: C_7  and  N_5 
REMARK       I    between atoms: N_9  and  C_7 
REMARK    3  A    between atoms: C_13  and  N_9 
ROOT
ATOM      1  C   UNL d   1      -1.158  -1.009   0.000  0.00  0.00     0.120 A 
ATOM      2  C   UNL d   1      -1.645  -0.343   0.000  0.00  0.00     0.084 A 
ATOM      3  S   UNL d   1      -1.659  -1.649   0.000  0.00  0.00    -0.068 SA
ATOM      4  C   UNL d   1      -2.404  -0.593   0.000  0.00  0.00     0.013 A 
ATOM      5  C   UNL d   1      -2.417  -1.381   0.000  0.00  0.00     0.031 A 
ATOM      6  C   UNL d   1      -3.091  -0.098   0.000  0.00  0.00     0.001 C 
ATOM      7  C   UNL d   1      -3.117  -1.839   0.000  0.00  0.00     0.007 C 
ENDROOT
BRANCH   1   8
ATOM      8  N   UNL d   1       0.239  -1.009   0.000  0.00  0.00    -0.184 NA
ATOM      9  C   UNL d   1       0.655  -0.314   0.000  0.00  0.00     0.369 C 
ATOM     10  N   UNL d   1       1.484  -0.298   0.000  0.00  0.00    -0.191 NA
ATOM     11  O   UNL d   1       0.239   0.399   0.000  0.00  0.00    -0.242 OA
BRANCH  10  12
ATOM     12  C   UNL d   1       1.887   0.406   0.000  0.00  0.00     0.086 A 
ATOM     13  C   UNL d   1       1.472   1.125   0.000  0.00  0.00     0.019 A 
ATOM     14  C   UNL d   1       1.861   1.830   0.000  0.00  0.00     0.002 A 
ATOM     15  C   UNL d   1       2.688   1.844   0.000  0.00  0.00     0.000 A 
ATOM     16  C   UNL d   1       3.117   1.126   0.000  0.00  0.00     0.002 A 
ATOM     17  C   UNL d   1       2.693   0.418   0.000  0.00  0.00     0.019 A 
ENDBRANCH  10  12
ENDBRANCH   1   8
BRANCH   2  18
ATOM     18  C   UNL d   1      -1.384   0.446   0.000  0.00  0.00     0.299 C 
ATOM     19  O   UNL d   1      -0.572   0.621   0.000  0.00  0.00    -0.264 OA
ATOM     20  N   UNL d   1      -1.929   1.075   0.000  0.00  0.00    -0.102 N 
ENDBRANCH   2  18
TORSDOF 3
