REMARK  4 active torsions:
REMARK  status: ('A' for Active; 'I' for Inactive)
REMARK    1  A    between atoms: C_11  and  C_4 
REMARK    2  A    between atoms: C_12  and  C_5 
REMARK    3  A    between atoms: C_7  and  C_11 
REMARK    4  A    between atoms: C_8  and  C_12 
ROOT
ATOM      1  N   UNL d   1       1.867  -1.517   0.000  0.00  0.00    -0.246 NA
ATOM      2  C   UNL d   1       1.867   0.125   0.000  0.00  0.00     0.003 A 
ATOM      3  C   UNL d   1       2.579  -0.287   0.000  0.00  0.00     0.019 A 
ATOM      4  C   UNL d   1       2.579  -1.113   0.000  0.00  0.00     0.081 A 
ATOM      5  C   UNL d   1       1.154  -1.113   0.000  0.00  0.00     0.081 A 
ATOM      6  C   UNL d   1       1.154  -0.287   0.000  0.00  0.00     0.019 A 
ATOM      7  C   UNL d   1       1.867   0.938   0.000  0.00  0.00     0.000 C 
ENDROOT
BRANCH   4   8
ATOM      8  C   UNL d   1       3.317  -1.517   0.000  0.00  0.00     0.019 C 
BRANCH   8   9
ATOM      9  C   UNL d   1       4.017  -1.100   0.000  0.00  0.00     0.002 C 
ATOM     10  C   UNL d   1       4.754  -1.488   0.000  0.00  0.00     0.000 C 
ENDBRANCH   8   9
ENDBRANCH   4   8
BRANCH   5  11
ATOM     11  C   UNL d   1       0.429  -1.538   0.000  0.00  0.00     0.019 C 
BRANCH  11  12
ATOM     12  C   UNL d   1      -0.283  -1.137   0.000  0.00  0.00     0.002 C 
ATOM     13  C   UNL d   1      -0.996  -1.562   0.000  0.00  0.00     0.000 C 
ENDBRANCH  11  12
ENDBRANCH   5  11
TORSDOF 4
