REMARK  3 active torsions:
REMARK  status: ('A' for Active; 'I' for Inactive)
REMARK    1  A    between atoms: C_4  and  S_1 
REMARK       I    between atoms: C_2  and  N_3 
REMARK    2  A    between atoms: C_9  and  C_2 
REMARK    3  A    between atoms: N_3  and  C_12 
ROOT
ATOM      1  C   UNL d   1       2.592   0.042   0.000  0.00  0.00     0.107 A 
ATOM      2  C   UNL d   1       2.180   0.752   0.000  0.00  0.00     0.015 A 
ATOM      3  C   UNL d   1       2.180  -0.676   0.000  0.00  0.00     0.015 A 
ATOM      4  C   UNL d   1       0.943   0.042   0.000  0.00  0.00     0.085 A 
ATOM      5  C   UNL d   1       1.344  -0.676   0.000  0.00  0.00     0.020 A 
ATOM      6  C   UNL d   1       1.344   0.752   0.000  0.00  0.00     0.020 A 
ENDROOT
BRANCH   4   7
ATOM      7  N   UNL d   1       0.096   0.042   0.000  0.00  0.00    -0.208 NA
ATOM      8  C   UNL d   1      -0.321   0.752   0.000  0.00  0.00     0.279 C 
ATOM      9  O   UNL d   1       0.096   1.485   0.000  0.00  0.00    -0.265 OA
BRANCH   8  10
ATOM     10  C   UNL d   1      -1.145   0.752   0.000  0.00  0.00     0.058 A 
ATOM     11  C   UNL d   1      -1.569   1.485   0.000  0.00  0.00     0.005 A 
ATOM     12  C   UNL d   1      -2.394   1.485   0.000  0.00  0.00     0.000 A 
ATOM     13  C   UNL d   1      -2.814   0.752   0.000  0.00  0.00     0.000 A 
ATOM     14  C   UNL d   1      -2.394   0.042   0.000  0.00  0.00     0.000 A 
ATOM     15  C   UNL d   1      -1.569   0.042   0.000  0.00  0.00     0.005 A 
ENDBRANCH   8  10
ENDBRANCH   4   7
BRANCH   1  16
ATOM     16  S   UNL d   1       3.436   0.042   0.000  0.00  0.00     0.302 S 
ATOM     17  O   UNL d   1       3.436   0.882   0.000  0.00  0.00    -0.197 OA
ATOM     18  O   UNL d   1       3.436  -0.783   0.000  0.00  0.00    -0.197 OA
ATOM     19  N   UNL d   1       4.261   0.042   0.000  0.00  0.00    -0.043 N 
ENDBRANCH   1  16
TORSDOF 3
