REMARK  4 active torsions:
REMARK  status: ('A' for Active; 'I' for Inactive)
REMARK    1  A    between atoms: N_3  and  S_1 
REMARK    2  A    between atoms: C_4  and  S_1 
REMARK    3  A    between atoms: S_2  and  C_5 
REMARK    4  A    between atoms: C_13  and  N_3 
ROOT
ATOM      1  N   UNL d   1       1.077   0.253   0.000  0.00  0.00    -0.158 NA
ENDROOT
BRANCH   1   2
ATOM      2  S   UNL d   1       0.664  -0.449   0.000  0.00  0.00     0.285 S 
ATOM      3  O   UNL d   1      -0.053  -0.040   0.000  0.00  0.00    -0.198 OA
ATOM      4  O   UNL d   1       1.376  -0.879   0.000  0.00  0.00    -0.198 OA
BRANCH   2   5
ATOM      5  C   UNL d   1       0.232  -1.193   0.000  0.00  0.00     0.105 A 
ATOM      6  C   UNL d   1      -0.577  -1.178   0.000  0.00  0.00     0.015 A 
ATOM      7  C   UNL d   1      -1.007  -1.877   0.000  0.00  0.00     0.022 A 
ATOM      8  C   UNL d   1      -0.617  -2.593   0.000  0.00  0.00     0.103 A 
ATOM      9  C   UNL d   1       0.214  -2.605   0.000  0.00  0.00     0.022 A 
ATOM     10  N   UNL d   1      -1.062  -3.305   0.000  0.00  0.00    -0.148 N 
ATOM     11  C   UNL d   1       0.624  -1.888   0.000  0.00  0.00     0.015 A 
ENDBRANCH   2   5
ENDBRANCH   1   2
BRANCH   1  12
ATOM     12  C   UNL d   1       1.896   0.253   0.000  0.00  0.00     0.094 A 
ATOM     13  C   UNL d   1       2.290  -0.449   0.000  0.00  0.00     0.021 A 
ATOM     14  C   UNL d   1       3.121  -0.449   0.000  0.00  0.00     0.015 A 
ATOM     15  C   UNL d   1       3.522   0.253   0.000  0.00  0.00     0.107 A 
ATOM     16  C   UNL d   1       3.121   0.978   0.000  0.00  0.00     0.015 A 
ATOM     17  C   UNL d   1       2.290   0.978   0.000  0.00  0.00     0.021 A 
BRANCH  15  18
ATOM     18  S   UNL d   1       4.352   0.253   0.000  0.00  0.00     0.302 S 
ATOM     19  O   UNL d   1       4.352   1.092   0.000  0.00  0.00    -0.197 OA
ATOM     20  O   UNL d   1       4.352  -0.562   0.000  0.00  0.00    -0.197 OA
ATOM     21  N   UNL d   1       5.175   0.253   0.000  0.00  0.00    -0.043 N 
ENDBRANCH  15  18
ENDBRANCH   1  12
TORSDOF 4
