REMARK  2 active torsions:
REMARK  status: ('A' for Active; 'I' for Inactive)
REMARK       I    between atoms: N_2  and  C_1 
REMARK       I    between atoms: N_4  and  C_1 
REMARK    1  A    between atoms: C_3  and  N_2 
REMARK    2  A    between atoms: C_7  and  N_4 
ROOT
ATOM      1  C   UNL d   1      -0.043  -0.386   0.000  0.00  0.00     0.370 C 
ATOM      2  N   UNL d   1       0.613  -0.894   0.000  0.00  0.00    -0.172 NA
ATOM      3  N   UNL d   1      -0.809  -0.724   0.000  0.00  0.00    -0.191 NA
ATOM      4  O   UNL d   1       0.034   0.409   0.000  0.00  0.00    -0.242 OA
ENDROOT
BRANCH   2   5
ATOM      5  C   UNL d   1       1.369  -0.564   0.000  0.00  0.00     0.167 A 
ATOM      6  N   UNL d   1       1.482   0.273   0.000  0.00  0.00    -0.225 NA
ATOM      7  C   UNL d   1       2.238   0.588   0.000  0.00  0.00     0.101 A 
ATOM      8  C   UNL d   1       2.890   0.077   0.000  0.00  0.00     0.021 A 
ATOM      9  C   UNL d   1       2.775  -0.741   0.000  0.00  0.00     0.005 A 
ATOM     10  C   UNL d   1       2.028  -1.050   0.000  0.00  0.00     0.039 A 
ENDBRANCH   2   5
BRANCH   3  11
ATOM     11  C   UNL d   1      -1.467  -0.232   0.000  0.00  0.00     0.086 A 
ATOM     12  C   UNL d   1      -1.372   0.573   0.000  0.00  0.00     0.019 A 
ATOM     13  C   UNL d   1      -2.042   1.065   0.000  0.00  0.00     0.002 A 
ATOM     14  C   UNL d   1      -2.811   0.726   0.000  0.00  0.00     0.000 A 
ATOM     15  C   UNL d   1      -2.894  -0.077   0.000  0.00  0.00     0.002 A 
ATOM     16  C   UNL d   1      -2.240  -0.571   0.000  0.00  0.00     0.019 A 
ENDBRANCH   3  11
TORSDOF 2
