REMARK  5 active torsions:
REMARK  status: ('A' for Active; 'I' for Inactive)
REMARK    1  A    between atoms: C_2  and  N_1 
REMARK    2  A    between atoms: C_5  and  C_18 
REMARK       I    between atoms: N_9  and  C_5 
REMARK    3  A    between atoms: O_15  and  C_7 
REMARK    4  A    between atoms: C_13  and  N_9 
REMARK    5  A    between atoms: C_18  and  O_15 
ROOT
ATOM      1  C   UNL d   1       3.809   0.853   0.000  0.00  0.00     0.304 C 
ATOM      2  N   UNL d   1       3.396   0.138   0.000  0.00  0.00    -0.206 NA
ATOM      3  O   UNL d   1       3.396   1.567   0.000  0.00  0.00    -0.263 OA
ENDROOT
BRANCH   1   4
ATOM      4  C   UNL d   1       4.634   0.853   0.000  0.00  0.00     0.185 C 
BRANCH   4   5
ATOM      5  O   UNL d   1       5.046   1.567   0.000  0.00  0.00    -0.298 OA
BRANCH   5   6
ATOM      6  C   UNL d   1       5.871   1.567   0.000  0.00  0.00     0.122 A 
ATOM      7  C   UNL d   1       6.284   2.292   0.000  0.00  0.00     0.149 A 
ATOM      8  C   UNL d   1       7.109   2.292   0.000  0.00  0.00     0.026 A 
ATOM      9  C   UNL d   1       7.521   1.567   0.000  0.00  0.00     0.002 A 
ATOM     10  C   UNL d   1       7.109   0.853   0.000  0.00  0.00     0.002 A 
ATOM     11  C   UNL d   1       6.284   0.853   0.000  0.00  0.00     0.026 A 
BRANCH   7  12
ATOM     12  N   UNL d   1       5.871   2.998   0.000  0.00  0.00    -0.112 N 
ATOM     13  O   UNL d   1       6.284   3.712   0.000  0.00  0.00    -0.532 OA
ATOM     14  O   UNL d   1       5.046   2.998   0.000  0.00  0.00    -0.532 OA
ENDBRANCH   7  12
ENDBRANCH   5   6
ENDBRANCH   4   5
ENDBRANCH   1   4
BRANCH   2  15
ATOM     15  C   UNL d   1       2.571   0.138   0.000  0.00  0.00     0.087 A 
ATOM     16  C   UNL d   1       2.159   0.853   0.000  0.00  0.00     0.045 A 
ATOM     17  C   UNL d   1       1.334   0.853   0.000  0.00  0.00     0.121 A 
ATOM     18  O   UNL d   1       0.784   1.467   0.000  0.00  0.00    -0.299 OA
ATOM     19  C   UNL d   1       0.921   0.138   0.000  0.00  0.00     0.119 A 
ATOM     20  C   UNL d   1       0.028   1.137   0.000  0.00  0.00     0.304 A 
ATOM     21  O   UNL d   1       0.115   0.312   0.000  0.00  0.00    -0.300 OA
ATOM     22  C   UNL d   1       1.334  -0.568   0.000  0.00  0.00     0.028 A 
ATOM     23  C   UNL d   1       2.159  -0.568   0.000  0.00  0.00     0.021 A 
ENDBRANCH   2  15
TORSDOF 5
