REMARK  4 active torsions:
REMARK  status: ('A' for Active; 'I' for Inactive)
REMARK    1  A    between atoms: N_2  and  S_1 
REMARK    2  A    between atoms: C_3  and  S_1 
REMARK    3  A    between atoms: C_11  and  N_2 
REMARK    4  A    between atoms: C_6  and  C_7 
ROOT
ATOM      1  S   UNL d   1      -0.896   0.212   0.000  0.00  0.00     0.285 S 
ATOM      2  O   UNL d   1      -1.611   0.620   0.000  0.00  0.00    -0.198 OA
ATOM      3  O   UNL d   1      -0.176  -0.216   0.000  0.00  0.00    -0.198 OA
ENDROOT
BRANCH   1   4
ATOM      4  N   UNL d   1      -0.483   0.917   0.000  0.00  0.00    -0.158 NA
BRANCH   4   5
ATOM      5  C   UNL d   1       0.339   0.917   0.000  0.00  0.00     0.094 A 
ATOM      6  C   UNL d   1       0.722   1.651   0.000  0.00  0.00     0.020 A 
ATOM      7  C   UNL d   1       1.560   1.664   0.000  0.00  0.00     0.005 A 
ATOM      8  C   UNL d   1       1.982   0.955   0.000  0.00  0.00     0.039 A 
ATOM      9  C   UNL d   1       1.599   0.228   0.000  0.00  0.00     0.005 A 
ATOM     10  C   UNL d   1       0.776   0.212   0.000  0.00  0.00     0.020 A 
BRANCH   8  11
ATOM     11  C   UNL d   1       2.824   0.977   0.000  0.00  0.00     0.196 C 
ATOM     12  O   UNL d   1       3.201   1.710   0.000  0.00  0.00    -0.287 OA
ATOM     13  C   UNL d   1       3.241   0.266   0.000  0.00  0.00     0.045 C 
ENDBRANCH   8  11
ENDBRANCH   4   5
ENDBRANCH   1   4
BRANCH   1  14
ATOM     14  C   UNL d   1      -1.329  -0.538   0.000  0.00  0.00     0.105 A 
ATOM     15  C   UNL d   1      -2.143  -0.520   0.000  0.00  0.00     0.015 A 
ATOM     16  C   UNL d   1      -2.576  -1.224   0.000  0.00  0.00     0.022 A 
ATOM     17  C   UNL d   1      -2.181  -1.939   0.000  0.00  0.00     0.103 A 
ATOM     18  C   UNL d   1      -1.338  -1.960   0.000  0.00  0.00     0.022 A 
ATOM     19  N   UNL d   1      -2.626  -2.663   0.000  0.00  0.00    -0.148 N 
ATOM     20  C   UNL d   1      -0.932  -1.234   0.000  0.00  0.00     0.015 A 
ENDBRANCH   1  14
TORSDOF 4
