REMARK  4 active torsions:
REMARK  status: ('A' for Active; 'I' for Inactive)
REMARK    1  A    between atoms: C_3  and  S_1 
REMARK       I    between atoms: C_2  and  N_6 
REMARK    2  A    between atoms: C_11  and  C_2 
REMARK    3  A    between atoms: N_6  and  C_12 
REMARK    4  A    between atoms: C_15  and  C_11 
ROOT
ATOM      1  C   UNL d   1       6.263  -0.853   0.000  0.00  0.00     0.107 A 
ATOM      2  C   UNL d   1       5.851  -1.564   0.000  0.00  0.00     0.015 A 
ATOM      3  C   UNL d   1       5.851  -0.138   0.000  0.00  0.00     0.015 A 
ATOM      4  C   UNL d   1       4.615  -0.853   0.000  0.00  0.00     0.085 A 
ATOM      5  C   UNL d   1       5.027  -0.138   0.000  0.00  0.00     0.020 A 
ATOM      6  C   UNL d   1       5.027  -1.564   0.000  0.00  0.00     0.020 A 
ENDROOT
BRANCH   4   7
ATOM      7  N   UNL d   1       3.790  -0.853   0.000  0.00  0.00    -0.208 NA
ATOM      8  C   UNL d   1       3.378  -0.138   0.000  0.00  0.00     0.279 C 
ATOM      9  O   UNL d   1       3.790   0.575   0.000  0.00  0.00    -0.265 OA
BRANCH   8  10
ATOM     10  C   UNL d   1       2.547  -0.138   0.000  0.00  0.00     0.062 C 
BRANCH  10  11
ATOM     11  C   UNL d   1       2.129   0.573   0.000  0.00  0.00     0.005 A 
ATOM     12  C   UNL d   1       2.547   1.284   0.000  0.00  0.00     0.000 A 
ATOM     13  C   UNL d   1       2.129   1.999   0.000  0.00  0.00     0.000 A 
ATOM     14  C   UNL d   1       1.300   1.999   0.000  0.00  0.00     0.000 A 
ATOM     15  C   UNL d   1       0.890   1.284   0.000  0.00  0.00     0.000 A 
ATOM     16  C   UNL d   1       1.300   0.573   0.000  0.00  0.00     0.000 A 
ENDBRANCH  10  11
ENDBRANCH   8  10
ENDBRANCH   4   7
BRANCH   1  17
ATOM     17  S   UNL d   1       7.088  -0.853   0.000  0.00  0.00     0.302 S 
ATOM     18  O   UNL d   1       7.088  -0.027   0.000  0.00  0.00    -0.197 OA
ATOM     19  O   UNL d   1       7.088  -1.678   0.000  0.00  0.00    -0.197 OA
ATOM     20  N   UNL d   1       7.914  -0.853   0.000  0.00  0.00    -0.043 N 
ENDBRANCH   1  17
TORSDOF 4
