REMARK  3 active torsions:
REMARK  status: ('A' for Active; 'I' for Inactive)
REMARK    1  A    between atoms: C_2  and  C_1 
REMARK    2  A    between atoms: C_3  and  C_1 
REMARK    3  A    between atoms: C_5  and  C_2 
ROOT
ATOM      1  C   UNL d   1       1.667  -2.579   0.000  0.00  0.00     0.000 C 
ENDROOT
BRANCH   1   2
ATOM      2  C   UNL d   1       0.954  -2.167   0.000  0.00  0.00     0.000 C 
BRANCH   2   3
ATOM      3  C   UNL d   1       0.242  -2.587   0.000  0.00  0.00     0.000 A 
ATOM      4  C   UNL d   1      -0.475  -2.175   0.000  0.00  0.00     0.000 A 
ATOM      5  C   UNL d   1      -1.188  -2.587   0.000  0.00  0.00     0.000 A 
ATOM      6  C   UNL d   1      -1.188  -3.417   0.000  0.00  0.00     0.000 A 
ATOM      7  C   UNL d   1      -0.475  -3.829   0.000  0.00  0.00     0.000 A 
ATOM      8  C   UNL d   1       0.242  -3.417   0.000  0.00  0.00     0.000 A 
ENDBRANCH   2   3
ENDBRANCH   1   2
BRANCH   1   9
ATOM      9  C   UNL d   1       2.379  -2.167   0.000  0.00  0.00     0.000 A 
ATOM     10  C   UNL d   1       2.375  -1.342   0.000  0.00  0.00     0.002 A 
ATOM     11  C   UNL d   1       3.087  -0.929   0.000  0.00  0.00     0.021 A 
ATOM     12  C   UNL d   1       3.804  -1.337   0.000  0.00  0.00     0.103 A 
ATOM     13  C   UNL d   1       3.804  -2.163   0.000  0.00  0.00     0.021 A 
ATOM     14  N   UNL d   1       4.517  -0.917   0.000  0.00  0.00    -0.148 N 
ATOM     15  C   UNL d   1       3.092  -2.579   0.000  0.00  0.00     0.002 A 
ENDBRANCH   1   9
TORSDOF 3
