REMARK  5 active torsions:
REMARK  status: ('A' for Active; 'I' for Inactive)
REMARK       I    between atoms: C_2  and  N_1 
REMARK    1  A    between atoms: C_3  and  N_1 
REMARK    2  A    between atoms: C_4  and  C_2 
REMARK    3  A    between atoms: N_6  and  C_3 
REMARK    4  A    between atoms: C_11  and  N_6 
REMARK    5  A    between atoms: C_12  and  C_11 
ROOT
ATOM      1  N   UNL d   1       0.138   0.652   0.000  0.00  0.00    -0.179 NA
ATOM      2  C   UNL d   1      -0.301   1.335   0.000  0.00  0.00     0.281 C 
ATOM      3  O   UNL d   1       0.089   2.067   0.000  0.00  0.00    -0.265 OA
ENDROOT
BRANCH   1   4
ATOM      4  C   UNL d   1       0.959   0.660   0.000  0.00  0.00     0.224 C 
ATOM      5  S   UNL d   1       1.370   1.378   0.000  0.00  0.00    -0.037 SA
BRANCH   4   6
ATOM      6  N   UNL d   1       1.364  -0.046   0.000  0.00  0.00    -0.214 NA
BRANCH   6   7
ATOM      7  C   UNL d   1       2.191  -0.046   0.000  0.00  0.00     0.126 C 
BRANCH   7   8
ATOM      8  C   UNL d   1       2.610  -0.770   0.000  0.00  0.00     0.119 A 
ATOM      9  O   UNL d   1       3.431  -0.844   0.000  0.00  0.00    -0.304 OA
ATOM     10  C   UNL d   1       3.618  -1.648   0.000  0.00  0.00     0.123 A 
ATOM     11  C   UNL d   1       2.903  -2.062   0.000  0.00  0.00     0.029 A 
ATOM     12  C   UNL d   1       2.291  -1.519   0.000  0.00  0.00     0.028 A 
ENDBRANCH   7   8
ENDBRANCH   6   7
ENDBRANCH   4   6
ENDBRANCH   1   4
BRANCH   2  13
ATOM     13  C   UNL d   1      -1.134   1.298   0.000  0.00  0.00     0.058 A 
ATOM     14  C   UNL d   1      -1.550   1.998   0.000  0.00  0.00     0.005 A 
ATOM     15  C   UNL d   1      -2.377   1.978   0.000  0.00  0.00     0.000 A 
ATOM     16  C   UNL d   1      -2.782   1.263   0.000  0.00  0.00     0.000 A 
ATOM     17  C   UNL d   1      -2.340   0.557   0.000  0.00  0.00     0.000 A 
ATOM     18  C   UNL d   1      -3.618   1.263   0.000  0.00  0.00     0.000 C 
ATOM     19  C   UNL d   1      -1.525   0.583   0.000  0.00  0.00     0.005 A 
ENDBRANCH   2  13
TORSDOF 5
