REMARK  5 active torsions:
REMARK  status: ('A' for Active; 'I' for Inactive)
REMARK    1  A    between atoms: C_2  and  C_1 
REMARK       I    between atoms: N_5  and  C_1 
REMARK    2  A    between atoms: C_3  and  C_14 
REMARK    3  A    between atoms: C_12  and  N_5 
REMARK    4  A    between atoms: O_13  and  C_9 
REMARK    5  A    between atoms: C_14  and  C_12 
ROOT
ATOM      1  C   UNL d   1      -0.212   0.703   0.000  0.00  0.00     0.279 C 
ATOM      2  O   UNL d   1       0.198   1.408   0.000  0.00  0.00    -0.265 OA
ATOM      3  N   UNL d   1       0.175  -0.021   0.000  0.00  0.00    -0.206 NA
ENDROOT
BRANCH   1   4
ATOM      4  C   UNL d   1      -1.038   0.716   0.000  0.00  0.00     0.058 A 
ATOM      5  C   UNL d   1      -1.428   1.424   0.000  0.00  0.00     0.007 A 
ATOM      6  C   UNL d   1      -2.265   1.424   0.000  0.00  0.00     0.024 A 
ATOM      7  C   UNL d   1      -2.671   0.744   0.000  0.00  0.00     0.094 A 
ATOM      8  C   UNL d   1      -2.274   0.017   0.000  0.00  0.00     0.024 A 
ATOM      9  C   UNL d   1      -1.450   0.000   0.000  0.00  0.00     0.007 A 
BRANCH   7  10
ATOM     10  O   UNL d   1      -3.478   0.753   0.000  0.00  0.00    -0.328 OA
ATOM     11  C   UNL d   1      -3.901   0.039   0.000  0.00  0.00     0.181 C 
ENDBRANCH   7  10
ENDBRANCH   1   4
BRANCH   3  12
ATOM     12  C   UNL d   1       1.003  -0.021   0.000  0.00  0.00     0.102 C 
BRANCH  12  13
ATOM     13  C   UNL d   1       1.414  -0.708   0.000  0.00  0.00     0.021 C 
BRANCH  13  14
ATOM     14  C   UNL d   1       2.232  -0.708   0.000  0.00  0.00     0.002 A 
ATOM     15  C   UNL d   1       2.649  -0.003   0.000  0.00  0.00     0.000 A 
ATOM     16  C   UNL d   1       3.475  -0.003   0.000  0.00  0.00     0.000 A 
ATOM     17  C   UNL d   1       3.901  -0.708   0.000  0.00  0.00     0.000 A 
ATOM     18  C   UNL d   1       3.475  -1.423   0.000  0.00  0.00     0.000 A 
ATOM     19  C   UNL d   1       2.640  -1.414   0.000  0.00  0.00     0.000 A 
ENDBRANCH  13  14
ENDBRANCH  12  13
ENDBRANCH   3  12
TORSDOF 5
