REMARK  2 active torsions:
REMARK  status: ('A' for Active; 'I' for Inactive)
REMARK    1  A    between atoms: C_7  and  C_1 
REMARK    2  A    between atoms: C_8  and  C_7 
ROOT
ATOM      1  C   UNL d   1       1.187  -0.895   0.000  0.00  0.00     0.116 A 
ATOM      2  N   UNL d   1      -0.068  -0.189   0.000  0.00  0.00    -0.152 NA
ATOM      3  N   UNL d   1       1.187   0.530   0.000  0.00  0.00    -0.152 NA
ATOM      4  C   UNL d   1       0.339  -0.895   0.000  0.00  0.00     0.288 A 
ATOM      5  C   UNL d   1       1.602  -0.189   0.000  0.00  0.00     0.288 A 
ATOM      6  C   UNL d   1       0.339   0.530   0.000  0.00  0.00     0.374 A 
ATOM      7  O   UNL d   1      -0.068  -1.608   0.000  0.00  0.00    -0.265 OA
ATOM      8  O   UNL d   1       2.414  -0.189   0.000  0.00  0.00    -0.265 OA
ATOM      9  O   UNL d   1      -0.085   1.260   0.000  0.00  0.00    -0.242 OA
ENDROOT
BRANCH   1  10
ATOM     10  C   UNL d   1       1.602  -1.608   0.000  0.00  0.00     0.016 C 
BRANCH  10  11
ATOM     11  C   UNL d   1       2.768  -1.608   0.000  0.00  0.00     0.030 A 
ATOM     12  S   UNL d   1       3.262  -2.273   0.000  0.00  0.00    -0.080 SA
ATOM     13  C   UNL d   1       4.048  -2.005   0.000  0.00  0.00     0.064 A 
ATOM     14 BR   UNL d   1       4.720  -2.500   0.000  0.00  0.00    -0.042 Br
ATOM     15  C   UNL d   1       4.048  -1.195   0.000  0.00  0.00     0.014 A 
ATOM     16  C   UNL d   1       3.245  -0.939   0.000  0.00  0.00     0.007 A 
ENDBRANCH  10  11
ENDBRANCH   1  10
TORSDOF 2
