REMARK  6 active torsions:
REMARK  status: ('A' for Active; 'I' for Inactive)
REMARK    1  A    between atoms: N_2  and  S_1 
REMARK    2  A    between atoms: C_6  and  S_1 
REMARK    3  A    between atoms: C_3  and  N_2 
REMARK       I    between atoms: C_7  and  N_13 
REMARK    4  A    between atoms: C_10  and  C_7 
REMARK    5  A    between atoms: C_12  and  C_10 
REMARK    6  A    between atoms: C_11  and  C_12 
ROOT
ATOM      1  C   UNL d   1      -0.372  -1.371   0.000  0.00  0.00     0.105 A 
ATOM      2  C   UNL d   1       2.933  -0.679   0.000  0.00  0.00     0.280 C 
ATOM      3  N   UNL d   1       2.506  -1.386   0.000  0.00  0.00    -0.208 NA
ATOM      4  O   UNL d   1       3.755  -0.679   0.000  0.00  0.00    -0.265 OA
ATOM      5  C   UNL d   1       0.027  -2.086   0.000  0.00  0.00     0.015 A 
ATOM      6  C   UNL d   1       0.027  -0.665   0.000  0.00  0.00     0.015 A 
ATOM      7  C   UNL d   1       1.273  -1.386   0.000  0.00  0.00     0.085 A 
ATOM      8  C   UNL d   1       0.858  -2.095   0.000  0.00  0.00     0.020 A 
ATOM      9  C   UNL d   1       0.858  -0.671   0.000  0.00  0.00     0.020 A 
ENDROOT
BRANCH   1  10
ATOM     10  S   UNL d   1      -1.231  -1.371   0.000  0.00  0.00     0.285 S 
ATOM     11  O   UNL d   1      -1.240  -2.193   0.000  0.00  0.00    -0.198 OA
ATOM     12  O   UNL d   1      -1.213  -0.527   0.000  0.00  0.00    -0.198 OA
BRANCH  10  13
ATOM     13  N   UNL d   1      -2.074  -1.350   0.000  0.00  0.00    -0.158 NA
BRANCH  13  14
ATOM     14  C   UNL d   1      -2.465  -0.629   0.000  0.00  0.00     0.094 A 
ATOM     15  C   UNL d   1      -2.035   0.069   0.000  0.00  0.00     0.018 A 
ATOM     16  C   UNL d   1      -2.441   0.784   0.000  0.00  0.00     0.002 A 
ATOM     17  C   UNL d   1      -1.180   0.045   0.000  0.00  0.00     0.002 C 
ATOM     18  C   UNL d   1      -3.243   0.796   0.000  0.00  0.00     0.000 A 
ATOM     19  C   UNL d   1      -3.692   0.104   0.000  0.00  0.00     0.002 A 
ATOM     20  C   UNL d   1      -3.636   1.547   0.000  0.00  0.00     0.000 C 
ATOM     21  C   UNL d   1      -3.305  -0.611   0.000  0.00  0.00     0.018 A 
ATOM     22  C   UNL d   1      -3.755  -1.299   0.000  0.00  0.00     0.002 C 
ENDBRANCH  13  14
ENDBRANCH  10  13
ENDBRANCH   1  10
BRANCH   2  23
ATOM     23  C   UNL d   1       2.506   0.036   0.000  0.00  0.00     0.069 C 
BRANCH  23  24
ATOM     24  C   UNL d   1       2.933   0.760   0.000  0.00  0.00     0.075 C 
BRANCH  24  25
ATOM     25  C   UNL d   1       2.524   1.475   0.000  0.00  0.00     0.211 C 
ATOM     26  O   UNL d   1       1.684   1.499   0.000  0.00  0.00    -0.644 OA
ATOM     27  O   UNL d   1       2.933   2.196   0.000  0.00  0.00    -0.644 OA
ENDBRANCH  24  25
ENDBRANCH  23  24
ENDBRANCH   2  23
TORSDOF 6
