REMARK  1 active torsions:
REMARK  status: ('A' for Active; 'I' for Inactive)
REMARK    1  A    between atoms: C_7  and  C_6 
ROOT
ATOM      1  C   UNL d   1       2.060  -0.565   0.000  0.00  0.00     0.045 A 
ATOM      2  C   UNL d   1       1.582  -1.238   0.000  0.00  0.00     0.196 A 
ATOM      3  C   UNL d   1       1.582   0.108   0.000  0.00  0.00     0.003 A 
ATOM      4  C   UNL d   1       0.797  -0.976   0.000  0.00  0.00     0.039 A 
ATOM      5  C   UNL d   1       0.797  -0.154   0.000  0.00  0.00     0.003 A 
ATOM      6  C   UNL d   1       2.890  -0.478   0.000  0.00  0.00     0.068 A 
ATOM      7  O   UNL d   1       1.835  -2.018   0.000  0.00  0.00    -0.287 OA
ATOM      8  C   UNL d   1       1.919   0.855   0.000  0.00  0.00     0.000 A 
ATOM      9  C   UNL d   1       0.079  -1.387   0.000  0.00  0.00     0.003 A 
ATOM     10  C   UNL d   1       0.079   0.257   0.000  0.00  0.00     0.000 A 
ATOM     11  C   UNL d   1       3.227   0.274   0.000  0.00  0.00     0.006 A 
ATOM     12  C   UNL d   1       2.732   0.943   0.000  0.00  0.00     0.000 A 
ATOM     13  C   UNL d   1      -0.631  -0.976   0.000  0.00  0.00     0.000 A 
ATOM     14  C   UNL d   1      -0.631  -0.154   0.000  0.00  0.00     0.000 A 
ENDROOT
BRANCH   6  15
ATOM     15  C   UNL d   1       3.368  -1.150   0.000  0.00  0.00     0.211 C 
ATOM     16  O   UNL d   1       4.190  -1.063   0.000  0.00  0.00    -0.644 OA
ATOM     17  O   UNL d   1       3.031  -1.898   0.000  0.00  0.00    -0.644 OA
ENDBRANCH   6  15
TORSDOF 1
