REMARK  5 active torsions:
REMARK  status: ('A' for Active; 'I' for Inactive)
REMARK    1  A    between atoms: C_2  and  C_1 
REMARK       I    between atoms: N_3  and  C_1 
REMARK    2  A    between atoms: C_6  and  N_4 
REMARK    3  A    between atoms: O_19  and  C_5 
REMARK    4  A    between atoms: O_22  and  C_7 
REMARK    5  A    between atoms: O_23  and  C_8 
ROOT
ATOM      1  C   UNL d   1      -1.046   1.171   0.000  0.00  0.00     0.265 C 
ATOM      2  N   UNL d   1      -0.333   0.762   0.000  0.00  0.00    -0.269 N 
ATOM      3  N   UNL d   1       1.100  -0.062   0.000  0.00  0.00    -0.301 N 
ATOM      4  C   UNL d   1       0.379   1.175   0.000  0.00  0.00     0.102 A 
ATOM      5  C   UNL d   1      -0.325  -0.067   0.000  0.00  0.00     0.102 A 
ATOM      6  C   UNL d   1       0.388  -0.475   0.000  0.00  0.00     0.100 A 
ATOM      7  C   UNL d   1       1.100   0.762   0.000  0.00  0.00     0.100 A 
ATOM      8  O   UNL d   1      -1.050   1.996   0.000  0.00  0.00    -0.267 OA
ENDROOT
BRANCH   1   9
ATOM      9  C   UNL d   1      -1.758   0.758   0.000  0.00  0.00     0.061 A 
ATOM     10  C   UNL d   1      -1.758  -0.075   0.000  0.00  0.00     0.031 A 
ATOM     11  C   UNL d   1      -2.475  -0.487   0.000  0.00  0.00     0.118 A 
ATOM     12  C   UNL d   1      -3.188  -0.075   0.000  0.00  0.00     0.138 A 
ATOM     13  C   UNL d   1      -3.188   0.750   0.000  0.00  0.00     0.118 A 
ATOM     14  C   UNL d   1      -2.475   1.171   0.000  0.00  0.00     0.031 A 
BRANCH  11  15
ATOM     15  O   UNL d   1      -2.471  -1.312   0.000  0.00  0.00    -0.326 OA
ATOM     16  C   UNL d   1      -1.758  -1.725   0.000  0.00  0.00     0.181 C 
ENDBRANCH  11  15
BRANCH  12  17
ATOM     17  O   UNL d   1      -3.900  -0.487   0.000  0.00  0.00    -0.324 OA
ATOM     18  C   UNL d   1      -3.900  -1.312   0.000  0.00  0.00     0.182 C 
ENDBRANCH  12  17
BRANCH  13  19
ATOM     19  O   UNL d   1      -3.908   1.171   0.000  0.00  0.00    -0.326 OA
ATOM     20  C   UNL d   1      -4.621   0.758   0.000  0.00  0.00     0.181 C 
ENDBRANCH  13  19
ENDBRANCH   1   9
BRANCH   3  21
ATOM     21  C   UNL d   1       1.817  -0.475   0.000  0.00  0.00     0.064 A 
ATOM     22  C   UNL d   1       2.525  -0.062   0.000  0.00  0.00     0.016 A 
ATOM     23  C   UNL d   1       3.237  -0.467   0.000  0.00  0.00     0.001 A 
ATOM     24  C   UNL d   1       2.517   0.762   0.000  0.00  0.00     0.002 C 
ATOM     25  C   UNL d   1       3.242  -1.300   0.000  0.00  0.00     0.000 A 
ATOM     26  C   UNL d   1       2.525  -1.712   0.000  0.00  0.00     0.002 A 
ATOM     27  C   UNL d   1       3.954  -1.712   0.000  0.00  0.00     0.000 C 
ATOM     28  C   UNL d   1       1.812  -1.300   0.000  0.00  0.00     0.018 A 
ENDBRANCH   3  21
TORSDOF 5
