REMARK  9 active torsions:
REMARK  status: ('A' for Active; 'I' for Inactive)
REMARK    1  A    between atoms: C_21  and  N_1 
REMARK    2  A    between atoms: S_17  and  C_3 
REMARK    3  A    between atoms: C_16  and  C_32 
REMARK       I    between atoms: N_19  and  C_16 
REMARK    4  A    between atoms: C_29  and  S_17 
REMARK    5  A    between atoms: C_22  and  N_19 
REMARK    6  A    between atoms: C_31  and  C_21 
REMARK    7  A    between atoms: C_23  and  C_22 
REMARK    8  A    between atoms: O_30  and  C_24 
REMARK    9  A    between atoms: C_32  and  C_31 
ROOT
ATOM      1  N   UNL d   1       5.030  -8.979   0.000  0.00  0.00    -0.195 NA
ATOM      2  C   UNL d   1       5.742  -8.567   0.000  0.00  0.00     0.086 C 
ATOM      3  C   UNL d   1       6.466  -8.167   0.000  0.00  0.00     0.170 C 
ENDROOT
BRANCH   3   4
ATOM      4  S   UNL d   1       6.478  -7.343   0.000  0.00  0.00    -0.060 SA
BRANCH   4   5
ATOM      5  C   UNL d   1       7.219  -6.932   0.000  0.00  0.00     0.178 A 
ATOM      6  N   UNL d   1       7.219  -6.120   0.000  0.00  0.00    -0.253 N 
ATOM      7  C   UNL d   1       7.938  -5.708   0.000  0.00  0.00     0.268 A 
ATOM      8  C   UNL d   1       8.662  -6.120   0.000  0.00  0.00     0.076 A 
ATOM      9  O   UNL d   1       7.938  -4.885   0.000  0.00  0.00    -0.267 OA
ATOM     10  C   UNL d   1       9.378  -5.708   0.000  0.00  0.00     0.033 A 
ATOM     11  C   UNL d   1       8.662  -6.932   0.000  0.00  0.00     0.090 A 
ATOM     12  C   UNL d   1      10.114  -6.120   0.000  0.00  0.00     0.119 A 
ATOM     13  O   UNL d   1      10.922  -5.871   0.000  0.00  0.00    -0.300 OA
ATOM     14  C   UNL d   1      10.110  -6.932   0.000  0.00  0.00     0.121 A 
ATOM     15  C   UNL d   1      11.421  -6.532   0.000  0.00  0.00     0.304 A 
ATOM     16  O   UNL d   1      10.913  -7.181   0.000  0.00  0.00    -0.299 OA
ATOM     17  C   UNL d   1       9.386  -7.343   0.000  0.00  0.00     0.046 A 
ATOM     18  N   UNL d   1       7.938  -7.343   0.000  0.00  0.00    -0.222 NA
BRANCH   6  19
ATOM     19  C   UNL d   1       6.478  -5.708   0.000  0.00  0.00     0.085 C 
BRANCH  19  20
ATOM     20  C   UNL d   1       6.478  -4.885   0.000  0.00  0.00     0.024 C 
BRANCH  20  21
ATOM     21  C   UNL d   1       5.754  -4.485   0.000  0.00  0.00     0.064 C 
BRANCH  21  22
ATOM     22  C   UNL d   1       5.742  -3.661   0.000  0.00  0.00     0.279 C 
ATOM     23  N   UNL d   1       5.022  -3.262   0.000  0.00  0.00    -0.206 NA
ATOM     24  O   UNL d   1       6.453  -3.237   0.000  0.00  0.00    -0.265 OA
BRANCH  23  25
ATOM     25  C   UNL d   1       4.319  -3.686   0.000  0.00  0.00     0.102 C 
BRANCH  25  26
ATOM     26  C   UNL d   1       3.595  -3.274   0.000  0.00  0.00     0.019 A 
ATOM     27  C   UNL d   1       3.587  -2.463   0.000  0.00  0.00     0.004 A 
ATOM     28  C   UNL d   1       2.871  -2.064   0.000  0.00  0.00     0.024 A 
ATOM     29  C   UNL d   1       2.159  -2.476   0.000  0.00  0.00     0.094 A 
ATOM     30  C   UNL d   1       2.172  -3.299   0.000  0.00  0.00     0.024 A 
ATOM     31  C   UNL d   1       2.896  -3.711   0.000  0.00  0.00     0.004 A 
BRANCH  29  32
ATOM     32  O   UNL d   1       1.440  -2.076   0.000  0.00  0.00    -0.328 OA
ATOM     33  C   UNL d   1       1.448  -1.252   0.000  0.00  0.00     0.181 C 
ENDBRANCH  29  32
ENDBRANCH  25  26
ENDBRANCH  23  25
ENDBRANCH  21  22
ENDBRANCH  20  21
ENDBRANCH  19  20
ENDBRANCH   6  19
ENDBRANCH   4   5
ENDBRANCH   3   4
TORSDOF 9
