REMARK  1 active torsions:
REMARK  status: ('A' for Active; 'I' for Inactive)
REMARK    1  A    between atoms: C_6  and  C_1 
ROOT
ATOM      1  C   UNL d   1       6.825  -3.154   0.000  0.00  0.00     0.128 A 
ATOM      2  C   UNL d   1       6.825  -3.979   0.000  0.00  0.00     0.306 A 
ATOM      3  C   UNL d   1       6.104  -2.737   0.000  0.00  0.00     0.013 A 
ATOM      4  O   UNL d   1       6.104  -4.392   0.000  0.00  0.00    -0.273 OA
ATOM      5  C   UNL d   1       5.392  -3.154   0.000  0.00  0.00     0.023 A 
ATOM      6  C   UNL d   1       5.392  -3.979   0.000  0.00  0.00     0.103 A 
ATOM      7  O   UNL d   1       7.537  -4.392   0.000  0.00  0.00    -0.259 OA
ATOM      8  C   UNL d   1       4.679  -2.742   0.000  0.00  0.00     0.002 A 
ATOM      9  C   UNL d   1       4.679  -4.392   0.000  0.00  0.00     0.025 A 
ATOM     10  C   UNL d   1       3.967  -3.154   0.000  0.00  0.00     0.000 A 
ATOM     11  C   UNL d   1       3.967  -3.979   0.000  0.00  0.00     0.002 A 
ATOM     12  C   UNL d   1       3.254  -2.742   0.000  0.00  0.00     0.000 C 
ENDROOT
BRANCH   1  13
ATOM     13  C   UNL d   1       7.542  -2.742   0.000  0.00  0.00     0.216 C 
ATOM     14  O   UNL d   1       7.542  -1.917   0.000  0.00  0.00    -0.644 OA
ATOM     15  O   UNL d   1       8.254  -3.154   0.000  0.00  0.00    -0.644 OA
ENDBRANCH   1  13
TORSDOF 1
