REMARK  6 active torsions:
REMARK  status: ('A' for Active; 'I' for Inactive)
REMARK    1  A    between atoms: S_5  and  C_2 
REMARK    2  A    between atoms: C_13  and  S_5 
REMARK    3  A    between atoms: N_17  and  C_10 
REMARK    4  A    between atoms: C_24  and  N_17 
REMARK    5  A    between atoms: C_25  and  C_24 
REMARK    6  A    between atoms: C_26  and  C_25 
ROOT
ATOM      1  C   UNL d   1       5.108  -5.416   0.000  0.00  0.00     0.198 A 
ATOM      2  C   UNL d   1       5.720  -5.957   0.000  0.00  0.00     0.227 A 
ATOM      3  N   UNL d   1       4.405  -5.828   0.000  0.00  0.00    -0.192 N 
ATOM      4  N   UNL d   1       5.108  -4.584   0.000  0.00  0.00    -0.205 NA
ATOM      5  N   UNL d   1       5.391  -6.714   0.000  0.00  0.00    -0.115 NA
ATOM      6  N   UNL d   1       4.580  -6.630   0.000  0.00  0.00    -0.058 NA
ATOM      7  C   UNL d   1       3.686  -5.416   0.000  0.00  0.00     0.096 A 
ATOM      8  C   UNL d   1       3.686  -4.584   0.000  0.00  0.00     0.083 A 
ATOM      9  C   UNL d   1       4.393  -4.172   0.000  0.00  0.00     0.172 A 
ATOM     10  S   UNL d   1       2.895  -4.330   0.000  0.00  0.00    -0.082 SA
ATOM     11  C   UNL d   1       2.895  -5.670   0.000  0.00  0.00     0.027 A 
ATOM     12  C   UNL d   1       2.408  -5.004   0.000  0.00  0.00     0.037 A 
ENDROOT
BRANCH   2  13
ATOM     13  S   UNL d   1       6.531  -5.790   0.000  0.00  0.00     0.231 S 
ATOM     14  O   UNL d   1       6.339  -4.983   0.000  0.00  0.00    -0.215 OA
ATOM     15  O   UNL d   1       6.726  -6.593   0.000  0.00  0.00    -0.215 OA
BRANCH  13  16
ATOM     16  C   UNL d   1       7.329  -5.570   0.000  0.00  0.00     0.090 A 
ATOM     17  C   UNL d   1       7.537  -4.771   0.000  0.00  0.00     0.012 A 
ATOM     18  C   UNL d   1       8.328  -4.555   0.000  0.00  0.00     0.007 A 
ATOM     19  C   UNL d   1       8.922  -5.133   0.000  0.00  0.00     0.035 A 
ATOM     20  C   UNL d   1       8.710  -5.932   0.000  0.00  0.00     0.007 A 
ATOM     21 BR   UNL d   1       9.713  -4.917   0.000  0.00  0.00    -0.049 Br
ATOM     22  C   UNL d   1       7.916  -6.152   0.000  0.00  0.00     0.012 A 
ENDBRANCH  13  16
ENDBRANCH   2  13
BRANCH   9  23
ATOM     23  N   UNL d   1       4.393  -3.344   0.000  0.00  0.00    -0.225 NA
BRANCH  23  24
ATOM     24  C   UNL d   1       5.108  -2.933   0.000  0.00  0.00     0.101 C 
BRANCH  24  25
ATOM     25  C   UNL d   1       5.108  -2.109   0.000  0.00  0.00     0.021 C 
BRANCH  25  26
ATOM     26  C   UNL d   1       5.819  -1.697   0.000  0.00  0.00     0.002 C 
ATOM     27  C   UNL d   1       5.819  -0.874   0.000  0.00  0.00     0.000 C 
ATOM     28  C   UNL d   1       6.539  -2.101   0.000  0.00  0.00     0.000 C 
ENDBRANCH  25  26
ENDBRANCH  24  25
ENDBRANCH  23  24
ENDBRANCH   9  23
TORSDOF 6
