REMARK  6 active torsions:
REMARK  status: ('A' for Active; 'I' for Inactive)
REMARK    1  A    between atoms: C_21  and  N_1 
REMARK       I    between atoms: N_7  and  C_10 
REMARK    2  A    between atoms: C_15  and  N_8 
REMARK    3  A    between atoms: C_10  and  C_27 
REMARK    4  A    between atoms: C_29  and  C_21 
REMARK    5  A    between atoms: O_28  and  C_24 
REMARK    6  A    between atoms: C_27  and  C_29 
ROOT
ATOM      1  N   UNL d   1       5.772  -4.707   0.000  0.00  0.00    -0.269 N 
ATOM      2  N   UNL d   1       4.357  -5.522   0.000  0.00  0.00    -0.301 N 
ATOM      3  C   UNL d   1       6.492  -4.282   0.000  0.00  0.00     0.265 C 
ATOM      4  C   UNL d   1       5.785  -5.522   0.000  0.00  0.00     0.102 A 
ATOM      5  C   UNL d   1       5.069  -4.282   0.000  0.00  0.00     0.102 A 
ATOM      6  C   UNL d   1       5.073  -5.943   0.000  0.00  0.00     0.100 A 
ATOM      7  C   UNL d   1       4.349  -4.707   0.000  0.00  0.00     0.100 A 
ATOM      8  O   UNL d   1       7.220  -4.682   0.000  0.00  0.00    -0.267 OA
ENDROOT
BRANCH   3   9
ATOM      9  C   UNL d   1       6.459  -3.450   0.000  0.00  0.00     0.063 C 
BRANCH   9  10
ATOM     10  C   UNL d   1       7.183  -3.026   0.000  0.00  0.00     0.024 C 
BRANCH  10  11
ATOM     11  C   UNL d   1       7.158  -2.189   0.000  0.00  0.00     0.088 C 
BRANCH  11  12
ATOM     12  N   UNL d   1       7.870  -1.752   0.000  0.00  0.00    -0.224 N 
ATOM     13  C   UNL d   1       7.857  -0.916   0.000  0.00  0.00     0.276 A 
ATOM     14  C   UNL d   1       8.569  -0.499   0.000  0.00  0.00     0.104 A 
ATOM     15  O   UNL d   1       7.146  -0.524   0.000  0.00  0.00    -0.266 OA
ATOM     16  S   UNL d   1       8.727   0.308   0.000  0.00  0.00    -0.080 SA
ATOM     17  C   UNL d   1       9.293  -0.899   0.000  0.00  0.00     0.097 A 
ATOM     18  C   UNL d   1       9.530   0.395   0.000  0.00  0.00     0.037 A 
ATOM     19  C   UNL d   1       9.892  -0.341   0.000  0.00  0.00     0.027 A 
ATOM     20  N   UNL d   1       9.305  -1.723   0.000  0.00  0.00    -0.191 NA
ATOM     21  C   UNL d   1       8.602  -2.152   0.000  0.00  0.00     0.356 A 
ATOM     22  O   UNL d   1       8.606  -2.988   0.000  0.00  0.00    -0.244 OA
ENDBRANCH  11  12
ENDBRANCH  10  11
ENDBRANCH   9  10
ENDBRANCH   3   9
BRANCH   2  23
ATOM     23  C   UNL d   1       3.637  -5.930   0.000  0.00  0.00     0.064 A 
ATOM     24  C   UNL d   1       2.913  -5.535   0.000  0.00  0.00     0.020 A 
ATOM     25  C   UNL d   1       2.210  -5.947   0.000  0.00  0.00     0.026 A 
ATOM     26  C   UNL d   1       2.210  -6.771   0.000  0.00  0.00     0.094 A 
ATOM     27  C   UNL d   1       2.938  -7.170   0.000  0.00  0.00     0.026 A 
ATOM     28  C   UNL d   1       3.650  -6.754   0.000  0.00  0.00     0.020 A 
BRANCH  26  29
ATOM     29  O   UNL d   1       1.511  -7.216   0.000  0.00  0.00    -0.328 OA
ATOM     30  C   UNL d   1       0.778  -6.817   0.000  0.00  0.00     0.181 C 
ENDBRANCH  26  29
ENDBRANCH   2  23
TORSDOF 6
