REMARK  3 active torsions:
REMARK  status: ('A' for Active; 'I' for Inactive)
REMARK    1  A    between atoms: C_8  and  N_1 
REMARK    2  A    between atoms: C_9  and  C_14 
REMARK       I    between atoms: N_10  and  C_9 
REMARK    3  A    between atoms: C_16  and  N_12 
ROOT
ATOM      1  C   UNL d   1       6.355  -5.854   0.000  0.00  0.00     0.066 A 
ATOM      2  C   UNL d   1       7.770  -5.653   0.000  0.00  0.00     0.058 A 
ATOM      3  C   UNL d   1       7.002  -5.349   0.000  0.00  0.00     0.022 A 
ATOM      4  C   UNL d   1       6.468  -6.676   0.000  0.00  0.00     0.017 A 
ATOM      5  C   UNL d   1       7.883  -6.476   0.000  0.00  0.00     0.005 A 
ATOM      6  C   UNL d   1       7.232  -6.981   0.000  0.00  0.00     0.002 A 
ENDROOT
BRANCH   1   7
ATOM      7  N   UNL d   1       5.591  -5.549   0.000  0.00  0.00    -0.261 N 
ATOM      8  C   UNL d   1       5.015  -6.138   0.000  0.00  0.00     0.174 A 
ATOM      9  O   UNL d   1       4.184  -6.142   0.000  0.00  0.00    -0.316 OA
ATOM     10  C   UNL d   1       4.910  -4.889   0.000  0.00  0.00     0.079 A 
ATOM     11  C   UNL d   1       5.173  -6.944   0.000  0.00  0.00     0.055 C 
ATOM     12  C   UNL d   1       3.595  -5.566   0.000  0.00  0.00     0.094 A 
ATOM     13  C   UNL d   1       2.873  -5.979   0.000  0.00  0.00     0.024 A 
ATOM     14  C   UNL d   1       3.587  -4.739   0.000  0.00  0.00     0.022 A 
ATOM     15  C   UNL d   1       2.159  -5.566   0.000  0.00  0.00     0.002 A 
ATOM     16  C   UNL d   1       2.159  -4.739   0.000  0.00  0.00    -0.000 A 
ATOM     17  C   UNL d   1       2.873  -4.326   0.000  0.00  0.00    -0.001 A 
ATOM     18  C   UNL d   1       4.163  -4.150   0.000  0.00  0.00     0.137 A 
ATOM     19  N   UNL d   1       4.998  -4.138   0.000  0.00  0.00    -0.216 NA
ATOM     20  C   UNL d   1       5.587  -4.714   0.000  0.00  0.00     0.348 A 
ATOM     21  O   UNL d   1       6.342  -4.388   0.000  0.00  0.00    -0.245 OA
ENDBRANCH   1   7
BRANCH   2  22
ATOM     22  C   UNL d   1       8.417  -5.140   0.000  0.00  0.00     0.265 C 
ATOM     23  N   UNL d   1       8.296  -4.326   0.000  0.00  0.00    -0.269 N 
ATOM     24  C   UNL d   1       7.532  -4.013   0.000  0.00  0.00     0.102 A 
ATOM     25  C   UNL d   1       8.948  -3.812   0.000  0.00  0.00     0.102 A 
ATOM     26  C   UNL d   1       7.420  -3.198   0.000  0.00  0.00     0.100 A 
ATOM     27  N   UNL d   1       8.071  -2.685   0.000  0.00  0.00    -0.299 N 
ATOM     28  C   UNL d   1       8.835  -2.998   0.000  0.00  0.00     0.100 A 
ATOM     29  O   UNL d   1       9.186  -5.449   0.000  0.00  0.00    -0.267 OA
BRANCH  27  30
ATOM     30  C   UNL d   1       7.954  -1.871   0.000  0.00  0.00     0.092 A 
ATOM     31  C   UNL d   1       8.605  -1.365   0.000  0.00  0.00     0.156 A 
ATOM     32  F   UNL d   1       9.369  -1.679   0.000  0.00  0.00    -0.203 F 
ATOM     33  C   UNL d   1       8.493  -0.543   0.000  0.00  0.00     0.031 A 
ATOM     34  C   UNL d   1       7.720  -0.238   0.000  0.00  0.00     0.002 A 
ATOM     35  C   UNL d   1       7.069  -0.752   0.000  0.00  0.00     0.002 A 
ATOM     36  C   UNL d   1       7.190  -1.566   0.000  0.00  0.00     0.020 A 
ENDBRANCH  27  30
ENDBRANCH   2  22
TORSDOF 3
