REMARK  4 active torsions:
REMARK  status: ('A' for Active; 'I' for Inactive)
REMARK    1  A    between atoms: C_11  and  C_4 
REMARK    2  A    between atoms: N_10  and  C_7 
REMARK    3  A    between atoms: C_14  and  N_10 
REMARK    4  A    between atoms: C_21  and  C_14 
ROOT
ATOM      1  C   UNL d   1       6.904  -6.954   0.000  0.00  0.00     0.186 A 
ATOM      2  N   UNL d   1       7.625  -7.367   0.000  0.00  0.00    -0.193 N 
ATOM      3  N   UNL d   1       6.912  -6.117   0.000  0.00  0.00    -0.206 NA
ATOM      4  C   UNL d   1       6.292  -7.504   0.000  0.00  0.00     0.140 A 
ATOM      5  N   UNL d   1       7.450  -8.179   0.000  0.00  0.00    -0.058 NA
ATOM      6  N   UNL d   1       6.625  -8.267   0.000  0.00  0.00    -0.127 NA
ATOM      7  C   UNL d   1       7.629  -5.704   0.000  0.00  0.00     0.166 A 
ATOM      8  C   UNL d   1       8.342  -6.129   0.000  0.00  0.00     0.054 A 
ATOM      9  C   UNL d   1       8.338  -6.954   0.000  0.00  0.00     0.089 A 
ATOM     10  C   UNL d   1       9.054  -5.717   0.000  0.00  0.00     0.005 A 
ATOM     11  C   UNL d   1       9.054  -7.367   0.000  0.00  0.00     0.019 A 
ATOM     12  C   UNL d   1       9.767  -6.129   0.000  0.00  0.00     0.000 A 
ATOM     13  C   UNL d   1       9.767  -6.954   0.000  0.00  0.00     0.002 A 
ENDROOT
BRANCH   7  14
ATOM     14  N   UNL d   1       7.638  -4.879   0.000  0.00  0.00    -0.225 NA
BRANCH  14  15
ATOM     15  C   UNL d   1       6.929  -4.467   0.000  0.00  0.00     0.101 C 
BRANCH  15  16
ATOM     16  C   UNL d   1       6.929  -3.642   0.000  0.00  0.00     0.019 A 
ATOM     17  C   UNL d   1       6.217  -3.225   0.000  0.00  0.00     0.002 A 
ATOM     18  C   UNL d   1       6.217  -2.400   0.000  0.00  0.00     0.000 A 
ATOM     19  C   UNL d   1       6.938  -1.992   0.000  0.00  0.00     0.000 A 
ATOM     20  C   UNL d   1       7.654  -2.413   0.000  0.00  0.00     0.000 A 
ATOM     21  C   UNL d   1       7.642  -3.237   0.000  0.00  0.00     0.002 A 
ENDBRANCH  15  16
ENDBRANCH  14  15
ENDBRANCH   7  14
BRANCH   4  22
ATOM     22  C   UNL d   1       5.492  -7.329   0.000  0.00  0.00     0.023 A 
ATOM     23  C   UNL d   1       4.942  -7.942   0.000  0.00  0.00     0.004 A 
ATOM     24  C   UNL d   1       4.129  -7.767   0.000  0.00  0.00     0.030 A 
ATOM     25  C   UNL d   1       3.879  -6.987   0.000  0.00  0.00     0.140 A 
ATOM     26  C   UNL d   1       4.442  -6.375   0.000  0.00  0.00     0.030 A 
ATOM     27  F   UNL d   1       3.079  -6.812   0.000  0.00  0.00    -0.204 F 
ATOM     28  C   UNL d   1       5.242  -6.550   0.000  0.00  0.00     0.004 A 
ENDBRANCH   4  22
TORSDOF 4
