REMARK  5 active torsions:
REMARK  status: ('A' for Active; 'I' for Inactive)
REMARK    1  A    between atoms: S_6  and  C_2 
REMARK    2  A    between atoms: C_8  and  C_4 
REMARK    3  A    between atoms: C_11  and  S_6 
REMARK    4  A    between atoms: C_7  and  C_11 
REMARK       I    between atoms: N_9  and  C_7 
REMARK    5  A    between atoms: C_15  and  N_9 
ROOT
ATOM      1  N   UNL d   1       6.638  -3.985   0.000  0.00  0.00    -0.244 NA
ATOM      2  C   UNL d   1       6.896  -4.772   0.000  0.00  0.00     0.125 A 
ATOM      3  N   UNL d   1       7.971  -3.985   0.000  0.00  0.00    -0.250 NA
ATOM      4  C   UNL d   1       7.700  -4.772   0.000  0.00  0.00     0.101 A 
ATOM      5  C   UNL d   1       7.271  -3.423   0.000  0.00  0.00     0.168 A 
ATOM      6  C   UNL d   1       7.925  -2.903   0.000  0.00  0.00     0.050 C 
ATOM      7  C   UNL d   1       6.497  -3.115   0.000  0.00  0.00     0.050 C 
ENDROOT
BRANCH   2   8
ATOM      8  S   UNL d   1       6.409  -5.447   0.000  0.00  0.00    -0.061 SA
BRANCH   8   9
ATOM      9  C   UNL d   1       5.589  -5.364   0.000  0.00  0.00     0.099 C 
BRANCH   9  10
ATOM     10  C   UNL d   1       5.110  -6.026   0.000  0.00  0.00     0.286 C 
ATOM     11  N   UNL d   1       4.298  -5.947   0.000  0.00  0.00    -0.208 NA
ATOM     12  O   UNL d   1       5.451  -6.771   0.000  0.00  0.00    -0.265 OA
BRANCH  11  13
ATOM     13  C   UNL d   1       3.960  -5.210   0.000  0.00  0.00     0.085 A 
ATOM     14  C   UNL d   1       4.435  -4.548   0.000  0.00  0.00     0.019 A 
ATOM     15  C   UNL d   1       4.102  -3.790   0.000  0.00  0.00     0.002 A 
ATOM     16  C   UNL d   1       3.286  -3.711   0.000  0.00  0.00     0.000 A 
ATOM     17  C   UNL d   1       2.803  -4.377   0.000  0.00  0.00     0.002 A 
ATOM     18  C   UNL d   1       3.140  -5.122   0.000  0.00  0.00     0.019 A 
ENDBRANCH  11  13
ENDBRANCH   9  10
ENDBRANCH   8   9
ENDBRANCH   2   8
BRANCH   4  19
ATOM     19  C   UNL d   1       8.220  -5.414   0.000  0.00  0.00     0.019 A 
ATOM     20  C   UNL d   1       7.925  -6.188   0.000  0.00  0.00     0.002 A 
ATOM     21  C   UNL d   1       8.437  -6.821   0.000  0.00  0.00     0.011 A 
ATOM     22  C   UNL d   1       9.270  -6.696   0.000  0.00  0.00     0.058 A 
ATOM     23  C   UNL d   1       9.549  -5.947   0.000  0.00  0.00     0.011 A 
ATOM     24 CL   UNL d   1       9.795  -7.346   0.000  0.00  0.00    -0.082 Cl
ATOM     25  C   UNL d   1       9.037  -5.289   0.000  0.00  0.00     0.002 A 
ENDBRANCH   4  19
TORSDOF 5
