REMARK  6 active torsions:
REMARK  status: ('A' for Active; 'I' for Inactive)
REMARK    1  A    between atoms: S_5  and  C_2 
REMARK    2  A    between atoms: C_16  and  S_5 
REMARK    3  A    between atoms: N_11  and  C_8 
REMARK    4  A    between atoms: C_18  and  N_11 
REMARK    5  A    between atoms: C_19  and  N_12 
REMARK    6  A    between atoms: C_27  and  C_19 
ROOT
ATOM      1  C   UNL d   1       5.943  -7.556   0.000  0.00  0.00     0.197 A 
ATOM      2  C   UNL d   1       6.556  -8.106   0.000  0.00  0.00     0.227 A 
ATOM      3  N   UNL d   1       5.231  -7.969   0.000  0.00  0.00    -0.192 N 
ATOM      4  N   UNL d   1       5.943  -6.727   0.000  0.00  0.00    -0.206 NA
ATOM      5  N   UNL d   1       6.218  -8.869   0.000  0.00  0.00    -0.115 NA
ATOM      6  N   UNL d   1       5.393  -8.777   0.000  0.00  0.00    -0.058 NA
ATOM      7  C   UNL d   1       5.231  -6.306   0.000  0.00  0.00     0.166 A 
ATOM      8  C   UNL d   1       4.518  -6.727   0.000  0.00  0.00     0.054 A 
ATOM      9  C   UNL d   1       4.514  -7.552   0.000  0.00  0.00     0.089 A 
ATOM     10  C   UNL d   1       3.801  -7.969   0.000  0.00  0.00     0.020 A 
ATOM     11  C   UNL d   1       3.801  -6.314   0.000  0.00  0.00     0.016 A 
ATOM     12  C   UNL d   1       3.088  -6.727   0.000  0.00  0.00     0.058 A 
ATOM     13  C   UNL d   1       3.088  -7.556   0.000  0.00  0.00     0.013 A 
ATOM     14 CL   UNL d   1       2.376  -6.314   0.000  0.00  0.00    -0.082 Cl
ENDROOT
BRANCH   7  15
ATOM     15  N   UNL d   1       5.231  -5.481   0.000  0.00  0.00    -0.227 NA
BRANCH  15  16
ATOM     16  C   UNL d   1       5.943  -5.068   0.000  0.00  0.00     0.086 A 
ATOM     17  C   UNL d   1       5.943  -4.243   0.000  0.00  0.00     0.038 A 
ATOM     18  C   UNL d   1       6.656  -3.838   0.000  0.00  0.00     0.082 A 
ATOM     19  N   UNL d   1       7.377  -4.251   0.000  0.00  0.00    -0.302 N 
ATOM     20  C   UNL d   1       7.369  -5.076   0.000  0.00  0.00     0.082 A 
ATOM     21  C   UNL d   1       6.656  -5.481   0.000  0.00  0.00     0.038 A 
BRANCH  19  22
ATOM     22  C   UNL d   1       8.090  -3.843   0.000  0.00  0.00     0.080 C 
BRANCH  22  23
ATOM     23  C   UNL d   1       8.094  -3.018   0.000  0.00  0.00     0.018 A 
ATOM     24  C   UNL d   1       8.807  -2.605   0.000  0.00  0.00     0.002 A 
ATOM     25  C   UNL d   1       8.815  -1.780   0.000  0.00  0.00     0.000 A 
ATOM     26  C   UNL d   1       8.102  -1.367   0.000  0.00  0.00     0.000 A 
ATOM     27  C   UNL d   1       7.381  -1.780   0.000  0.00  0.00     0.000 A 
ATOM     28  C   UNL d   1       7.381  -2.605   0.000  0.00  0.00     0.002 A 
ENDBRANCH  22  23
ENDBRANCH  19  22
ENDBRANCH  15  16
ENDBRANCH   7  15
BRANCH   2  29
ATOM     29  S   UNL d   1       7.369  -7.944   0.000  0.00  0.00     0.231 S 
ATOM     30  O   UNL d   1       7.556  -8.744   0.000  0.00  0.00    -0.215 OA
ATOM     31  O   UNL d   1       7.177  -7.139   0.000  0.00  0.00    -0.215 OA
BRANCH  29  32
ATOM     32  C   UNL d   1       8.165  -7.727   0.000  0.00  0.00     0.090 A 
ATOM     33  C   UNL d   1       8.744  -8.306   0.000  0.00  0.00     0.011 A 
ATOM     34  C   UNL d   1       9.540  -8.090   0.000  0.00  0.00     0.001 A 
ATOM     35  C   UNL d   1       9.744  -7.290   0.000  0.00  0.00     0.000 A 
ATOM     36  C   UNL d   1       9.157  -6.706   0.000  0.00  0.00     0.001 A 
ATOM     37  C   UNL d   1       8.369  -6.931   0.000  0.00  0.00     0.011 A 
ENDBRANCH  29  32
ENDBRANCH   2  29
TORSDOF 6
