REMARK  9 active torsions:
REMARK  status: ('A' for Active; 'I' for Inactive)
REMARK    1  A    between atoms: C_17  and  N_1 
REMARK    2  A    between atoms: S_10  and  C_2 
REMARK    3  A    between atoms: N_8  and  C_9 
REMARK    4  A    between atoms: C_19  and  S_10 
REMARK    5  A    between atoms: C_11  and  C_19 
REMARK       I    between atoms: N_13  and  C_11 
REMARK    6  A    between atoms: C_20  and  N_13 
REMARK    7  A    between atoms: C_28  and  C_17 
REMARK    8  A    between atoms: C_23  and  C_20 
REMARK    9  A    between atoms: C_29  and  C_28 
ROOT
ATOM      1  N   UNL d   1       7.263  -4.529   0.000  0.00  0.00    -0.253 N 
ATOM      2  C   UNL d   1       7.263  -3.704   0.000  0.00  0.00     0.182 A 
ATOM      3  C   UNL d   1       6.542  -4.942   0.000  0.00  0.00     0.268 A 
ATOM      4  C   UNL d   1       5.829  -4.529   0.000  0.00  0.00     0.076 A 
ATOM      5  N   UNL d   1       6.542  -3.292   0.000  0.00  0.00    -0.222 NA
ATOM      6  C   UNL d   1       5.829  -3.704   0.000  0.00  0.00     0.088 A 
ATOM      7  C   UNL d   1       5.117  -4.942   0.000  0.00  0.00     0.024 A 
ATOM      8  C   UNL d   1       4.404  -4.529   0.000  0.00  0.00     0.065 A 
ATOM      9  O   UNL d   1       6.542  -5.767   0.000  0.00  0.00    -0.267 OA
ATOM     10  C   UNL d   1       5.117  -3.292   0.000  0.00  0.00     0.021 A 
ATOM     11  C   UNL d   1       4.404  -3.704   0.000  0.00  0.00     0.019 A 
ENDROOT
BRANCH   2  12
ATOM     12  S   UNL d   1       7.979  -3.288   0.000  0.00  0.00    -0.044 SA
BRANCH  12  13
ATOM     13  C   UNL d   1       8.704  -3.700   0.000  0.00  0.00     0.101 C 
BRANCH  13  14
ATOM     14  C   UNL d   1       9.417  -3.279   0.000  0.00  0.00     0.286 C 
ATOM     15  N   UNL d   1      10.137  -3.692   0.000  0.00  0.00    -0.206 NA
ATOM     16  O   UNL d   1       9.404  -2.454   0.000  0.00  0.00    -0.265 OA
BRANCH  15  17
ATOM     17  C   UNL d   1      10.854  -3.267   0.000  0.00  0.00     0.102 C 
BRANCH  17  18
ATOM     18  C   UNL d   1      11.575  -3.679   0.000  0.00  0.00     0.019 A 
ATOM     19  C   UNL d   1      11.579  -4.504   0.000  0.00  0.00     0.002 A 
ATOM     20  C   UNL d   1      12.292  -4.917   0.000  0.00  0.00     0.000 A 
ATOM     21  C   UNL d   1      13.017  -4.492   0.000  0.00  0.00     0.000 A 
ATOM     22  C   UNL d   1      13.012  -3.667   0.000  0.00  0.00     0.000 A 
ATOM     23  C   UNL d   1      12.292  -3.254   0.000  0.00  0.00     0.002 A 
ENDBRANCH  17  18
ENDBRANCH  15  17
ENDBRANCH  13  14
ENDBRANCH  12  13
ENDBRANCH   2  12
BRANCH   1  24
ATOM     24  C   UNL d   1       7.979  -4.942   0.000  0.00  0.00     0.085 C 
BRANCH  24  25
ATOM     25  C   UNL d   1       7.979  -5.767   0.000  0.00  0.00     0.019 C 
BRANCH  25  26
ATOM     26  C   UNL d   1       8.700  -6.179   0.000  0.00  0.00     0.002 C 
ATOM     27  C   UNL d   1       8.704  -7.004   0.000  0.00  0.00     0.000 C 
ENDBRANCH  25  26
ENDBRANCH  24  25
ENDBRANCH   1  24
BRANCH   8  28
ATOM     28  N   UNL d   1       3.692  -4.942   0.000  0.00  0.00    -0.300 N 
ATOM     29  C   UNL d   1       2.979  -4.529   0.000  0.00  0.00     0.107 A 
ATOM     30  C   UNL d   1       2.254  -4.942   0.000  0.00  0.00     0.142 A 
ATOM     31  O   UNL d   1       2.254  -5.775   0.000  0.00  0.00    -0.300 OA
ATOM     32  C   UNL d   1       2.979  -6.188   0.000  0.00  0.00     0.142 A 
ATOM     33  C   UNL d   1       3.692  -5.775   0.000  0.00  0.00     0.107 A 
ENDBRANCH   8  28
TORSDOF 9
