REMARK  1 active torsions:
REMARK  status: ('A' for Active; 'I' for Inactive)
REMARK    1  A    between atoms: N_14  and  C_8 
ROOT
ATOM      1  C   UNL d   1       4.779  -3.979   0.000  0.00  0.00     0.056 A 
ATOM      2  C   UNL d   1       6.925  -2.737   0.000  0.00  0.00     0.074 A 
ATOM      3  C   UNL d   1       4.779  -4.804   0.000  0.00  0.00    -0.012 A 
ATOM      4  C   UNL d   1       5.492  -3.567   0.000  0.00  0.00    -0.016 A 
ATOM      5  C   UNL d   1       6.925  -3.567   0.000  0.00  0.00    -0.014 A 
ATOM      6  C   UNL d   1       6.213  -3.979   0.000  0.00  0.00    -0.007 A 
ATOM      7  C   UNL d   1       5.492  -5.213   0.000  0.00  0.00    -0.004 A 
ATOM      8  C   UNL d   1       7.713  -2.487   0.000  0.00  0.00     0.089 A 
ATOM      9  C   UNL d   1       6.204  -2.325   0.000  0.00  0.00    -0.017 A 
ATOM     10  C   UNL d   1       6.213  -4.804   0.000  0.00  0.00    -0.001 A 
ATOM     11  C   UNL d   1       5.492  -2.737   0.000  0.00  0.00    -0.008 A 
ATOM     12  C   UNL d   1       4.067  -3.567   0.000  0.00  0.00    -0.015 A 
ATOM     13  C   UNL d   1       7.713  -3.825   0.000  0.00  0.00    -0.002 A 
ATOM     14  C   UNL d   1       4.067  -5.213   0.000  0.00  0.00     0.038 A 
ATOM     15  C   UNL d   1       8.192  -3.150   0.000  0.00  0.00     0.017 A 
ATOM     16  C   UNL d   1       3.350  -3.979   0.000  0.00  0.00     0.038 A 
ATOM     17  C   UNL d   1       3.350  -4.804   0.000  0.00  0.00     0.195 A 
ATOM     18  C   UNL d   1       4.779  -3.150   0.000  0.00  0.00     0.013 C 
ATOM     19  C   UNL d   1       6.925  -1.913   0.000  0.00  0.00     0.015 C 
ATOM     20  O   UNL d   1       2.638  -5.213   0.000  0.00  0.00    -0.287 OA
ENDROOT
BRANCH   8  21
ATOM     21  N   UNL d   1       7.963  -1.700   0.000  0.00  0.00    -0.131 NA
ATOM     22  N   UNL d   1       8.762  -1.479   0.000  0.00  0.00    -0.023 N 
ENDBRANCH   8  21
TORSDOF 1
