REMARK  6 active torsions:
REMARK  status: ('A' for Active; 'I' for Inactive)
REMARK    1  A    between atoms: S_5  and  C_2 
REMARK    2  A    between atoms: C_15  and  S_5 
REMARK    3  A    between atoms: N_11  and  C_8 
REMARK    4  A    between atoms: C_16  and  N_11 
REMARK    5  A    between atoms: C_17  and  N_12 
REMARK    6  A    between atoms: C_24  and  C_17 
ROOT
ATOM      1  C   UNL d   1       5.192  -3.683   0.000  0.00  0.00     0.197 A 
ATOM      2  C   UNL d   1       4.415  -3.933   0.000  0.00  0.00     0.227 A 
ATOM      3  N   UNL d   1       5.192  -2.856   0.000  0.00  0.00    -0.192 N 
ATOM      4  N   UNL d   1       5.911  -4.095   0.000  0.00  0.00    -0.206 NA
ATOM      5  N   UNL d   1       3.933  -3.272   0.000  0.00  0.00    -0.115 NA
ATOM      6  N   UNL d   1       4.415  -2.598   0.000  0.00  0.00    -0.058 NA
ATOM      7  C   UNL d   1       6.622  -3.683   0.000  0.00  0.00     0.166 A 
ATOM      8  C   UNL d   1       6.622  -2.856   0.000  0.00  0.00     0.054 A 
ATOM      9  C   UNL d   1       5.911  -2.444   0.000  0.00  0.00     0.089 A 
ATOM     10  C   UNL d   1       7.337  -2.444   0.000  0.00  0.00     0.005 A 
ATOM     11  C   UNL d   1       5.911  -1.613   0.000  0.00  0.00     0.019 A 
ATOM     12  C   UNL d   1       7.337  -1.613   0.000  0.00  0.00     0.000 A 
ATOM     13  C   UNL d   1       6.622  -1.201   0.000  0.00  0.00     0.002 A 
ENDROOT
BRANCH   7  14
ATOM     14  N   UNL d   1       7.337  -4.107   0.000  0.00  0.00    -0.227 NA
BRANCH  14  15
ATOM     15  C   UNL d   1       7.333  -4.938   0.000  0.00  0.00     0.086 A 
ATOM     16  C   UNL d   1       6.614  -5.350   0.000  0.00  0.00     0.038 A 
ATOM     17  C   UNL d   1       6.614  -6.177   0.000  0.00  0.00     0.082 A 
ATOM     18  N   UNL d   1       7.333  -6.589   0.000  0.00  0.00    -0.302 N 
ATOM     19  C   UNL d   1       8.044  -6.177   0.000  0.00  0.00     0.082 A 
ATOM     20  C   UNL d   1       8.044  -5.350   0.000  0.00  0.00     0.038 A 
BRANCH  18  21
ATOM     21  C   UNL d   1       7.337  -7.412   0.000  0.00  0.00     0.080 C 
BRANCH  21  22
ATOM     22  C   UNL d   1       8.056  -7.819   0.000  0.00  0.00     0.018 A 
ATOM     23  C   UNL d   1       8.060  -8.642   0.000  0.00  0.00     0.002 A 
ATOM     24  C   UNL d   1       8.771  -9.054   0.000  0.00  0.00     0.000 A 
ATOM     25  C   UNL d   1       9.495  -8.634   0.000  0.00  0.00     0.000 A 
ATOM     26  C   UNL d   1       9.482  -7.811   0.000  0.00  0.00     0.000 A 
ATOM     27  C   UNL d   1       8.767  -7.399   0.000  0.00  0.00     0.002 A 
ENDBRANCH  21  22
ENDBRANCH  18  21
ENDBRANCH  14  15
ENDBRANCH   7  14
BRANCH   2  28
ATOM     28  S   UNL d   1       4.157  -4.718   0.000  0.00  0.00     0.231 S 
ATOM     29  O   UNL d   1       4.943  -4.976   0.000  0.00  0.00    -0.215 OA
ATOM     30  O   UNL d   1       3.371  -4.469   0.000  0.00  0.00    -0.215 OA
BRANCH  28  31
ATOM     31  C   UNL d   1       3.908  -5.504   0.000  0.00  0.00     0.090 A 
ATOM     32  C   UNL d   1       3.109  -5.678   0.000  0.00  0.00     0.011 A 
ATOM     33  C   UNL d   1       2.856  -6.464   0.000  0.00  0.00     0.001 A 
ATOM     34  C   UNL d   1       3.409  -7.075   0.000  0.00  0.00     0.000 A 
ATOM     35  C   UNL d   1       4.207  -6.896   0.000  0.00  0.00     0.001 A 
ATOM     36  C   UNL d   1       4.456  -6.115   0.000  0.00  0.00     0.011 A 
ENDBRANCH  28  31
ENDBRANCH   2  28
TORSDOF 6
