REMARK  6 active torsions:
REMARK  status: ('A' for Active; 'I' for Inactive)
REMARK    1  A    between atoms: C_9  and  N_1 
REMARK    2  A    between atoms: S_14  and  C_3 
REMARK    3  A    between atoms: N_8  and  C_10 
REMARK    4  A    between atoms: C_18  and  C_9 
REMARK    5  A    between atoms: C_19  and  S_14 
REMARK    6  A    between atoms: C_20  and  C_18 
ROOT
ATOM      1  N   UNL d   1      -2.334   4.542   0.000  0.00  0.00    -0.195 NA
ATOM      2  C   UNL d   1      -3.063   4.128   0.000  0.00  0.00     0.086 C 
ATOM      3  C   UNL d   1      -3.767   3.717   0.000  0.00  0.00     0.170 C 
ENDROOT
BRANCH   3   4
ATOM      4  S   UNL d   1      -3.767   2.891   0.000  0.00  0.00    -0.060 SA
BRANCH   4   5
ATOM      5  C   UNL d   1      -4.484   2.472   0.000  0.00  0.00     0.178 A 
ATOM      6  N   UNL d   1      -4.484   1.647   0.000  0.00  0.00    -0.253 N 
ATOM      7  C   UNL d   1      -5.200   1.232   0.000  0.00  0.00     0.268 A 
ATOM      8  C   UNL d   1      -5.908   1.655   0.000  0.00  0.00     0.076 A 
ATOM      9  O   UNL d   1      -5.200   0.411   0.000  0.00  0.00    -0.267 OA
ATOM     10  C   UNL d   1      -6.612   1.240   0.000  0.00  0.00     0.024 A 
ATOM     11  C   UNL d   1      -5.908   2.472   0.000  0.00  0.00     0.088 A 
ATOM     12  C   UNL d   1      -7.333   1.647   0.000  0.00  0.00     0.065 A 
ATOM     13  C   UNL d   1      -7.321   2.477   0.000  0.00  0.00     0.019 A 
ATOM     14  C   UNL d   1      -6.617   2.887   0.000  0.00  0.00     0.021 A 
ATOM     15  N   UNL d   1      -5.200   2.887   0.000  0.00  0.00    -0.222 NA
BRANCH   6  16
ATOM     16  C   UNL d   1      -3.767   1.240   0.000  0.00  0.00     0.085 C 
BRANCH  16  17
ATOM     17  C   UNL d   1      -3.767   0.415   0.000  0.00  0.00     0.019 C 
BRANCH  17  18
ATOM     18  C   UNL d   1      -3.050   0.000   0.000  0.00  0.00     0.002 A 
ATOM     19  C   UNL d   1      -3.050  -0.821   0.000  0.00  0.00     0.000 A 
ATOM     20  C   UNL d   1      -2.338  -1.236   0.000  0.00  0.00     0.000 A 
ATOM     21  C   UNL d   1      -1.617  -0.821   0.000  0.00  0.00     0.000 A 
ATOM     22  C   UNL d   1      -1.622   0.008   0.000  0.00  0.00     0.000 A 
ATOM     23  C   UNL d   1      -2.334   0.423   0.000  0.00  0.00     0.000 A 
ENDBRANCH  17  18
ENDBRANCH  16  17
ENDBRANCH   6  16
BRANCH  12  24
ATOM     24  N   UNL d   1      -8.045   1.240   0.000  0.00  0.00    -0.300 N 
ATOM     25  C   UNL d   1      -8.762   1.655   0.000  0.00  0.00     0.107 A 
ATOM     26  C   UNL d   1      -9.470   1.240   0.000  0.00  0.00     0.142 A 
ATOM     27  O   UNL d   1      -9.470   0.411   0.000  0.00  0.00    -0.300 OA
ATOM     28  C   UNL d   1      -8.754  -0.004   0.000  0.00  0.00     0.142 A 
ATOM     29  C   UNL d   1      -8.037   0.411   0.000  0.00  0.00     0.107 A 
ENDBRANCH  12  24
ENDBRANCH   4   5
ENDBRANCH   3   4
TORSDOF 6
