REMARK  5 active torsions:
REMARK  status: ('A' for Active; 'I' for Inactive)
REMARK    1  A    between atoms: S_5  and  C_2 
REMARK    2  A    between atoms: C_12  and  S_5 
REMARK    3  A    between atoms: N_11  and  C_8 
REMARK    4  A    between atoms: C_19  and  N_11 
REMARK    5  A    between atoms: C_32  and  C_26 
ROOT
ATOM      1  C   UNL d   1       5.642  -5.004   0.000  0.00  0.00     0.197 A 
ATOM      2  C   UNL d   1       6.254  -5.554   0.000  0.00  0.00     0.227 A 
ATOM      3  N   UNL d   1       4.925  -5.417   0.000  0.00  0.00    -0.192 N 
ATOM      4  N   UNL d   1       5.642  -4.175   0.000  0.00  0.00    -0.206 NA
ATOM      5  N   UNL d   1       5.917  -6.317   0.000  0.00  0.00    -0.115 NA
ATOM      6  N   UNL d   1       5.092  -6.225   0.000  0.00  0.00    -0.058 NA
ATOM      7  C   UNL d   1       4.925  -3.754   0.000  0.00  0.00     0.166 A 
ATOM      8  C   UNL d   1       4.213  -4.175   0.000  0.00  0.00     0.054 A 
ATOM      9  C   UNL d   1       4.204  -5.000   0.000  0.00  0.00     0.089 A 
ATOM     10  C   UNL d   1       3.492  -5.417   0.000  0.00  0.00     0.020 A 
ATOM     11  C   UNL d   1       3.492  -3.763   0.000  0.00  0.00     0.016 A 
ATOM     12  C   UNL d   1       2.779  -4.179   0.000  0.00  0.00     0.058 A 
ATOM     13  C   UNL d   1       2.779  -5.004   0.000  0.00  0.00     0.013 A 
ATOM     14 CL   UNL d   1       2.067  -3.763   0.000  0.00  0.00    -0.082 Cl
ENDROOT
BRANCH   2  15
ATOM     15  S   UNL d   1       7.062  -5.392   0.000  0.00  0.00     0.231 S 
ATOM     16  O   UNL d   1       7.254  -6.192   0.000  0.00  0.00    -0.215 OA
ATOM     17  O   UNL d   1       6.867  -4.592   0.000  0.00  0.00    -0.215 OA
BRANCH  15  18
ATOM     18  C   UNL d   1       7.854  -5.167   0.000  0.00  0.00     0.090 A 
ATOM     19  C   UNL d   1       8.062  -4.379   0.000  0.00  0.00     0.011 A 
ATOM     20  C   UNL d   1       8.850  -4.154   0.000  0.00  0.00     0.001 A 
ATOM     21  C   UNL d   1       9.442  -4.737   0.000  0.00  0.00     0.000 A 
ATOM     22  C   UNL d   1       9.229  -5.537   0.000  0.00  0.00     0.001 A 
ATOM     23  C   UNL d   1       8.442  -5.754   0.000  0.00  0.00     0.011 A 
BRANCH  21  24
ATOM     24  C   UNL d   1      10.229  -4.517   0.000  0.00  0.00     0.000 C 
ATOM     25  C   UNL d   1      10.825  -5.092   0.000  0.00  0.00     0.000 C 
ENDBRANCH  21  24
ENDBRANCH  15  18
ENDBRANCH   2  15
BRANCH   7  26
ATOM     26  N   UNL d   1       4.925  -2.929   0.000  0.00  0.00    -0.227 NA
BRANCH  26  27
ATOM     27  C   UNL d   1       5.642  -2.517   0.000  0.00  0.00     0.083 A 
ATOM     28  C   UNL d   1       6.354  -2.929   0.000  0.00  0.00     0.021 A 
ATOM     29  C   UNL d   1       7.067  -2.525   0.000  0.00  0.00     0.031 A 
ATOM     30  C   UNL d   1       7.067  -1.692   0.000  0.00  0.00     0.140 A 
ATOM     31  C   UNL d   1       6.342  -1.279   0.000  0.00  0.00     0.031 A 
ATOM     32  F   UNL d   1       7.779  -1.288   0.000  0.00  0.00    -0.204 F 
ATOM     33  C   UNL d   1       5.638  -1.700   0.000  0.00  0.00     0.021 A 
ENDBRANCH  26  27
ENDBRANCH   7  26
TORSDOF 5
