REMARK  6 active torsions:
REMARK  status: ('A' for Active; 'I' for Inactive)
REMARK    1  A    between atoms: C_10  and  N_2 
REMARK    2  A    between atoms: C_11  and  N_5 
REMARK    3  A    between atoms: C_21  and  C_10 
REMARK    4  A    between atoms: C_12  and  C_11 
REMARK       I    between atoms: N_16  and  C_12 
REMARK    5  A    between atoms: C_15  and  C_17 
REMARK    6  A    between atoms: C_17  and  N_16 
ROOT
ATOM      1  C   UNL d   1      -2.170   2.557   0.000  0.00  0.00     0.102 A 
ATOM      2  N   UNL d   1      -0.750   2.570   0.000  0.00  0.00    -0.225 N 
ATOM      3  C   UNL d   1      -0.737   1.745   0.000  0.00  0.00     0.342 A 
ATOM      4  C   UNL d   1      -2.157   1.724   0.000  0.00  0.00     0.080 A 
ATOM      5  N   UNL d   1      -1.445   1.324   0.000  0.00  0.00    -0.253 N 
ATOM      6  C   UNL d   1      -1.470   2.982   0.000  0.00  0.00     0.276 A 
ATOM      7  S   UNL d   1      -2.969   2.794   0.000  0.00  0.00    -0.081 SA
ATOM      8  C   UNL d   1      -2.944   1.458   0.000  0.00  0.00     0.023 A 
ATOM      9  C   UNL d   1      -3.444   2.120   0.000  0.00  0.00     0.031 A 
ATOM     10  O   UNL d   1      -0.021   1.345   0.000  0.00  0.00    -0.245 OA
ATOM     11  O   UNL d   1      -1.474   3.798   0.000  0.00  0.00    -0.266 OA
ATOM     12  C   UNL d   1      -3.261   0.700   0.000  0.00  0.00     0.002 A 
ATOM     13  C   UNL d   1      -4.256   2.020   0.000  0.00  0.00     0.006 A 
ATOM     14  C   UNL d   1      -4.081   0.596   0.000  0.00  0.00     0.000 A 
ATOM     15  C   UNL d   1      -4.581   1.258   0.000  0.00  0.00     0.001 A 
ENDROOT
BRANCH   5  16
ATOM     16  C   UNL d   1      -1.433   0.500   0.000  0.00  0.00     0.147 C 
BRANCH  16  17
ATOM     17  C   UNL d   1      -0.708   0.096   0.000  0.00  0.00     0.297 C 
ATOM     18  N   UNL d   1      -0.008   0.520   0.000  0.00  0.00    -0.205 NA
ATOM     19  O   UNL d   1      -0.696  -0.725   0.000  0.00  0.00    -0.264 OA
BRANCH  18  20
ATOM     20  C   UNL d   1       0.716   0.112   0.000  0.00  0.00     0.103 C 
BRANCH  20  21
ATOM     21  C   UNL d   1       1.429   0.545   0.000  0.00  0.00     0.030 A 
ATOM     22  C   UNL d   1       1.416   1.370   0.000  0.00  0.00     0.059 A 
ATOM     23 CL   UNL d   1       0.691   1.774   0.000  0.00  0.00    -0.082 Cl
ATOM     24  C   UNL d   1       2.128   1.787   0.000  0.00  0.00     0.011 A 
ATOM     25  C   UNL d   1       2.849   1.383   0.000  0.00  0.00     0.001 A 
ATOM     26  C   UNL d   1       2.853   0.558   0.000  0.00  0.00     0.000 A 
ATOM     27  C   UNL d   1       2.149   0.133   0.000  0.00  0.00     0.002 A 
ENDBRANCH  20  21
ENDBRANCH  18  20
ENDBRANCH  16  17
ENDBRANCH   5  16
BRANCH   2  28
ATOM     28  C   UNL d   1      -0.037   2.994   0.000  0.00  0.00     0.087 C 
BRANCH  28  29
ATOM     29  C   UNL d   1      -0.050   3.819   0.000  0.00  0.00     0.018 A 
ATOM     30  C   UNL d   1       0.666   4.227   0.000  0.00  0.00     0.002 A 
ATOM     31  C   UNL d   1       0.654   5.060   0.000  0.00  0.00     0.000 A 
ATOM     32  C   UNL d   1      -0.071   5.464   0.000  0.00  0.00     0.000 A 
ATOM     33  C   UNL d   1      -0.770   5.039   0.000  0.00  0.00     0.000 A 
ATOM     34  C   UNL d   1      -0.762   4.215   0.000  0.00  0.00     0.002 A 
ENDBRANCH  28  29
ENDBRANCH   2  28
TORSDOF 6
