REMARK  10 active torsions:
REMARK  status: ('A' for Active; 'I' for Inactive)
REMARK    1  A    between atoms: C_16  and  N_1 
REMARK    2  A    between atoms: S_10  and  C_2 
REMARK    3  A    between atoms: N_8  and  C_9 
REMARK    4  A    between atoms: C_18  and  S_10 
REMARK    5  A    between atoms: C_12  and  C_18 
REMARK       I    between atoms: N_19  and  C_12 
REMARK    6  A    between atoms: C_27  and  C_16 
REMARK    7  A    between atoms: C_25  and  N_19 
REMARK    8  A    between atoms: O_22  and  C_26 
REMARK    9  A    between atoms: C_26  and  C_25 
REMARK   10  A    between atoms: C_29  and  C_27 
ROOT
ATOM      1  N   UNL d   1       7.174  -6.750   0.000  0.00  0.00    -0.253 N 
ATOM      2  C   UNL d   1       7.174  -5.918   0.000  0.00  0.00     0.182 A 
ATOM      3  C   UNL d   1       6.467  -7.166   0.000  0.00  0.00     0.268 A 
ATOM      4  C   UNL d   1       5.756  -6.742   0.000  0.00  0.00     0.076 A 
ATOM      5  N   UNL d   1       6.467  -5.507   0.000  0.00  0.00    -0.222 NA
ATOM      6  C   UNL d   1       5.756  -5.918   0.000  0.00  0.00     0.088 A 
ATOM      7  C   UNL d   1       5.057  -7.162   0.000  0.00  0.00     0.024 A 
ATOM      8  C   UNL d   1       4.330  -6.750   0.000  0.00  0.00     0.065 A 
ATOM      9  O   UNL d   1       6.467  -7.990   0.000  0.00  0.00    -0.267 OA
ATOM     10  C   UNL d   1       5.045  -5.507   0.000  0.00  0.00     0.021 A 
ATOM     11  C   UNL d   1       4.342  -5.918   0.000  0.00  0.00     0.019 A 
ENDROOT
BRANCH   2  12
ATOM     12  S   UNL d   1       7.902  -5.507   0.000  0.00  0.00    -0.044 SA
BRANCH  12  13
ATOM     13  C   UNL d   1       7.902  -4.683   0.000  0.00  0.00     0.101 C 
BRANCH  13  14
ATOM     14  C   UNL d   1       8.613  -4.259   0.000  0.00  0.00     0.286 C 
ATOM     15  O   UNL d   1       8.613  -3.444   0.000  0.00  0.00    -0.265 OA
ATOM     16  N   UNL d   1       9.337  -4.658   0.000  0.00  0.00    -0.204 NA
BRANCH  16  17
ATOM     17  C   UNL d   1      10.061  -4.234   0.000  0.00  0.00     0.129 C 
BRANCH  17  18
ATOM     18  C   UNL d   1      10.759  -4.646   0.000  0.00  0.00     0.137 C 
BRANCH  18  19
ATOM     19  O   UNL d   1      11.471  -4.234   0.000  0.00  0.00    -0.325 OA
ATOM     20  C   UNL d   1      12.182  -4.646   0.000  0.00  0.00     0.182 C 
ENDBRANCH  18  19
ENDBRANCH  17  18
ENDBRANCH  16  17
ENDBRANCH  13  14
ENDBRANCH  12  13
ENDBRANCH   2  12
BRANCH   1  21
ATOM     21  C   UNL d   1       7.902  -7.162   0.000  0.00  0.00     0.085 C 
BRANCH  21  22
ATOM     22  C   UNL d   1       7.902  -7.977   0.000  0.00  0.00     0.019 C 
BRANCH  22  23
ATOM     23  C   UNL d   1       8.613  -8.389   0.000  0.00  0.00     0.002 C 
ATOM     24  C   UNL d   1       8.613  -9.221   0.000  0.00  0.00     0.000 C 
ENDBRANCH  22  23
ENDBRANCH  21  22
ENDBRANCH   1  21
BRANCH   8  25
ATOM     25  N   UNL d   1       3.618  -7.162   0.000  0.00  0.00    -0.300 N 
ATOM     26  C   UNL d   1       3.631  -7.990   0.000  0.00  0.00     0.107 A 
ATOM     27  C   UNL d   1       2.911  -8.401   0.000  0.00  0.00     0.142 A 
ATOM     28  O   UNL d   1       2.188  -7.990   0.000  0.00  0.00    -0.300 OA
ATOM     29  C   UNL d   1       2.188  -7.162   0.000  0.00  0.00     0.142 A 
ATOM     30  C   UNL d   1       2.899  -6.738   0.000  0.00  0.00     0.107 A 
ENDBRANCH   8  25
TORSDOF 10
