REMARK  9 active torsions:
REMARK  status: ('A' for Active; 'I' for Inactive)
REMARK    1  A    between atoms: C_19  and  N_1 
REMARK    2  A    between atoms: S_10  and  C_2 
REMARK    3  A    between atoms: N_8  and  C_9 
REMARK    4  A    between atoms: C_20  and  S_10 
REMARK    5  A    between atoms: C_11  and  C_20 
REMARK       I    between atoms: N_13  and  C_11 
REMARK    6  A    between atoms: C_15  and  N_13 
REMARK    7  A    between atoms: C_32  and  C_19 
REMARK    8  A    between atoms: O_25  and  C_22 
REMARK    9  A    between atoms: C_33  and  C_32 
ROOT
ATOM      1  N   UNL d   1      -4.486   1.639   0.000  0.00  0.00    -0.253 N 
ATOM      2  C   UNL d   1      -4.486   2.466   0.000  0.00  0.00     0.182 A 
ATOM      3  C   UNL d   1      -5.188   1.225   0.000  0.00  0.00     0.268 A 
ATOM      4  C   UNL d   1      -5.903   1.643   0.000  0.00  0.00     0.076 A 
ATOM      5  N   UNL d   1      -5.188   2.880   0.000  0.00  0.00    -0.222 NA
ATOM      6  C   UNL d   1      -5.903   2.466   0.000  0.00  0.00     0.088 A 
ATOM      7  C   UNL d   1      -6.601   1.229   0.000  0.00  0.00     0.024 A 
ATOM      8  C   UNL d   1      -7.328   1.639   0.000  0.00  0.00     0.065 A 
ATOM      9  O   UNL d   1      -5.188   0.397   0.000  0.00  0.00    -0.267 OA
ATOM     10  C   UNL d   1      -6.609   2.880   0.000  0.00  0.00     0.021 A 
ATOM     11  C   UNL d   1      -7.316   2.466   0.000  0.00  0.00     0.019 A 
ENDROOT
BRANCH   2  12
ATOM     12  S   UNL d   1      -3.758   2.885   0.000  0.00  0.00    -0.044 SA
BRANCH  12  13
ATOM     13  C   UNL d   1      -3.758   3.708   0.000  0.00  0.00     0.101 C 
BRANCH  13  14
ATOM     14  C   UNL d   1      -3.048   4.118   0.000  0.00  0.00     0.286 C 
ATOM     15  N   UNL d   1      -3.048   4.933   0.000  0.00  0.00    -0.207 NA
ATOM     16  O   UNL d   1      -2.333   3.708   0.000  0.00  0.00    -0.265 OA
BRANCH  15  17
ATOM     17  C   UNL d   1      -2.333   5.355   0.000  0.00  0.00     0.087 A 
ATOM     18  C   UNL d   1      -1.626   4.933   0.000  0.00  0.00     0.043 A 
ATOM     19  C   UNL d   1      -0.911   5.355   0.000  0.00  0.00     0.096 A 
ATOM     20  C   UNL d   1      -0.911   6.175   0.000  0.00  0.00     0.024 A 
ATOM     21  C   UNL d   1      -1.626   6.588   0.000  0.00  0.00     0.004 A 
ATOM     22  C   UNL d   1      -2.333   6.175   0.000  0.00  0.00     0.019 A 
BRANCH  19  23
ATOM     23  O   UNL d   1      -0.188   4.933   0.000  0.00  0.00    -0.328 OA
ATOM     24  C   UNL d   1      -0.188   4.118   0.000  0.00  0.00     0.181 C 
ENDBRANCH  19  23
ENDBRANCH  15  17
ENDBRANCH  13  14
ENDBRANCH  12  13
ENDBRANCH   2  12
BRANCH   1  25
ATOM     25  C   UNL d   1      -3.758   1.229   0.000  0.00  0.00     0.085 C 
BRANCH  25  26
ATOM     26  C   UNL d   1      -3.758   0.410   0.000  0.00  0.00     0.019 C 
BRANCH  26  27
ATOM     27  C   UNL d   1      -3.043  -0.004   0.000  0.00  0.00     0.002 C 
ATOM     28  C   UNL d   1      -3.048  -0.832   0.000  0.00  0.00     0.000 C 
ENDBRANCH  26  27
ENDBRANCH  25  26
ENDBRANCH   1  25
BRANCH   8  29
ATOM     29  N   UNL d   1      -8.043   1.229   0.000  0.00  0.00    -0.300 N 
ATOM     30  C   UNL d   1      -8.758   1.651   0.000  0.00  0.00     0.107 A 
ATOM     31  C   UNL d   1      -9.469   1.229   0.000  0.00  0.00     0.142 A 
ATOM     32  O   UNL d   1      -9.469   0.397   0.000  0.00  0.00    -0.300 OA
ATOM     33  C   UNL d   1      -8.746  -0.013   0.000  0.00  0.00     0.142 A 
ATOM     34  C   UNL d   1      -8.031   0.401   0.000  0.00  0.00     0.107 A 
ENDBRANCH   8  29
TORSDOF 9
