REMARK  9 active torsions:
REMARK  status: ('A' for Active; 'I' for Inactive)
REMARK    1  A    between atoms: C_10  and  N_1 
REMARK    2  A    between atoms: C_7  and  N_3 
REMARK    3  A    between atoms: C_8  and  C_7 
REMARK       I    between atoms: N_12  and  C_8 
REMARK    4  A    between atoms: C_13  and  C_10 
REMARK    5  A    between atoms: C_21  and  N_12 
REMARK    6  A    between atoms: C_28  and  N_12 
REMARK       I    between atoms: N_19  and  C_13 
REMARK    7  A    between atoms: C_17  and  C_26 
REMARK    8  A    between atoms: C_26  and  N_19 
REMARK    9  A    between atoms: C_27  and  C_21 
ROOT
ATOM      1  N   UNL d   1       4.033  -3.508   0.000  0.00  0.00    -0.220 N 
ATOM      2  C   UNL d   1       4.008  -4.332   0.000  0.00  0.00     0.342 A 
ATOM      3  N   UNL d   1       4.719  -4.782   0.000  0.00  0.00    -0.254 N 
ATOM      4  C   UNL d   1       5.460  -3.546   0.000  0.00  0.00     0.102 A 
ATOM      5  C   UNL d   1       4.757  -3.125   0.000  0.00  0.00     0.276 A 
ATOM      6  C   UNL d   1       5.435  -4.386   0.000  0.00  0.00     0.080 A 
ATOM      7  S   UNL d   1       6.267  -3.308   0.000  0.00  0.00    -0.080 SA
ATOM      8  C   UNL d   1       6.234  -4.669   0.000  0.00  0.00     0.025 A 
ATOM      9  O   UNL d   1       3.296  -4.723   0.000  0.00  0.00    -0.245 OA
ATOM     10  C   UNL d   1       6.742  -3.995   0.000  0.00  0.00     0.037 A 
ATOM     11  O   UNL d   1       4.782  -2.310   0.000  0.00  0.00    -0.266 OA
ENDROOT
BRANCH   3  12
ATOM     12  C   UNL d   1       4.707  -5.597   0.000  0.00  0.00     0.146 C 
BRANCH  12  13
ATOM     13  C   UNL d   1       3.987  -6.005   0.000  0.00  0.00     0.283 C 
ATOM     14  N   UNL d   1       3.983  -6.829   0.000  0.00  0.00    -0.271 N 
ATOM     15  O   UNL d   1       3.284  -5.581   0.000  0.00  0.00    -0.265 OA
BRANCH  14  16
ATOM     16  C   UNL d   1       3.259  -7.229   0.000  0.00  0.00     0.083 C 
BRANCH  16  17
ATOM     17  C   UNL d   1       3.250  -8.053   0.000  0.00  0.00     0.018 A 
ATOM     18  C   UNL d   1       2.534  -8.456   0.000  0.00  0.00     0.002 A 
ATOM     19  C   UNL d   1       2.522  -9.289   0.000  0.00  0.00     0.000 A 
ATOM     20  C   UNL d   1       3.225  -9.705   0.000  0.00  0.00     0.000 A 
ATOM     21  C   UNL d   1       3.949  -9.305   0.000  0.00  0.00     0.000 A 
ATOM     22  C   UNL d   1       3.962  -8.477   0.000  0.00  0.00     0.002 A 
ENDBRANCH  16  17
ENDBRANCH  14  16
BRANCH  14  23
ATOM     23  C   UNL d   1       4.686  -7.245   0.000  0.00  0.00     0.083 C 
ATOM     24  C   UNL d   1       4.682  -8.069   0.000  0.00  0.00     0.021 C 
ENDBRANCH  14  23
ENDBRANCH  12  13
ENDBRANCH   3  12
BRANCH   1  25
ATOM     25  C   UNL d   1       3.346  -3.088   0.000  0.00  0.00     0.150 C 
BRANCH  25  26
ATOM     26  C   UNL d   1       2.622  -3.483   0.000  0.00  0.00     0.297 C 
ATOM     27  N   UNL d   1       1.914  -3.059   0.000  0.00  0.00    -0.203 NA
ATOM     28  O   UNL d   1       2.601  -4.307   0.000  0.00  0.00    -0.264 OA
BRANCH  27  29
ATOM     29  C   UNL d   1       1.190  -3.450   0.000  0.00  0.00     0.127 C 
BRANCH  29  30
ATOM     30  C   UNL d   1       0.487  -3.026   0.000  0.00  0.00     0.119 A 
ATOM     31  O   UNL d   1      -0.275  -3.350   0.000  0.00  0.00    -0.304 OA
ATOM     32  C   UNL d   1      -0.811  -2.726   0.000  0.00  0.00     0.123 A 
ATOM     33  C   UNL d   1      -0.383  -2.014   0.000  0.00  0.00     0.029 A 
ATOM     34  C   UNL d   1       0.416  -2.214   0.000  0.00  0.00     0.028 A 
ENDBRANCH  29  30
ENDBRANCH  27  29
ENDBRANCH  25  26
ENDBRANCH   1  25
TORSDOF 9
