REMARK  7 active torsions:
REMARK  status: ('A' for Active; 'I' for Inactive)
REMARK    1  A    between atoms: C_9  and  N_1 
REMARK    2  A    between atoms: C_12  and  N_3 
REMARK    3  A    between atoms: N_7  and  C_11 
REMARK    4  A    between atoms: C_13  and  C_9 
REMARK    5  A    between atoms: C_21  and  C_12 
REMARK       I    between atoms: N_20  and  C_13 
REMARK    6  A    between atoms: C_23  and  N_20 
REMARK    7  A    between atoms: C_24  and  C_23 
ROOT
ATOM      1  N   UNL d   1       4.929  -3.429   0.000  0.00  0.00    -0.220 N 
ATOM      2  C   UNL d   1       4.929  -4.254   0.000  0.00  0.00     0.342 A 
ATOM      3  N   UNL d   1       4.213  -4.667   0.000  0.00  0.00    -0.258 N 
ATOM      4  C   UNL d   1       3.500  -3.429   0.000  0.00  0.00     0.102 A 
ATOM      5  C   UNL d   1       4.213  -3.017   0.000  0.00  0.00     0.276 A 
ATOM      6  C   UNL d   1       3.500  -4.254   0.000  0.00  0.00     0.079 A 
ATOM      7  S   UNL d   1       2.717  -3.175   0.000  0.00  0.00    -0.080 SA
ATOM      8  C   UNL d   1       2.717  -4.504   0.000  0.00  0.00     0.025 A 
ATOM      9  O   UNL d   1       5.650  -4.675   0.000  0.00  0.00    -0.245 OA
ATOM     10  C   UNL d   1       2.229  -3.842   0.000  0.00  0.00     0.037 A 
ATOM     11  O   UNL d   1       4.213  -2.192   0.000  0.00  0.00    -0.266 OA
ENDROOT
BRANCH   1  12
ATOM     12  C   UNL d   1       5.650  -3.017   0.000  0.00  0.00     0.150 C 
BRANCH  12  13
ATOM     13  C   UNL d   1       5.654  -2.192   0.000  0.00  0.00     0.297 C 
ATOM     14  N   UNL d   1       6.375  -1.779   0.000  0.00  0.00    -0.205 NA
ATOM     15  O   UNL d   1       4.942  -1.767   0.000  0.00  0.00    -0.264 OA
BRANCH  14  16
ATOM     16  C   UNL d   1       6.942  -2.104   0.000  0.00  0.00     0.102 C 
BRANCH  16  17
ATOM     17  C   UNL d   1       7.654  -1.667   0.000  0.00  0.00     0.019 A 
ATOM     18  C   UNL d   1       8.375  -2.079   0.000  0.00  0.00     0.002 A 
ATOM     19  C   UNL d   1       9.092  -1.654   0.000  0.00  0.00     0.000 A 
ATOM     20  C   UNL d   1       9.075  -0.838   0.000  0.00  0.00     0.000 A 
ATOM     21  C   UNL d   1       8.354  -0.425   0.000  0.00  0.00     0.000 A 
ATOM     22  C   UNL d   1       9.800  -0.417   0.000  0.00  0.00     0.000 C 
ATOM     23  C   UNL d   1       7.642  -0.842   0.000  0.00  0.00     0.002 A 
ENDBRANCH  16  17
ENDBRANCH  14  16
ENDBRANCH  12  13
ENDBRANCH   1  12
BRANCH   3  24
ATOM     24  C   UNL d   1       4.213  -5.492   0.000  0.00  0.00     0.085 C 
BRANCH  24  25
ATOM     25  C   UNL d   1       4.925  -5.904   0.000  0.00  0.00     0.019 A 
ATOM     26  C   UNL d   1       4.925  -6.729   0.000  0.00  0.00     0.025 A 
ATOM     27  C   UNL d   1       5.638  -7.142   0.000  0.00  0.00     0.127 A 
ATOM     28  C   UNL d   1       6.354  -6.729   0.000  0.00  0.00     0.024 A 
ATOM     29  C   UNL d   1       6.354  -5.904   0.000  0.00  0.00     0.002 A 
ATOM     30  C   UNL d   1       5.642  -5.492   0.000  0.00  0.00     0.002 A 
BRANCH  27  31
ATOM     31  N   UNL d   1       5.629  -7.967   0.000  0.00  0.00    -0.114 N 
ATOM     32  O   UNL d   1       4.912  -8.379   0.000  0.00  0.00    -0.532 OA
ATOM     33  O   UNL d   1       6.342  -8.387   0.000  0.00  0.00    -0.532 OA
ENDBRANCH  27  31
ENDBRANCH  24  25
ENDBRANCH   3  24
TORSDOF 7
