REMARK  9 active torsions:
REMARK  status: ('A' for Active; 'I' for Inactive)
REMARK    1  A    between atoms: C_22  and  N_1 
REMARK    2  A    between atoms: S_10  and  C_2 
REMARK    3  A    between atoms: N_8  and  C_9 
REMARK    4  A    between atoms: C_24  and  S_10 
REMARK    5  A    between atoms: C_11  and  C_24 
REMARK       I    between atoms: N_15  and  C_11 
REMARK    6  A    between atoms: C_13  and  C_25 
REMARK    7  A    between atoms: C_25  and  N_15 
REMARK    8  A    between atoms: C_30  and  C_22 
REMARK    9  A    between atoms: C_31  and  C_30 
ROOT
ATOM      1  N   UNL d   1       7.263  -3.767   0.000  0.00  0.00    -0.253 N 
ATOM      2  C   UNL d   1       7.263  -2.942   0.000  0.00  0.00     0.182 A 
ATOM      3  C   UNL d   1       6.542  -4.179   0.000  0.00  0.00     0.268 A 
ATOM      4  C   UNL d   1       5.829  -3.767   0.000  0.00  0.00     0.076 A 
ATOM      5  N   UNL d   1       6.542  -2.529   0.000  0.00  0.00    -0.222 NA
ATOM      6  C   UNL d   1       5.829  -2.942   0.000  0.00  0.00     0.088 A 
ATOM      7  C   UNL d   1       5.117  -4.179   0.000  0.00  0.00     0.024 A 
ATOM      8  C   UNL d   1       4.404  -3.767   0.000  0.00  0.00     0.065 A 
ATOM      9  O   UNL d   1       6.542  -5.004   0.000  0.00  0.00    -0.267 OA
ATOM     10  C   UNL d   1       5.117  -2.529   0.000  0.00  0.00     0.021 A 
ATOM     11  C   UNL d   1       4.404  -2.942   0.000  0.00  0.00     0.019 A 
ENDROOT
BRANCH   2  12
ATOM     12  S   UNL d   1       7.979  -2.525   0.000  0.00  0.00    -0.044 SA
BRANCH  12  13
ATOM     13  C   UNL d   1       8.704  -2.938   0.000  0.00  0.00     0.101 C 
BRANCH  13  14
ATOM     14  C   UNL d   1       9.417  -2.517   0.000  0.00  0.00     0.286 C 
ATOM     15  N   UNL d   1      10.137  -2.929   0.000  0.00  0.00    -0.204 NA
ATOM     16  O   UNL d   1       9.404  -1.692   0.000  0.00  0.00    -0.265 OA
BRANCH  15  17
ATOM     17  C   UNL d   1      10.854  -2.504   0.000  0.00  0.00     0.127 C 
BRANCH  17  18
ATOM     18  C   UNL d   1      11.575  -2.917   0.000  0.00  0.00     0.119 A 
ATOM     19  O   UNL d   1      12.354  -2.663   0.000  0.00  0.00    -0.304 OA
ATOM     20  C   UNL d   1      12.842  -3.329   0.000  0.00  0.00     0.123 A 
ATOM     21  C   UNL d   1      12.367  -4.000   0.000  0.00  0.00     0.029 A 
ATOM     22  C   UNL d   1      11.579  -3.742   0.000  0.00  0.00     0.028 A 
ENDBRANCH  17  18
ENDBRANCH  15  17
ENDBRANCH  13  14
ENDBRANCH  12  13
ENDBRANCH   2  12
BRANCH   1  23
ATOM     23  C   UNL d   1       7.979  -4.179   0.000  0.00  0.00     0.085 C 
BRANCH  23  24
ATOM     24  C   UNL d   1       7.979  -5.004   0.000  0.00  0.00     0.019 C 
BRANCH  24  25
ATOM     25  C   UNL d   1       8.700  -5.417   0.000  0.00  0.00     0.002 C 
ATOM     26  C   UNL d   1       8.700  -6.254   0.000  0.00  0.00     0.000 C 
ENDBRANCH  24  25
ENDBRANCH  23  24
ENDBRANCH   1  23
BRANCH   8  27
ATOM     27  N   UNL d   1       3.692  -4.179   0.000  0.00  0.00    -0.300 N 
ATOM     28  C   UNL d   1       3.692  -5.013   0.000  0.00  0.00     0.107 A 
ATOM     29  C   UNL d   1       2.979  -5.425   0.000  0.00  0.00     0.142 A 
ATOM     30  O   UNL d   1       2.254  -5.013   0.000  0.00  0.00    -0.300 OA
ATOM     31  C   UNL d   1       2.254  -4.179   0.000  0.00  0.00     0.142 A 
ATOM     32  C   UNL d   1       2.975  -3.767   0.000  0.00  0.00     0.107 A 
ENDBRANCH   8  27
TORSDOF 9
