REMARK  8 active torsions:
REMARK  status: ('A' for Active; 'I' for Inactive)
REMARK    1  A    between atoms: C_22  and  N_1 
REMARK       I    between atoms: N_8  and  C_12 
REMARK    2  A    between atoms: C_12  and  C_27 
REMARK    3  A    between atoms: C_23  and  N_13 
REMARK    4  A    between atoms: C_30  and  C_22 
REMARK    5  A    between atoms: C_26  and  C_23 
REMARK    6  A    between atoms: C_27  and  C_31 
REMARK    7  A    between atoms: C_32  and  C_30 
REMARK    8  A    between atoms: C_31  and  C_32 
ROOT
ATOM      1  C   UNL d   1       5.817 -12.012   0.000  0.00  0.00     0.002 C 
ENDROOT
BRANCH   1   2
ATOM      2  C   UNL d   1       5.100 -12.429   0.000  0.00  0.00     0.005 C 
BRANCH   2   3
ATOM      3  C   UNL d   1       4.379 -12.017   0.000  0.00  0.00     0.061 C 
BRANCH   3   4
ATOM      4  C   UNL d   1       3.663 -12.442   0.000  0.00  0.00     0.265 C 
ATOM      5  N   UNL d   1       3.667 -13.275   0.000  0.00  0.00    -0.269 N 
ATOM      6  C   UNL d   1       2.954 -13.688   0.000  0.00  0.00     0.102 A 
ATOM      7  C   UNL d   1       4.379 -13.688   0.000  0.00  0.00     0.102 A 
ATOM      8  C   UNL d   1       2.954 -14.517   0.000  0.00  0.00     0.100 A 
ATOM      9  N   UNL d   1       3.667 -14.929   0.000  0.00  0.00    -0.300 N 
ATOM     10  C   UNL d   1       4.379 -14.517   0.000  0.00  0.00     0.100 A 
ATOM     11  O   UNL d   1       2.942 -12.037   0.000  0.00  0.00    -0.267 OA
BRANCH   9  12
ATOM     12  C   UNL d   1       3.667 -15.754   0.000  0.00  0.00     0.080 C 
BRANCH  12  13
ATOM     13  C   UNL d   1       4.379 -16.167   0.000  0.00  0.00     0.018 A 
ATOM     14  C   UNL d   1       5.092 -15.754   0.000  0.00  0.00     0.002 A 
ATOM     15  C   UNL d   1       5.812 -16.167   0.000  0.00  0.00     0.000 A 
ATOM     16  C   UNL d   1       5.812 -16.992   0.000  0.00  0.00     0.000 A 
ATOM     17  C   UNL d   1       5.092 -17.404   0.000  0.00  0.00     0.000 A 
ATOM     18  C   UNL d   1       4.379 -16.992   0.000  0.00  0.00     0.002 A 
ENDBRANCH  12  13
ENDBRANCH   9  12
ENDBRANCH   3   4
ENDBRANCH   2   3
ENDBRANCH   1   2
BRANCH   1  19
ATOM     19  C   UNL d   1       6.537 -12.417   0.000  0.00  0.00     0.019 C 
BRANCH  19  20
ATOM     20  C   UNL d   1       7.250 -12.004   0.000  0.00  0.00     0.085 C 
BRANCH  20  21
ATOM     21  N   UNL d   1       7.967 -12.417   0.000  0.00  0.00    -0.249 N 
ATOM     22  C   UNL d   1       8.688 -12.004   0.000  0.00  0.00     0.268 A 
ATOM     23  C   UNL d   1       9.400 -12.417   0.000  0.00  0.00     0.076 A 
ATOM     24  O   UNL d   1       8.688 -11.179   0.000  0.00  0.00    -0.267 OA
ATOM     25  C   UNL d   1      10.113 -12.004   0.000  0.00  0.00     0.033 A 
ATOM     26  C   UNL d   1       9.400 -13.242   0.000  0.00  0.00     0.090 A 
ATOM     27  C   UNL d   1      10.829 -12.417   0.000  0.00  0.00     0.119 A 
ATOM     28  O   UNL d   1      11.613 -12.162   0.000  0.00  0.00    -0.300 OA
ATOM     29  C   UNL d   1      10.829 -13.242   0.000  0.00  0.00     0.121 A 
ATOM     30  C   UNL d   1      12.092 -12.829   0.000  0.00  0.00     0.304 A 
ATOM     31  O   UNL d   1      11.613 -13.492   0.000  0.00  0.00    -0.299 OA
ATOM     32  C   UNL d   1      10.113 -13.654   0.000  0.00  0.00     0.046 A 
ATOM     33  N   UNL d   1       8.688 -13.654   0.000  0.00  0.00    -0.218 NA
ATOM     34  C   UNL d   1       7.967 -13.242   0.000  0.00  0.00     0.208 A 
ATOM     35  S   UNL d   1       7.250 -13.662   0.000  0.00  0.00    -0.038 SA
ENDBRANCH  20  21
ENDBRANCH  19  20
ENDBRANCH   1  19
TORSDOF 8
