REMARK  4 active torsions:
REMARK  status: ('A' for Active; 'I' for Inactive)
REMARK    1  A    between atoms: C_8  and  N_1 
REMARK    2  A    between atoms: C_11  and  C_13 
REMARK       I    between atoms: N_14  and  C_11 
REMARK    3  A    between atoms: C_18  and  N_14 
REMARK    4  A    between atoms: C_20  and  C_18 
ROOT
ATOM      1  C   UNL d   1       5.833  -4.707   0.000  0.00  0.00     0.066 A 
ATOM      2  C   UNL d   1       6.479  -4.194   0.000  0.00  0.00     0.022 A 
ATOM      3  C   UNL d   1       7.247  -4.507   0.000  0.00  0.00     0.059 A 
ATOM      4  C   UNL d   1       5.946  -5.529   0.000  0.00  0.00     0.017 A 
ATOM      5  C   UNL d   1       7.359  -5.329   0.000  0.00  0.00     0.005 A 
ATOM      6  C   UNL d   1       6.709  -5.833   0.000  0.00  0.00     0.002 A 
ENDROOT
BRANCH   1   7
ATOM      7  N   UNL d   1       5.070  -4.403   0.000  0.00  0.00    -0.261 N 
ATOM      8  C   UNL d   1       4.495  -4.991   0.000  0.00  0.00     0.174 A 
ATOM      9  O   UNL d   1       3.665  -4.995   0.000  0.00  0.00    -0.316 OA
ATOM     10  C   UNL d   1       4.390  -3.744   0.000  0.00  0.00     0.079 A 
ATOM     11  C   UNL d   1       4.653  -5.796   0.000  0.00  0.00     0.055 C 
ATOM     12  C   UNL d   1       3.077  -4.420   0.000  0.00  0.00     0.094 A 
ATOM     13  C   UNL d   1       2.356  -4.832   0.000  0.00  0.00     0.024 A 
ATOM     14  C   UNL d   1       3.069  -3.594   0.000  0.00  0.00     0.022 A 
ATOM     15  C   UNL d   1       1.643  -4.420   0.000  0.00  0.00     0.002 A 
ATOM     16  C   UNL d   1       1.643  -3.594   0.000  0.00  0.00    -0.000 A 
ATOM     17  C   UNL d   1       2.356  -3.181   0.000  0.00  0.00    -0.001 A 
ATOM     18  C   UNL d   1       3.644  -3.006   0.000  0.00  0.00     0.137 A 
ATOM     19  N   UNL d   1       4.478  -2.994   0.000  0.00  0.00    -0.216 NA
ATOM     20  C   UNL d   1       5.066  -3.569   0.000  0.00  0.00     0.348 A 
ATOM     21  O   UNL d   1       5.821  -3.252   0.000  0.00  0.00    -0.245 OA
ENDBRANCH   1   7
BRANCH   3  22
ATOM     22  C   UNL d   1       7.893  -3.994   0.000  0.00  0.00     0.279 C 
ATOM     23  N   UNL d   1       7.772  -3.181   0.000  0.00  0.00    -0.206 NA
ATOM     24  O   UNL d   1       8.660  -4.303   0.000  0.00  0.00    -0.265 OA
BRANCH  23  25
ATOM     25  C   UNL d   1       8.422  -2.668   0.000  0.00  0.00     0.102 C 
BRANCH  25  26
ATOM     26  C   UNL d   1       9.185  -2.977   0.000  0.00  0.00     0.019 A 
ATOM     27  C   UNL d   1       9.306  -3.794   0.000  0.00  0.00     0.002 A 
ATOM     28  C   UNL d   1      10.073  -4.094   0.000  0.00  0.00     0.000 A 
ATOM     29  C   UNL d   1      10.724  -3.590   0.000  0.00  0.00     0.000 A 
ATOM     30  C   UNL d   1      10.599  -2.769   0.000  0.00  0.00     0.000 A 
ATOM     31  C   UNL d   1       9.836  -2.464   0.000  0.00  0.00     0.002 A 
ENDBRANCH  25  26
ENDBRANCH  23  25
ENDBRANCH   3  22
TORSDOF 4
