REMARK  10 active torsions:
REMARK  status: ('A' for Active; 'I' for Inactive)
REMARK    1  A    between atoms: C_2  and  C_1 
REMARK       I    between atoms: N_3  and  C_1 
REMARK    2  A    between atoms: C_5  and  C_2 
REMARK    3  A    between atoms: C_6  and  N_3 
REMARK    4  A    between atoms: C_4  and  C_5 
REMARK    5  A    between atoms: O_11  and  C_4 
REMARK    6  A    between atoms: N_10  and  C_5 
REMARK    7  A    between atoms: O_13  and  C_9 
REMARK    8  A    between atoms: C_14  and  N_10 
REMARK    9  A    between atoms: N_12  and  C_16 
REMARK   10  A    between atoms: C_16  and  C_14 
ROOT
ATOM      1  C   UNK d   1       3.236  -1.889   0.000  0.00  0.00     0.084 C 
ENDROOT
BRANCH   1   2
ATOM      2  C   UNK d   1       2.525  -1.485   0.000  0.00  0.00     0.259 C 
ATOM      3  N   UNK d   1       1.814  -1.901   0.000  0.00  0.00    -0.320 N 
ATOM      4  H   UNK d   1       1.826  -2.733   0.000  0.00  0.00     0.169 HD
ATOM      5  O   UNK d   1       2.521  -0.653   0.000  0.00  0.00    -0.267 OA
BRANCH   3   6
ATOM      6  C   UNK d   1       1.102  -1.502   0.000  0.00  0.00     0.082 A 
ATOM      7  C   UNK d   1       1.102  -0.666   0.000  0.00  0.00     0.110 A 
ATOM      8  C   UNK d   1       0.379  -0.254   0.000  0.00  0.00     0.026 A 
ATOM      9  C   UNK d   1      -0.325  -0.691   0.000  0.00  0.00     0.002 A 
ATOM     10  C   UNK d   1      -0.320  -1.522   0.000  0.00  0.00     0.002 A 
ATOM     11  C   UNK d   1       0.391  -1.926   0.000  0.00  0.00     0.019 A 
BRANCH   7  12
ATOM     12  O   UNK d   1       1.814  -0.254   0.000  0.00  0.00    -0.327 OA
ATOM     13  C   UNK d   1       1.809   0.570   0.000  0.00  0.00     0.181 C 
ENDBRANCH   7  12
ENDBRANCH   3   6
ENDBRANCH   1   2
BRANCH   1  14
ATOM     14  C   UNK d   1       3.943  -1.472   0.000  0.00  0.00     0.124 C 
BRANCH  14  15
ATOM     15  C   UNK d   1       3.935  -0.641   0.000  0.00  0.00     0.194 C 
ATOM     16  O   UNK d   1       3.224  -0.229   0.000  0.00  0.00    -0.645 OA
BRANCH  15  17
ATOM     17  O   UNK d   1       4.646  -0.216   0.000  0.00  0.00    -0.772 OA
ATOM     18  H   UNK d   1       5.358  -0.624   0.000  0.00  0.00     0.167 HD
ENDBRANCH  15  17
ENDBRANCH  14  15
BRANCH  14  19
ATOM     19  N   UNK d   1       4.646  -1.876   0.000  0.00  0.00    -0.346 N 
ATOM     20  H   UNK d   1       5.358  -1.460   0.000  0.00  0.00     0.166 HD
BRANCH  19  21
ATOM     21  C   UNK d   0       4.659  -2.700   0.000  0.00  0.00     0.092 C 
BRANCH  21  22
ATOM     22  C   UNK d   0       5.370  -3.111   0.000  0.00  0.00     0.099 C 
BRANCH  22  23
ATOM     23  N   UNK d   0       6.081  -2.695   0.000  0.00  0.00    -0.299 N 
ATOM     24  C   UNK d   0       6.077  -1.872   0.000  0.00  0.00     0.100 C 
ATOM     25  C   UNK d   0       6.801  -3.099   0.000  0.00  0.00     0.100 C 
ENDBRANCH  22  23
ENDBRANCH  21  22
ENDBRANCH  19  21
ENDBRANCH  14  19
ENDBRANCH   1  14
TORSDOF 10
