REMARK  2 active torsions:
REMARK  status: ('A' for Active; 'I' for Inactive)
REMARK       I    between atoms: N_2  and  C_1 
REMARK    1  A    between atoms: C_4  and  C_1 
REMARK    2  A    between atoms: C_7  and  N_3 
ROOT
ATOM      1  C   UNL d   1       4.088  -1.182   0.000  0.00  0.00     0.265 C 
ATOM      2  N   UNL d   1       4.802  -1.591   0.000  0.00  0.00    -0.269 N 
ATOM      3  N   UNL d   1       6.238  -2.409   0.000  0.00  0.00    -0.301 N 
ATOM      4  C   UNL d   1       5.516  -1.169   0.000  0.00  0.00     0.102 A 
ATOM      5  C   UNL d   1       4.802  -2.417   0.000  0.00  0.00     0.102 A 
ATOM      6  C   UNL d   1       5.516  -2.822   0.000  0.00  0.00     0.100 A 
ATOM      7  C   UNL d   1       6.230  -1.583   0.000  0.00  0.00     0.100 A 
ATOM      8  O   UNL d   1       4.083  -0.355   0.000  0.00  0.00    -0.267 OA
ENDROOT
BRANCH   1   9
ATOM      9  C   UNL d   1       3.374  -1.603   0.000  0.00  0.00     0.059 A 
ATOM     10  C   UNL d   1       2.660  -1.190   0.000  0.00  0.00     0.031 A 
ATOM     11  C   UNL d   1       1.933  -1.603   0.000  0.00  0.00     0.119 A 
ATOM     12  O   UNL d   1       1.144  -1.353   0.000  0.00  0.00    -0.300 OA
ATOM     13  C   UNL d   1       1.933  -2.443   0.000  0.00  0.00     0.119 A 
ATOM     14  C   UNL d   1       0.656  -2.029   0.000  0.00  0.00     0.304 A 
ATOM     15  O   UNL d   1       1.144  -2.706   0.000  0.00  0.00    -0.300 OA
ATOM     16  C   UNL d   1       2.660  -2.856   0.000  0.00  0.00     0.026 A 
ATOM     17  C   UNL d   1       3.374  -2.443   0.000  0.00  0.00     0.007 A 
ENDBRANCH   1   9
BRANCH   3  18
ATOM     18  C   UNL d   1       6.952  -2.822   0.000  0.00  0.00     0.064 A 
ATOM     19  C   UNL d   1       6.944  -3.645   0.000  0.00  0.00     0.018 A 
ATOM     20  C   UNL d   1       7.657  -4.050   0.000  0.00  0.00     0.013 A 
ATOM     21  C   UNL d   1       8.371  -3.637   0.000  0.00  0.00     0.058 A 
ATOM     22  C   UNL d   1       8.367  -2.810   0.000  0.00  0.00     0.013 A 
ATOM     23 CL   UNL d   1       9.085  -4.050   0.000  0.00  0.00    -0.082 Cl
ATOM     24  C   UNL d   1       7.657  -2.409   0.000  0.00  0.00     0.018 A 
ENDBRANCH   3  18
TORSDOF 2
