REMARK  8 active torsions:
REMARK  status: ('A' for Active; 'I' for Inactive)
REMARK    1  A    between atoms: C_2  and  S_1 
REMARK    2  A    between atoms: N_11  and  S_1 
REMARK    3  A    between atoms: C_10  and  C_3 
REMARK    4  A    between atoms: N_6  and  C_18 
REMARK    5  A    between atoms: C_20  and  N_11 
REMARK    6  A    between atoms: O_17  and  C_12 
REMARK    7  A    between atoms: C_18  and  C_19 
REMARK    8  A    between atoms: C_19  and  C_20 
ROOT
ATOM      1  C   UNL d   1       7.545  -5.793   0.000  0.00  0.00     0.105 A 
ATOM      2  C   UNL d   1       8.781  -6.509   0.000  0.00  0.00     0.000 A 
ATOM      3  C   UNL d   1       7.957  -6.509   0.000  0.00  0.00     0.011 A 
ATOM      4  C   UNL d   1       9.193  -5.793   0.000  0.00  0.00     0.090 A 
ATOM      5  C   UNL d   1       7.957  -5.073   0.000  0.00  0.00     0.015 A 
ATOM      6  C   UNL d   1       8.781  -5.073   0.000  0.00  0.00     0.025 A 
ENDROOT
BRANCH   1   7
ATOM      7  S   UNL d   1       6.721  -5.793   0.000  0.00  0.00     0.285 S 
ATOM      8  O   UNL d   1       6.721  -4.969   0.000  0.00  0.00    -0.198 OA
ATOM      9  O   UNL d   1       6.721  -6.617   0.000  0.00  0.00    -0.198 OA
BRANCH   7  10
ATOM     10  N   UNL d   1       5.893  -5.793   0.000  0.00  0.00    -0.157 NA
BRANCH  10  11
ATOM     11  C   UNL d   1       5.481  -5.073   0.000  0.00  0.00     0.114 C 
BRANCH  11  12
ATOM     12  C   UNL d   1       4.657  -5.073   0.000  0.00  0.00     0.041 C 
BRANCH  12  13
ATOM     13  C   UNL d   1       4.237  -4.362   0.000  0.00  0.00     0.083 C 
BRANCH  13  14
ATOM     14  N   UNL d   1       3.413  -4.362   0.000  0.00  0.00    -0.285 N 
ATOM     15  C   UNL d   1       2.934  -5.032   0.000  0.00  0.00     0.183 A 
ATOM     16  N   UNL d   1       2.147  -4.774   0.000  0.00  0.00    -0.222 NA
ATOM     17  C   UNL d   1       2.147  -3.950   0.000  0.00  0.00     0.120 A 
ATOM     18  C   UNL d   1       2.934  -3.696   0.000  0.00  0.00     0.102 A 
ENDBRANCH  13  14
ENDBRANCH  12  13
ENDBRANCH  11  12
ENDBRANCH  10  11
ENDBRANCH   7  10
ENDBRANCH   1   7
BRANCH   2  19
ATOM     19  C   UNL d   1       9.193  -7.221   0.000  0.00  0.00     0.021 C 
ATOM     20  C   UNL d   1       9.601  -7.932   0.000  0.00  0.00     0.004 C 
ATOM     21  C   UNL d   1       9.905  -6.809   0.000  0.00  0.00     0.004 C 
ATOM     22  C   UNL d   1       8.482  -7.641   0.000  0.00  0.00     0.004 C 
ENDBRANCH   2  19
BRANCH   4  23
ATOM     23  O   UNL d   1      10.018  -5.793   0.000  0.00  0.00    -0.328 OA
ATOM     24  C   UNL d   1      10.430  -6.509   0.000  0.00  0.00     0.181 C 
ENDBRANCH   4  23
TORSDOF 8
