REMARK  4 active torsions:
REMARK  status: ('A' for Active; 'I' for Inactive)
REMARK    1  A    between atoms: C_6  and  C_1 
REMARK    2  A    between atoms: C_4  and  C_8 
REMARK    3  A    between atoms: O_18  and  C_6 
REMARK    4  A    between atoms: C_19  and  O_18 
ROOT
ATOM      1  C   UNL d   1       6.067   0.046   0.000  0.00  0.00     0.121 A 
ATOM      2  C   UNL d   1       4.642   0.033   0.000  0.00  0.00     0.057 A 
ATOM      3  C   UNL d   1       5.354   0.450   0.000  0.00  0.00     0.204 A 
ATOM      4  C   UNL d   1       3.929   0.446   0.000  0.00  0.00     0.009 A 
ATOM      5  N   UNL d   1       5.362  -1.204   0.000  0.00  0.00    -0.244 NA
ATOM      6  C   UNL d   1       3.217   0.033   0.000  0.00  0.00     0.072 A 
ATOM      7  C   UNL d   1       6.075  -0.787   0.000  0.00  0.00     0.107 A 
ATOM      8  C   UNL d   1       4.642  -0.792   0.000  0.00  0.00     0.085 A 
ATOM      9  C   UNL d   1       3.217  -0.792   0.000  0.00  0.00     0.005 A 
ATOM     10  C   UNL d   1       3.929  -1.204   0.000  0.00  0.00     0.019 A 
ATOM     11  O   UNL d   1       5.350   1.275   0.000  0.00  0.00    -0.286 OA
ENDROOT
BRANCH   1  12
ATOM     12  C   UNL d   1       6.779   0.458   0.000  0.00  0.00     0.305 C 
ATOM     13  O   UNL d   1       6.779   1.283   0.000  0.00  0.00    -0.259 OA
BRANCH  12  14
ATOM     14  O   UNL d   1       7.500   0.050   0.000  0.00  0.00    -0.271 OA
BRANCH  14  15
ATOM     15  C   UNL d   1       7.504  -0.775   0.000  0.00  0.00     0.126 C 
ATOM     16  C   UNL d   1       8.225  -1.179   0.000  0.00  0.00     0.029 C 
ENDBRANCH  14  15
ENDBRANCH  12  14
ENDBRANCH   1  12
BRANCH   6  17
ATOM     17  C   UNL d   1       2.504   0.446   0.000  0.00  0.00     0.419 C 
ATOM     18  F   UNL d   1       2.504   1.271   0.000  0.00  0.00    -0.166 F 
ATOM     19  F   UNL d   1       1.788   0.033   0.000  0.00  0.00    -0.166 F 
ATOM     20  F   UNL d   1       2.500  -0.379   0.000  0.00  0.00    -0.166 F 
ENDBRANCH   6  17
TORSDOF 4
