REMARK  0 active torsions:
REMARK  status: ('A' for Active; 'I' for Inactive)
ROOT
ATOM      1  N   UNL d   1       3.213   0.065   0.000  0.00  0.00    -0.152 NA
ATOM      2  C   UNL d   1       2.499   0.468   0.000  0.00  0.00     0.284 A 
ATOM      3  C   UNL d   1       3.218  -0.770   0.000  0.00  0.00     0.371 A 
ATOM      4  C   UNL d   1       1.785   0.051   0.000  0.00  0.00     0.076 A 
ATOM      5  N   UNL d   1       2.504  -1.187   0.000  0.00  0.00    -0.191 NA
ATOM      6  C   UNL d   1       1.785  -0.774   0.000  0.00  0.00     0.091 A 
ATOM      7  O   UNL d   1       2.494   1.294   0.000  0.00  0.00    -0.265 OA
ATOM      8  O   UNL d   1       3.936  -1.178   0.000  0.00  0.00    -0.242 OA
ATOM      9  C   UNL d   1       1.071   0.464   0.000  0.00  0.00     0.006 A 
ATOM     10  C   UNL d   1       1.071  -1.187   0.000  0.00  0.00     0.019 A 
ATOM     11  C   UNL d   1       0.357   0.051   0.000  0.00  0.00     0.000 A 
ATOM     12  C   UNL d   1       0.357  -0.774   0.000  0.00  0.00     0.002 A 
ENDROOT
TORSDOF 0
