REMARK  6 active torsions:
REMARK  status: ('A' for Active; 'I' for Inactive)
REMARK    1  A    between atoms: N_2  and  C_1 
REMARK    2  A    between atoms: N_7  and  C_1 
REMARK    3  A    between atoms: C_5  and  C_3 
REMARK    4  A    between atoms: C_6  and  C_5 
REMARK       I    between atoms: N_8  and  C_6 
REMARK    5  A    between atoms: C_18  and  N_7 
REMARK    6  A    between atoms: C_9  and  N_8 
ROOT
ATOM      1  N   UNL d   1       2.696  -3.122   0.000  0.00  0.00    -0.278 N 
ATOM      2  C   UNL d   1       1.895  -2.947   0.000  0.00  0.00     0.127 A 
ATOM      3  C   UNL d   1       1.645  -2.145   0.000  0.00  0.00     0.274 A 
ATOM      4  N   UNL d   1       2.195  -1.532   0.000  0.00  0.00    -0.318 N 
ATOM      5  O   UNL d   1       0.843  -1.970   0.000  0.00  0.00    -0.266 OA
ATOM      6  C   UNL d   1       3.256  -2.517   0.000  0.00  0.00     0.101 A 
ATOM      7  C   UNL d   1       3.005  -1.728   0.000  0.00  0.00     0.094 A 
ATOM      8  H   UNL d   1       1.958  -0.743   0.000  0.00  0.00     0.169 HD
ENDROOT
BRANCH   2   9
ATOM      9  C   UNL d   1       1.344  -3.548   0.000  0.00  0.00     0.083 C 
BRANCH   9  10
ATOM     10  C   UNL d   1       0.543  -3.372   0.000  0.00  0.00     0.259 C 
ATOM     11  N   UNL d   1      -0.013  -3.986   0.000  0.00  0.00    -0.321 N 
ATOM     12  H   UNL d   1       0.238  -4.775   0.000  0.00  0.00     0.169 HD
ATOM     13  O   UNL d   1       0.292  -2.583   0.000  0.00  0.00    -0.267 OA
BRANCH  11  14
ATOM     14  C   UNL d   1      -0.814  -3.798   0.000  0.00  0.00     0.059 A 
ATOM     15  C   UNL d   1      -1.373  -4.424   0.000  0.00  0.00     0.016 A 
ATOM     16  C   UNL d   1      -2.175  -4.245   0.000  0.00  0.00     0.001 A 
ATOM     17  C   UNL d   1      -1.123  -5.213   0.000  0.00  0.00     0.002 C 
ATOM     18  C   UNL d   1      -2.429  -3.443   0.000  0.00  0.00     0.000 A 
ATOM     19  C   UNL d   1      -1.874  -2.821   0.000  0.00  0.00     0.002 A 
ATOM     20  C   UNL d   1      -3.239  -3.268   0.000  0.00  0.00     0.000 C 
ATOM     21  C   UNL d   1      -1.060  -3.009   0.000  0.00  0.00     0.017 A 
ENDBRANCH  11  14
ENDBRANCH   9  10
ENDBRANCH   2   9
BRANCH   1  22
ATOM     22  C   UNL d   1       2.942  -3.907   0.000  0.00  0.00     0.184 C 
ATOM     23  S   UNL d   1       2.371  -4.499   0.000  0.00  0.00    -0.040 SA
BRANCH  22  24
ATOM     24  N   UNL d   1       3.744  -4.086   0.000  0.00  0.00    -0.331 N 
ATOM     25  H   UNL d   1       3.973  -4.875   0.000  0.00  0.00     0.168 HD
BRANCH  24  26
ATOM     26  C   UNL d   1       4.311  -3.493   0.000  0.00  0.00     0.058 A 
ATOM     27  C   UNL d   1       5.109  -3.685   0.000  0.00  0.00     0.017 A 
ATOM     28  C   UNL d   1       5.676  -3.093   0.000  0.00  0.00     0.002 A 
ATOM     29  C   UNL d   1       5.438  -2.304   0.000  0.00  0.00     0.000 A 
ATOM     30  C   UNL d   1       4.637  -2.108   0.000  0.00  0.00     0.002 A 
ATOM     31  C   UNL d   1       4.074  -2.709   0.000  0.00  0.00     0.017 A 
ENDBRANCH  24  26
ENDBRANCH  22  24
ENDBRANCH   1  22
TORSDOF 6
