REMARK  4 active torsions:
REMARK  status: ('A' for Active; 'I' for Inactive)
REMARK    1  A    between atoms: N_2  and  C_1 
REMARK    2  A    between atoms: C_3  and  C_1 
REMARK       I    between atoms: C_6  and  N_2 
REMARK       I    between atoms: N_8  and  C_6 
REMARK    3  A    between atoms: N_11  and  C_7 
REMARK    4  A    between atoms: C_9  and  N_8 
ROOT
ATOM      1  N   UNL d   1       1.177  -2.475   0.000  0.00  0.00    -0.159 NA
ATOM      2  C   UNL d   1       1.211  -3.299   0.000  0.00  0.00     0.370 C 
ATOM      3  N   UNL d   1       1.939  -3.674   0.000  0.00  0.00    -0.172 NA
ATOM      4  O   UNL d   1       0.516  -3.744   0.000  0.00  0.00    -0.243 OA
ENDROOT
BRANCH   1   5
ATOM      5  C   UNL d   1       0.741  -1.785   0.000  0.00  0.00     0.386 A 
ATOM      6  O   UNL d   1       0.117  -2.326   0.000  0.00  0.00    -0.283 OA
ATOM      7  C   UNL d   1      -0.595  -1.910   0.000  0.00  0.00     0.121 A 
ATOM      8  C   UNL d   1      -1.381  -2.159   0.000  0.00  0.00     0.026 A 
ATOM      9  C   UNL d   1      -0.412  -1.103   0.000  0.00  0.00     0.121 A 
ATOM     10  C   UNL d   1      -1.984  -1.602   0.000  0.00  0.00     0.002 A 
ATOM     11  C   UNL d   1      -1.806  -0.790   0.000  0.00  0.00     0.002 A 
ATOM     12  C   UNL d   1      -1.019  -0.549   0.000  0.00  0.00     0.026 A 
ATOM     13  O   UNL d   1       0.404  -1.028   0.000  0.00  0.00    -0.283 OA
BRANCH   5  14
ATOM     14  C   UNL d   1       1.435  -1.340   0.000  0.00  0.00     0.470 C 
ATOM     15  F   UNL d   1       2.251  -1.602   0.000  0.00  0.00    -0.164 F 
ATOM     16  F   UNL d   1       1.527  -0.478   0.000  0.00  0.00    -0.164 F 
ATOM     17  F   UNL d   1       2.064  -0.928   0.000  0.00  0.00    -0.164 F 
ENDBRANCH   5  14
ENDBRANCH   1   5
BRANCH   3  18
ATOM     18  C   UNL d   1       2.184  -4.468   0.000  0.00  0.00     0.172 A 
ATOM     19  C   UNL d   1       2.983  -4.647   0.000  0.00  0.00     0.076 A 
ATOM     20  C   UNL d   1       3.233  -5.434   0.000  0.00  0.00     0.153 A 
ATOM     21  N   UNL d   1       2.663  -6.045   0.000  0.00  0.00    -0.206 NA
ATOM     22  C   UNL d   1       1.860  -5.858   0.000  0.00  0.00     0.202 A 
ATOM     23  N   UNL d   1       1.614  -5.072   0.000  0.00  0.00    -0.205 NA
BRANCH  20  24
ATOM     24  N   UNL d   1       4.036  -5.621   0.000  0.00  0.00    -0.285 N 
ATOM     25  C   UNL d   1       4.273  -6.407   0.000  0.00  0.00     0.108 A 
ATOM     26  C   UNL d   1       5.080  -6.582   0.000  0.00  0.00     0.142 A 
ATOM     27  O   UNL d   1       5.642  -5.983   0.000  0.00  0.00    -0.300 OA
ATOM     28  C   UNL d   1       5.396  -5.197   0.000  0.00  0.00     0.142 A 
ATOM     29  C   UNL d   1       4.593  -5.009   0.000  0.00  0.00     0.108 A 
ENDBRANCH  20  24
ENDBRANCH   3  18
TORSDOF 4
