REMARK  2 active torsions:
REMARK  status: ('A' for Active; 'I' for Inactive)
REMARK       I    between atoms: C_2  and  N_1 
REMARK       I    between atoms: C_3  and  N_1 
REMARK       I    between atoms: N_4  and  C_2 
REMARK    1  A    between atoms: C_9  and  C_3 
REMARK    2  A    between atoms: C_5  and  N_4 
ROOT
ATOM      1  N   UNL d   1       5.246  -7.056   0.000  0.00  0.00    -0.140 NA
ATOM      2  C   UNL d   1       4.460  -6.819   0.000  0.00  0.00     0.424 C 
ATOM      3  C   UNL d   1       5.854  -6.503   0.000  0.00  0.00     0.284 C 
ATOM      4  N   UNL d   1       4.244  -6.033   0.000  0.00  0.00    -0.329 NA
ATOM      5  O   UNL d   1       3.724  -7.206   0.000  0.00  0.00    -0.228 OA
ATOM      6  O   UNL d   1       5.671  -5.696   0.000  0.00  0.00    -0.265 OA
ENDROOT
BRANCH   3   7
ATOM      7  C   UNL d   1       6.640  -6.744   0.000  0.00  0.00     0.058 A 
ATOM      8  C   UNL d   1       6.819  -7.543   0.000  0.00  0.00     0.005 A 
ATOM      9  C   UNL d   1       7.605  -7.793   0.000  0.00  0.00     0.000 A 
ATOM     10  C   UNL d   1       8.217  -7.231   0.000  0.00  0.00     0.000 A 
ATOM     11  C   UNL d   1       8.038  -6.432   0.000  0.00  0.00     0.000 A 
ATOM     12  C   UNL d   1       7.243  -6.183   0.000  0.00  0.00     0.005 A 
ENDBRANCH   3   7
BRANCH   4  13
ATOM     13  C   UNL d   1       3.911  -5.284   0.000  0.00  0.00     0.219 A 
ATOM     14  N   UNL d   1       3.095  -5.197   0.000  0.00  0.00    -0.214 NA
ATOM     15  C   UNL d   1       2.763  -4.435   0.000  0.00  0.00     0.102 A 
ATOM     16  C   UNL d   1       3.258  -3.774   0.000  0.00  0.00     0.021 A 
ATOM     17  C   UNL d   1       4.073  -3.861   0.000  0.00  0.00     0.006 A 
ATOM     18  C   UNL d   1       4.406  -4.618   0.000  0.00  0.00     0.052 A 
ENDBRANCH   4  13
TORSDOF 2
