REMARK  1 active torsions:
REMARK  status: ('A' for Active; 'I' for Inactive)
REMARK    1  A    between atoms: C_4  and  N_1 
ROOT
ATOM      1  N   UNL d   1       6.417  -6.412   0.000  0.00  0.00    -0.240 N 
ATOM      2  C   UNL d   1       6.904  -5.742   0.000  0.00  0.00     0.267 A 
ATOM      3  C   UNL d   1       6.912  -7.079   0.000  0.00  0.00     0.267 A 
ATOM      4  C   UNL d   1       7.692  -6.817   0.000  0.00  0.00     0.066 A 
ATOM      5  C   UNL d   1       7.692  -5.992   0.000  0.00  0.00     0.066 A 
ATOM      6  O   UNL d   1       6.642  -4.954   0.000  0.00  0.00    -0.267 OA
ATOM      7  O   UNL d   1       6.654  -7.862   0.000  0.00  0.00    -0.267 OA
ENDROOT
BRANCH   1   8
ATOM      8  C   UNL d   1       5.592  -6.417   0.000  0.00  0.00     0.097 A 
ATOM      9  C   UNL d   1       5.179  -5.704   0.000  0.00  0.00     0.156 A 
ATOM     10  F   UNL d   1       5.592  -4.987   0.000  0.00  0.00    -0.203 F 
ATOM     11  C   UNL d   1       4.354  -5.704   0.000  0.00  0.00     0.031 A 
ATOM     12  C   UNL d   1       3.950  -6.425   0.000  0.00  0.00     0.002 A 
ATOM     13  C   UNL d   1       4.367  -7.138   0.000  0.00  0.00     0.002 A 
ATOM     14  C   UNL d   1       5.192  -7.129   0.000  0.00  0.00     0.020 A 
ENDBRANCH   1   8
TORSDOF 1
