REMARK  4 active torsions:
REMARK  status: ('A' for Active; 'I' for Inactive)
REMARK       I    between atoms: C_2  and  N_1 
REMARK       I    between atoms: C_3  and  N_1 
REMARK    1  A    between atoms: C_4  and  C_2 
REMARK       I    between atoms: N_7  and  C_3 
REMARK    2  A    between atoms: C_15  and  N_7 
REMARK    3  A    between atoms: N_11  and  C_16 
REMARK    4  A    between atoms: C_16  and  C_15 
ROOT
ATOM      1  N   UNL d   1       2.284  -3.062   0.000  0.00  0.00    -0.152 NA
ATOM      2  C   UNL d   1       2.051  -3.857   0.000  0.00  0.00     0.283 C 
ATOM      3  C   UNL d   1       3.087  -2.863   0.000  0.00  0.00     0.371 C 
ATOM      4  O   UNL d   1       2.625  -4.456   0.000  0.00  0.00    -0.265 OA
ATOM      5  O   UNL d   1       3.662  -3.449   0.000  0.00  0.00    -0.242 OA
ATOM      6  N   UNL d   1       3.320  -2.064   0.000  0.00  0.00    -0.188 NA
ENDROOT
BRANCH   2   7
ATOM      7  C   UNL d   1       1.252  -4.057   0.000  0.00  0.00     0.058 A 
ATOM      8  C   UNL d   1       0.678  -3.458   0.000  0.00  0.00     0.006 A 
ATOM      9  C   UNL d   1      -0.121  -3.649   0.000  0.00  0.00     0.012 A 
ATOM     10  C   UNL d   1      -0.358  -4.448   0.000  0.00  0.00     0.058 A 
ATOM     11  C   UNL d   1       0.225  -5.047   0.000  0.00  0.00     0.012 A 
ATOM     12 CL   UNL d   1      -1.157  -4.660   0.000  0.00  0.00    -0.082 Cl
ATOM     13  C   UNL d   1       1.028  -4.847   0.000  0.00  0.00     0.006 A 
ENDBRANCH   2   7
BRANCH   6  14
ATOM     14  C   UNL d   1       4.136  -2.064   0.000  0.00  0.00     0.123 C 
BRANCH  14  15
ATOM     15  C   UNL d   1       4.548  -1.352   0.000  0.00  0.00     0.101 C 
BRANCH  15  16
ATOM     16  N   UNL d   1       5.367  -1.352   0.000  0.00  0.00    -0.299 N 
ATOM     17  C   UNL d   1       5.771  -0.641   0.000  0.00  0.00     0.100 C 
ATOM     18  C   UNL d   1       5.946  -1.935   0.000  0.00  0.00     0.100 C 
ENDBRANCH  15  16
ENDBRANCH  14  15
ENDBRANCH   6  14
TORSDOF 4
