REMARK  3 active torsions:
REMARK  status: ('A' for Active; 'I' for Inactive)
REMARK    1  A    between atoms: C_2  and  N_1 
REMARK    2  A    between atoms: O_14  and  C_5 
REMARK    3  A    between atoms: O_15  and  C_12 
ROOT
ATOM      1  C   UNL d   1       2.490  -0.444   0.000  0.00  0.00     0.092 A 
ATOM      2  C   UNL d   1       3.093  -0.996   0.000  0.00  0.00     0.112 A 
ATOM      3  C   UNL d   1       3.880  -0.745   0.000  0.00  0.00     0.050 A 
ATOM      4  C   UNL d   1       2.654   0.360   0.000  0.00  0.00     0.022 A 
ATOM      5  C   UNL d   1       4.047   0.063   0.000  0.00  0.00     0.096 A 
ATOM      6  C   UNL d   1       3.432   0.615   0.000  0.00  0.00     0.026 A 
ENDROOT
BRANCH   1   7
ATOM      7  N   UNL d   1       1.699  -0.695   0.000  0.00  0.00    -0.240 N 
ATOM      8  C   UNL d   1       1.030  -0.218   0.000  0.00  0.00     0.267 A 
ATOM      9  C   UNL d   1       0.368  -0.695   0.000  0.00  0.00     0.066 A 
ATOM     10  O   UNL d   1       1.030   0.611   0.000  0.00  0.00    -0.267 OA
ATOM     11  C   UNL d   1       0.620  -1.486   0.000  0.00  0.00     0.066 A 
ATOM     12  C   UNL d   1       1.444  -1.486   0.000  0.00  0.00     0.267 A 
ATOM     13  O   UNL d   1       1.959  -2.202   0.000  0.00  0.00    -0.267 OA
ENDBRANCH   1   7
BRANCH   2  14
ATOM     14  O   UNL d   1       2.926  -1.808   0.000  0.00  0.00    -0.327 OA
ATOM     15  C   UNL d   1       3.541  -2.361   0.000  0.00  0.00     0.181 C 
ENDBRANCH   2  14
BRANCH   5  16
ATOM     16  O   UNL d   1       4.838   0.322   0.000  0.00  0.00    -0.328 OA
ATOM     17  C   UNL d   1       5.014   1.130   0.000  0.00  0.00     0.181 C 
ENDBRANCH   5  16
TORSDOF 3
