REMARK  5 active torsions:
REMARK  status: ('A' for Active; 'I' for Inactive)
REMARK    1  A    between atoms: C_14  and  C_3 
REMARK    2  A    between atoms: C_8  and  C_4 
REMARK    3  A    between atoms: N_10  and  C_9 
REMARK    4  A    between atoms: O_21  and  C_14 
REMARK    5  A    between atoms: C_25  and  O_21 
ROOT
ATOM      1  C   UNL d   1       4.750  -3.367   0.000  0.00  0.00     0.059 A 
ATOM      2  C   UNL d   1       4.750  -2.542   0.000  0.00  0.00     0.085 A 
ATOM      3  C   UNL d   1       6.175  -3.367   0.000  0.00  0.00     0.083 A 
ATOM      4  C   UNL d   1       5.463  -3.775   0.000  0.00  0.00     0.034 A 
ATOM      5  N   UNL d   1       5.454  -2.125   0.000  0.00  0.00    -0.245 NA
ATOM      6  C   UNL d   1       3.967  -3.625   0.000  0.00  0.00     0.197 A 
ATOM      7  C   UNL d   1       6.175  -2.538   0.000  0.00  0.00     0.087 A 
ATOM      8  C   UNL d   1       3.962  -2.288   0.000  0.00  0.00     0.021 A 
ATOM      9  C   UNL d   1       3.479  -2.954   0.000  0.00  0.00     0.041 A 
ATOM     10  O   UNL d   1       3.712  -4.412   0.000  0.00  0.00    -0.286 OA
ATOM     11  C   UNL d   1       6.888  -2.125   0.000  0.00  0.00     0.021 C 
ATOM     12  C   UNL d   1       3.617  -1.529   0.000  0.00  0.00     0.002 A 
ATOM     13  C   UNL d   1       2.654  -2.875   0.000  0.00  0.00     0.003 A 
ATOM     14  C   UNL d   1       2.800  -1.454   0.000  0.00  0.00     0.000 A 
ATOM     15  C   UNL d   1       2.317  -2.117   0.000  0.00  0.00     0.000 A 
ENDROOT
BRANCH   4  16
ATOM     16  C   UNL d   1       5.463  -4.600   0.000  0.00  0.00     0.102 A 
ATOM     17  O   UNL d   1       6.129  -5.088   0.000  0.00  0.00    -0.286 OA
ATOM     18  C   UNL d   1       5.879  -5.867   0.000  0.00  0.00     0.227 A 
ATOM     19  C   UNL d   1       5.054  -5.875   0.000  0.00  0.00     0.051 A 
ATOM     20  C   UNL d   1       4.792  -5.088   0.000  0.00  0.00     0.029 A 
BRANCH  18  21
ATOM     21  N   UNL d   1       6.362  -6.542   0.000  0.00  0.00    -0.089 N 
ATOM     22  O   UNL d   1       6.029  -7.292   0.000  0.00  0.00    -0.530 OA
ATOM     23  O   UNL d   1       7.188  -6.450   0.000  0.00  0.00    -0.530 OA
ENDBRANCH  18  21
ENDBRANCH   4  16
BRANCH   3  24
ATOM     24  C   UNL d   1       6.892  -3.775   0.000  0.00  0.00     0.302 C 
ATOM     25  O   UNL d   1       6.892  -4.600   0.000  0.00  0.00    -0.259 OA
BRANCH  24  26
ATOM     26  O   UNL d   1       7.604  -3.362   0.000  0.00  0.00    -0.271 OA
BRANCH  26  27
ATOM     27  C   UNL d   1       8.317  -3.775   0.000  0.00  0.00     0.126 C 
ATOM     28  C   UNL d   1       9.029  -3.362   0.000  0.00  0.00     0.029 C 
ENDBRANCH  26  27
ENDBRANCH  24  26
ENDBRANCH   3  24
TORSDOF 5
