REMARK  6 active torsions:
REMARK  status: ('A' for Active; 'I' for Inactive)
REMARK    1  A    between atoms: S_6  and  N_1 
REMARK    2  A    between atoms: C_2  and  C_4 
REMARK    3  A    between atoms: C_12  and  C_3 
REMARK    4  A    between atoms: C_17  and  N_8 
REMARK    5  A    between atoms: C_16  and  C_10 
REMARK    6  A    between atoms: O_27  and  C_24 
ROOT
ATOM      1  N   UNL d   1       1.870   4.430   0.000  0.00  0.00    -0.155 N 
ATOM      2  C   UNL d   1       2.585   4.844   0.000  0.00  0.00     0.099 A 
ATOM      3  N   UNL d   1       2.062   3.633   0.000  0.00  0.00    -0.156 NA
ATOM      4  C   UNL d   1       2.888   3.552   0.000  0.00  0.00     0.103 A 
ATOM      5  C   UNL d   1       3.191   4.320   0.000  0.00  0.00     0.041 A 
ENDROOT
BRANCH   2   6
ATOM      6  C   UNL d   1       2.615   5.700   0.000  0.00  0.00     0.058 A 
ATOM      7  C   UNL d   1       1.980   6.194   0.000  0.00  0.00     0.110 A 
ATOM      8  N   UNL d   1       2.312   6.967   0.000  0.00  0.00    -0.165 NA
ATOM      9  N   UNL d   1       3.139   6.910   0.000  0.00  0.00    -0.228 N 
ATOM     10  C   UNL d   1       3.331   6.113   0.000  0.00  0.00     0.103 A 
BRANCH   7  11
ATOM     11  C   UNL d   1       1.183   6.002   0.000  0.00  0.00     0.049 A 
ATOM     12  S   UNL d   1       0.630   5.641   0.000  0.00  0.00    -0.085 SA
ATOM     13  C   UNL d   1       0.000   6.194   0.000  0.00  0.00     0.035 A 
ATOM     14  C   UNL d   1       0.192   6.967   0.000  0.00  0.00     0.007 A 
ATOM     15  C   UNL d   1       0.962   6.910   0.000  0.00  0.00     0.009 A 
ENDBRANCH   7  11
BRANCH   9  16
ATOM     16  C   UNL d   1       3.660   7.545   0.000  0.00  0.00     0.083 A 
ATOM     17  C   UNL d   1       3.382   8.312   0.000  0.00  0.00     0.019 A 
ATOM     18  C   UNL d   1       3.936   8.866   0.000  0.00  0.00     0.002 A 
ATOM     19  C   UNL d   1       4.763   8.812   0.000  0.00  0.00     0.000 A 
ATOM     20  C   UNL d   1       5.011   8.010   0.000  0.00  0.00     0.002 A 
ATOM     21  C   UNL d   1       4.487   7.375   0.000  0.00  0.00     0.019 A 
ENDBRANCH   9  16
ENDBRANCH   2   6
BRANCH   1  22
ATOM     22  S   UNL d   1       1.100   4.733   0.000  0.00  0.00     0.266 S 
ATOM     23  O   UNL d   1       0.797   3.963   0.000  0.00  0.00    -0.203 OA
ATOM     24  O   UNL d   1       1.402   5.500   0.000  0.00  0.00    -0.203 OA
ATOM     25  C   UNL d   1       0.327   5.036   0.000  0.00  0.00     0.165 C 
ENDBRANCH   1  22
BRANCH   4  26
ATOM     26  C   UNL d   1       3.331   2.858   0.000  0.00  0.00     0.020 A 
ATOM     27  C   UNL d   1       4.157   2.858   0.000  0.00  0.00     0.004 A 
ATOM     28  C   UNL d   1       4.571   2.152   0.000  0.00  0.00     0.024 A 
ATOM     29  C   UNL d   1       4.157   1.437   0.000  0.00  0.00     0.094 A 
ATOM     30  C   UNL d   1       3.331   1.437   0.000  0.00  0.00     0.024 A 
ATOM     31  C   UNL d   1       2.945   2.123   0.000  0.00  0.00     0.004 A 
BRANCH  29  32
ATOM     32  O   UNL d   1       4.598   0.721   0.000  0.00  0.00    -0.328 OA
ATOM     33  C   UNL d   1       4.209   0.000   0.000  0.00  0.00     0.181 C 
ENDBRANCH  29  32
ENDBRANCH   4  26
TORSDOF 6
