REMARK  0 active torsions:
REMARK  status: ('A' for Active; 'I' for Inactive)
ROOT
ATOM      1  N   UNL d   1       3.611  -0.908   0.000  0.00  0.00    -0.208 NA
ATOM      2  C   UNL d   1       4.321  -0.489   0.000  0.00  0.00     0.279 A 
ATOM      3  C   UNL d   1       3.599   0.746   0.000  0.00  0.00     0.006 A 
ATOM      4  C   UNL d   1       4.316   0.336   0.000  0.00  0.00     0.058 A 
ATOM      5  C   UNL d   1       2.890  -0.498   0.000  0.00  0.00     0.085 A 
ATOM      6  C   UNL d   1       2.890   0.332   0.000  0.00  0.00     0.018 A 
ATOM      7  O   UNL d   1       5.038  -0.900   0.000  0.00  0.00    -0.265 OA
ATOM      8  C   UNL d   1       3.595   1.563   0.000  0.00  0.00     0.000 A 
ATOM      9  C   UNL d   1       5.017   0.755   0.000  0.00  0.00     0.005 A 
ATOM     10  C   UNL d   1       2.177   0.742   0.000  0.00  0.00     0.002 A 
ATOM     11  C   UNL d   1       2.177  -0.912   0.000  0.00  0.00     0.019 A 
ATOM     12  C   UNL d   1       4.296   1.974   0.000  0.00  0.00     0.000 A 
ATOM     13  C   UNL d   1       5.013   1.576   0.000  0.00  0.00     0.000 A 
ATOM     14  C   UNL d   1       1.460   0.323   0.000  0.00  0.00     0.000 A 
ATOM     15  C   UNL d   1       1.460  -0.502   0.000  0.00  0.00     0.002 A 
ENDROOT
TORSDOF 0
