REMARK  3 active torsions:
REMARK  status: ('A' for Active; 'I' for Inactive)
REMARK    1  A    between atoms: C_7  and  C_1 
REMARK    2  A    between atoms: C_6  and  C_2 
REMARK    3  A    between atoms: C_3  and  C_6 
REMARK       I    between atoms: N_4  and  C_3 
ROOT
ATOM      1  C   UNL d   1       1.795  -2.104   0.000  0.00  0.00     0.038 A 
ATOM      2  C   UNL d   1       3.098  -1.720   0.000  0.00  0.00     0.043 A 
ATOM      3  C   UNL d   1       2.559  -2.409   0.000  0.00  0.00     0.016 A 
ATOM      4  C   UNL d   1       0.994  -2.330   0.000  0.00  0.00    -0.023 A 
ATOM      5  C   UNL d   1       1.795  -1.253   0.000  0.00  0.00     0.013 A 
ATOM      6  C   UNL d   1       1.641  -1.641   0.000  0.00  0.00    -0.012 A 
ATOM      7  C   UNL d   1       2.359  -0.580   0.000  0.00  0.00     0.023 A 
ATOM      8  C   UNL d   1       3.111  -0.893   0.000  0.00  0.00     0.013 A 
ATOM      9  C   UNL d   1       2.347  -1.908   0.000  0.00  0.00    -0.023 A 
ATOM     10  C   UNL d   1       1.633  -0.843   0.000  0.00  0.00    -0.027 A 
ENDROOT
BRANCH   2  11
ATOM     11  C   UNL d   1       3.925  -1.720   0.000  0.00  0.00     0.038 C 
BRANCH  11  12
ATOM     12  C   UNL d   1       4.338  -2.434   0.000  0.00  0.00     0.261 C 
ATOM     13  N   UNL d   1       5.165  -2.430   0.000  0.00  0.00    -0.268 N 
ATOM     14  C   UNL d   1       5.578  -3.144   0.000  0.00  0.00     0.110 A 
ATOM     15  C   UNL d   1       5.574  -1.708   0.000  0.00  0.00     0.110 A 
ATOM     16  C   UNL d   1       6.401  -3.144   0.000  0.00  0.00     0.142 A 
ATOM     17  O   UNL d   1       6.818  -2.430   0.000  0.00  0.00    -0.300 OA
ATOM     18  C   UNL d   1       6.405  -1.716   0.000  0.00  0.00     0.142 A 
ATOM     19  O   UNL d   1       3.925  -3.148   0.000  0.00  0.00    -0.267 OA
ENDBRANCH  11  12
ENDBRANCH   2  11
BRANCH   1  20
ATOM     20  C   UNL d   1       1.917  -2.923   0.000  0.00  0.00    -0.019 A 
ATOM     21  C   UNL d   1       1.265  -3.424   0.000  0.00  0.00    -0.004 A 
ATOM     22  C   UNL d   1       1.378  -4.238   0.000  0.00  0.00    -0.000 A 
ATOM     23  C   UNL d   1       2.134  -4.547   0.000  0.00  0.00    -0.000 A 
ATOM     24  C   UNL d   1       2.793  -4.038   0.000  0.00  0.00    -0.000 A 
ATOM     25  C   UNL d   1       2.259  -5.365   0.000  0.00  0.00    -0.000 C 
ATOM     26  C   UNL d   1       2.672  -3.223   0.000  0.00  0.00    -0.004 A 
ENDBRANCH   1  20
TORSDOF 3
