REMARK  4 active torsions:
REMARK  status: ('A' for Active; 'I' for Inactive)
REMARK    1  A    between atoms: C_10  and  C_3 
REMARK    2  A    between atoms: C_12  and  C_6 
REMARK    3  A    between atoms: O_15  and  C_10 
REMARK    4  A    between atoms: C_22  and  O_15 
ROOT
ATOM      1  C   UNL d   1       4.750  -3.367   0.000  0.00  0.00     0.057 A 
ATOM      2  C   UNL d   1       4.750  -2.542   0.000  0.00  0.00     0.085 A 
ATOM      3  C   UNL d   1       6.175  -3.367   0.000  0.00  0.00     0.081 A 
ATOM      4  N   UNL d   1       5.454  -2.125   0.000  0.00  0.00    -0.245 NA
ATOM      5  C   UNL d   1       3.967  -3.625   0.000  0.00  0.00     0.197 A 
ATOM      6  C   UNL d   1       5.463  -3.775   0.000  0.00  0.00     0.013 A 
ATOM      7  C   UNL d   1       6.175  -2.538   0.000  0.00  0.00     0.086 A 
ATOM      8  C   UNL d   1       3.962  -2.288   0.000  0.00  0.00     0.021 A 
ATOM      9  C   UNL d   1       3.479  -2.954   0.000  0.00  0.00     0.041 A 
ATOM     10  O   UNL d   1       3.712  -4.412   0.000  0.00  0.00    -0.286 OA
ATOM     11  C   UNL d   1       6.888  -2.125   0.000  0.00  0.00     0.021 C 
ATOM     12  C   UNL d   1       3.617  -1.529   0.000  0.00  0.00     0.002 A 
ATOM     13  C   UNL d   1       2.654  -2.875   0.000  0.00  0.00     0.003 A 
ATOM     14  C   UNL d   1       2.317  -2.117   0.000  0.00  0.00     0.000 A 
ATOM     15  C   UNL d   1       2.800  -1.454   0.000  0.00  0.00     0.000 A 
ENDROOT
BRANCH   6  16
ATOM     16  C   UNL d   1       5.463  -4.600   0.000  0.00  0.00     0.020 A 
ATOM     17  C   UNL d   1       6.175  -5.004   0.000  0.00  0.00     0.099 A 
ATOM     18  N   UNL d   1       6.179  -5.829   0.000  0.00  0.00    -0.242 NA
ATOM     19  C   UNL d   1       5.463  -6.250   0.000  0.00  0.00     0.099 A 
ATOM     20  C   UNL d   1       4.742  -5.838   0.000  0.00  0.00     0.021 A 
ATOM     21  C   UNL d   1       4.742  -5.013   0.000  0.00  0.00     0.003 A 
ENDBRANCH   6  16
BRANCH   3  22
ATOM     22  C   UNL d   1       6.892  -3.775   0.000  0.00  0.00     0.302 C 
ATOM     23  O   UNL d   1       6.892  -4.600   0.000  0.00  0.00    -0.259 OA
BRANCH  22  24
ATOM     24  O   UNL d   1       7.604  -3.362   0.000  0.00  0.00    -0.271 OA
BRANCH  24  25
ATOM     25  C   UNL d   1       8.317  -3.775   0.000  0.00  0.00     0.126 C 
ATOM     26  C   UNL d   1       9.029  -3.362   0.000  0.00  0.00     0.029 C 
ENDBRANCH  24  25
ENDBRANCH  22  24
ENDBRANCH   3  22
TORSDOF 4
