REMARK  4 active torsions:
REMARK  status: ('A' for Active; 'I' for Inactive)
REMARK    1  A    between atoms: C_5  and  C_1 
REMARK    2  A    between atoms: C_11  and  C_2 
REMARK       I    between atoms: C_12  and  N_3 
REMARK    3  A    between atoms: C_15  and  N_7 
REMARK    4  A    between atoms: C_14  and  C_9 
ROOT
ATOM      1  C   UNL d   1       2.893   2.615   0.000  0.00  0.00     0.057 A 
ATOM      2  C   UNL d   1       2.091   2.858   0.000  0.00  0.00     0.110 A 
ATOM      3  N   UNL d   1       2.091   3.690   0.000  0.00  0.00    -0.165 NA
ATOM      4  N   UNL d   1       2.893   3.936   0.000  0.00  0.00    -0.228 N 
ATOM      5  C   UNL d   1       3.360   3.272   0.000  0.00  0.00     0.103 A 
ENDROOT
BRANCH   1   6
ATOM      6  C   UNL d   1       3.471   2.042   0.000  0.00  0.00     0.091 A 
ATOM      7  N   UNL d   1       3.331   1.215   0.000  0.00  0.00    -0.195 N 
ATOM      8  N   UNL d   1       4.076   0.827   0.000  0.00  0.00    -0.163 NA
ATOM      9  C   UNL d   1       2.615   0.827   0.000  0.00  0.00     0.281 C 
ATOM     10  C   UNL d   1       4.652   1.407   0.000  0.00  0.00     0.103 A 
ATOM     11  C   UNL d   1       4.298   2.152   0.000  0.00  0.00     0.040 A 
ATOM     12  O   UNL d   1       1.929   1.296   0.000  0.00  0.00    -0.265 OA
ATOM     13  C   UNL d   1       2.561   0.000   0.000  0.00  0.00     0.068 C 
BRANCH  10  14
ATOM     14  C   UNL d   1       5.478   1.296   0.000  0.00  0.00     0.019 A 
ATOM     15  C   UNL d   1       5.786   0.524   0.000  0.00  0.00     0.002 A 
ATOM     16  C   UNL d   1       6.583   0.389   0.000  0.00  0.00     0.000 A 
ATOM     17  C   UNL d   1       7.107   1.023   0.000  0.00  0.00     0.000 A 
ATOM     18  C   UNL d   1       6.804   1.791   0.000  0.00  0.00     0.000 A 
ATOM     19  C   UNL d   1       7.933   0.913   0.000  0.00  0.00     0.000 C 
ATOM     20  C   UNL d   1       6.002   1.931   0.000  0.00  0.00     0.002 A 
ENDBRANCH  10  14
ENDBRANCH   1   6
BRANCH   2  21
ATOM     21  C   UNL d   1       1.264   2.858   0.000  0.00  0.00     0.049 A 
ATOM     22  S   UNL d   1       0.797   2.177   0.000  0.00  0.00    -0.085 SA
ATOM     23  C   UNL d   1       0.000   2.450   0.000  0.00  0.00     0.035 A 
ATOM     24  C   UNL d   1       0.000   3.272   0.000  0.00  0.00     0.007 A 
ATOM     25  C   UNL d   1       0.797   3.523   0.000  0.00  0.00     0.009 A 
ENDBRANCH   2  21
BRANCH   4  26
ATOM     26  C   UNL d   1       3.139   4.738   0.000  0.00  0.00     0.083 A 
ATOM     27  C   UNL d   1       2.585   5.343   0.000  0.00  0.00     0.019 A 
ATOM     28  C   UNL d   1       2.863   6.113   0.000  0.00  0.00     0.002 A 
ATOM     29  C   UNL d   1       3.663   6.305   0.000  0.00  0.00     0.000 A 
ATOM     30  C   UNL d   1       4.214   5.675   0.000  0.00  0.00     0.002 A 
ATOM     31  C   UNL d   1       3.966   4.903   0.000  0.00  0.00     0.019 A 
ENDBRANCH   4  26
TORSDOF 4
