REMARK  7 active torsions:
REMARK  status: ('A' for Active; 'I' for Inactive)
REMARK       I    between atoms: N_3  and  C_1 
REMARK    1  A    between atoms: C_10  and  C_1 
REMARK    2  A    between atoms: C_2  and  C_5 
REMARK    3  A    between atoms: O_15  and  C_2 
REMARK    4  A    between atoms: C_11  and  N_3 
REMARK    5  A    between atoms: C_4  and  C_11 
REMARK       I    between atoms: N_6  and  C_4 
REMARK    6  A    between atoms: C_14  and  N_6 
REMARK    7  A    between atoms: C_20  and  O_15 
ROOT
ATOM      1  C   UNL d   1       1.742  -2.454   0.000  0.00  0.00     0.299 C 
ATOM      2  N   UNL d   1       2.454  -2.042   0.000  0.00  0.00    -0.207 NA
ATOM      3  O   UNL d   1       1.750  -3.279   0.000  0.00  0.00    -0.263 OA
ENDROOT
BRANCH   1   4
ATOM      4  C   UNL d   1       1.029  -2.054   0.000  0.00  0.00     0.165 C 
BRANCH   4   5
ATOM      5  N   UNL d   1       0.317  -2.467   0.000  0.00  0.00    -0.201 NA
ATOM      6  C   UNL d   1      -0.396  -2.054   0.000  0.00  0.00     0.279 C 
ATOM      7  O   UNL d   1      -0.350  -1.188   0.000  0.00  0.00    -0.265 OA
BRANCH   6   8
ATOM      8  C   UNL d   1      -1.113  -2.467   0.000  0.00  0.00     0.058 A 
ATOM      9  C   UNL d   1      -1.113  -3.292   0.000  0.00  0.00     0.005 A 
ATOM     10  C   UNL d   1      -1.825  -3.700   0.000  0.00  0.00     0.000 A 
ATOM     11  C   UNL d   1      -2.533  -3.292   0.000  0.00  0.00     0.000 A 
ATOM     12  C   UNL d   1      -2.533  -2.467   0.000  0.00  0.00     0.000 A 
ATOM     13  C   UNL d   1      -1.825  -2.050   0.000  0.00  0.00     0.005 A 
ENDBRANCH   6   8
ENDBRANCH   4   5
ENDBRANCH   1   4
BRANCH   2  14
ATOM     14  C   UNL d   1       3.175  -2.450   0.000  0.00  0.00     0.085 A 
ATOM     15  C   UNL d   1       3.879  -2.029   0.000  0.00  0.00     0.019 A 
ATOM     16  C   UNL d   1       4.592  -2.429   0.000  0.00  0.00     0.007 A 
ATOM     17  C   UNL d   1       4.604  -3.263   0.000  0.00  0.00     0.064 A 
ATOM     18  C   UNL d   1       3.892  -3.679   0.000  0.00  0.00     0.007 A 
ATOM     19  C   UNL d   1       3.175  -3.275   0.000  0.00  0.00     0.019 A 
BRANCH  17  20
ATOM     20  C   UNL d   1       5.325  -3.667   0.000  0.00  0.00     0.300 C 
ATOM     21  O   UNL d   1       6.037  -3.250   0.000  0.00  0.00    -0.259 OA
BRANCH  20  22
ATOM     22  O   UNL d   1       5.329  -4.492   0.000  0.00  0.00    -0.271 OA
BRANCH  22  23
ATOM     23  C   UNL d   1       4.617  -4.912   0.000  0.00  0.00     0.126 C 
ATOM     24  C   UNL d   1       4.629  -5.737   0.000  0.00  0.00     0.029 C 
ENDBRANCH  22  23
ENDBRANCH  20  22
ENDBRANCH  17  20
ENDBRANCH   2  14
TORSDOF 7
