REMARK  6 active torsions:
REMARK  status: ('A' for Active; 'I' for Inactive)
REMARK    1  A    between atoms: N_2  and  S_1 
REMARK    2  A    between atoms: C_6  and  S_1 
REMARK    3  A    between atoms: N_4  and  C_3 
REMARK       I    between atoms: C_5  and  N_4 
REMARK       I    between atoms: N_10  and  C_5 
REMARK    4  A    between atoms: C_7  and  C_11 
REMARK    5  A    between atoms: O_20  and  C_7 
REMARK    6  A    between atoms: C_14  and  N_10 
ROOT
ATOM      1  N   UNL d   1      -2.193  -1.221   0.000  0.00  0.00    -0.214 N 
ATOM      2  C   UNL d   1      -1.940  -0.428   0.000  0.00  0.00     0.162 A 
ATOM      3  C   UNL d   1      -3.024  -1.221   0.000  0.00  0.00     0.093 A 
ATOM      4  C   UNL d   1      -2.613   0.058   0.000  0.00  0.00     0.040 A 
ATOM      5  C   UNL d   1      -3.273  -0.428   0.000  0.00  0.00     0.023 A 
ENDROOT
BRANCH   2   6
ATOM      6  N   UNL d   1      -1.142  -0.174   0.000  0.00  0.00    -0.173 NA
ATOM      7  C   UNL d   1      -0.972   0.631   0.000  0.00  0.00     0.370 C 
ATOM      8  N   UNL d   1      -0.183   0.885   0.000  0.00  0.00    -0.191 NA
ATOM      9  O   UNL d   1      -1.579   1.192   0.000  0.00  0.00    -0.242 OA
BRANCH   8  10
ATOM     10  C   UNL d   1       0.428   0.332   0.000  0.00  0.00     0.086 A 
ATOM     11  C   UNL d   1       1.213   0.586   0.000  0.00  0.00     0.025 A 
ATOM     12  C   UNL d   1       1.824   0.033   0.000  0.00  0.00     0.065 A 
ATOM     13  C   UNL d   1       1.649  -0.777   0.000  0.00  0.00     0.005 A 
ATOM     14  C   UNL d   1       0.864  -1.026   0.000  0.00  0.00     0.002 A 
ATOM     15  C   UNL d   1       0.253  -0.474   0.000  0.00  0.00     0.019 A 
BRANCH  12  16
ATOM     16  C   UNL d   1       2.609   0.295   0.000  0.00  0.00     0.296 C 
ATOM     17  O   UNL d   1       2.783   1.093   0.000  0.00  0.00    -0.259 OA
BRANCH  16  18
ATOM     18  O   UNL d   1       3.219  -0.262   0.000  0.00  0.00    -0.296 OA
ATOM     19  C   UNL d   1       3.053  -1.063   0.000  0.00  0.00     0.185 C 
ENDBRANCH  16  18
ENDBRANCH  12  16
ENDBRANCH   8  10
ENDBRANCH   2   6
BRANCH   1  20
ATOM     20  S   UNL d   1      -1.790  -1.936   0.000  0.00  0.00     0.272 S 
ATOM     21  O   UNL d   1      -1.080  -1.570   0.000  0.00  0.00    -0.200 OA
ATOM     22  O   UNL d   1      -2.501  -2.347   0.000  0.00  0.00    -0.200 OA
BRANCH  20  23
ATOM     23  C   UNL d   1      -1.371  -2.659   0.000  0.00  0.00     0.104 A 
ATOM     24  C   UNL d   1      -0.548  -2.659   0.000  0.00  0.00     0.014 A 
ATOM     25  C   UNL d   1      -0.145  -3.369   0.000  0.00  0.00     0.012 A 
ATOM     26  C   UNL d   1      -0.557  -4.092   0.000  0.00  0.00     0.058 A 
ATOM     27  C   UNL d   1      -1.379  -4.092   0.000  0.00  0.00     0.012 A 
ATOM     28 CL   UNL d   1      -0.145  -4.810   0.000  0.00  0.00    -0.082 Cl
ATOM     29  C   UNL d   1      -1.794  -3.369   0.000  0.00  0.00     0.014 A 
ENDBRANCH  20  23
ENDBRANCH   1  20
TORSDOF 6
