REMARK  5 active torsions:
REMARK  status: ('A' for Active; 'I' for Inactive)
REMARK    1  A    between atoms: C_2  and  S_1 
REMARK    2  A    between atoms: N_4  and  S_1 
REMARK    3  A    between atoms: C_11  and  N_4 
REMARK    4  A    between atoms: O_13  and  C_5 
REMARK    5  A    between atoms: O_14  and  C_6 
ROOT
ATOM      1  C   UNL d   1       4.513  -2.610   0.000  0.00  0.00     0.141 A 
ATOM      2  C   UNL d   1       4.513  -3.436   0.000  0.00  0.00     0.040 A 
ATOM      3  C   UNL d   1       3.808  -2.205   0.000  0.00  0.00     0.107 A 
ATOM      4  C   UNL d   1       3.808  -3.850   0.000  0.00  0.00     0.095 A 
ATOM      5  C   UNL d   1       3.094  -2.610   0.000  0.00  0.00     0.027 A 
ATOM      6  C   UNL d   1       3.094  -3.436   0.000  0.00  0.00     0.024 A 
ATOM      7  C   UNL d   1       2.372  -3.850   0.000  0.00  0.00     0.002 C 
ENDROOT
BRANCH   1   8
ATOM      8  S   UNL d   1       5.228  -2.205   0.000  0.00  0.00     0.329 S 
ATOM      9  O   UNL d   1       4.822  -1.491   0.000  0.00  0.00    -0.186 OA
ATOM     10  O   UNL d   1       5.641  -2.910   0.000  0.00  0.00    -0.186 OA
BRANCH   8  11
ATOM     11  N   UNL d   1       5.941  -1.791   0.000  0.00  0.00    -0.316 NA
BRANCH  11  12
ATOM     12  C   UNL d   1       6.655  -1.369   0.000  0.00  0.00     0.165 A 
ATOM     13  C   UNL d   1       6.643  -0.551   0.000  0.00  0.00     0.132 A 
ATOM     14  N   UNL d   1       7.357  -0.130   0.000  0.00  0.00    -0.240 NA
ATOM     15  C   UNL d   1       8.079  -0.530   0.000  0.00  0.00     0.099 A 
ATOM     16  C   UNL d   1       8.083  -1.357   0.000  0.00  0.00     0.023 A 
ATOM     17  C   UNL d   1       7.378  -1.783   0.000  0.00  0.00     0.036 A 
ENDBRANCH  11  12
ENDBRANCH   8  11
ENDBRANCH   1   8
BRANCH   3  18
ATOM     18  O   UNL d   1       3.808  -1.378   0.000  0.00  0.00    -0.327 OA
ATOM     19  C   UNL d   1       3.086  -0.965   0.000  0.00  0.00     0.181 C 
ENDBRANCH   3  18
BRANCH   4  20
ATOM     20  O   UNL d   1       3.808  -4.676   0.000  0.00  0.00    -0.328 OA
ATOM     21  C   UNL d   1       4.522  -5.090   0.000  0.00  0.00     0.181 C 
ENDBRANCH   4  20
TORSDOF 5
