REMARK  5 active torsions:
REMARK  status: ('A' for Active; 'I' for Inactive)
REMARK    1  A    between atoms: C_4  and  S_1 
REMARK    2  A    between atoms: N_5  and  S_1 
REMARK    3  A    between atoms: C_2  and  C_8 
REMARK       I    between atoms: N_3  and  C_2 
REMARK    4  A    between atoms: C_16  and  N_5 
REMARK    5  A    between atoms: C_17  and  N_5 
ROOT
ATOM      1  C   UNL d   1      -0.225  -0.954   0.000  0.00  0.00     0.104 A 
ATOM      2  C   UNL d   1       1.204  -0.125   0.000  0.00  0.00     0.057 A 
ATOM      3  C   UNL d   1      -0.225  -0.125   0.000  0.00  0.00     0.013 A 
ATOM      4  C   UNL d   1       0.487  -1.367   0.000  0.00  0.00     0.013 A 
ATOM      5  C   UNL d   1       0.487   0.287   0.000  0.00  0.00     0.005 A 
ATOM      6  C   UNL d   1       1.204  -0.954   0.000  0.00  0.00     0.005 A 
ENDROOT
BRANCH   1   7
ATOM      7  S   UNL d   1      -0.946  -1.367   0.000  0.00  0.00     0.271 S 
ATOM      8  O   UNL d   1      -0.600  -2.188   0.000  0.00  0.00    -0.200 OA
ATOM      9  O   UNL d   1      -1.383  -0.529   0.000  0.00  0.00    -0.200 OA
BRANCH   7  10
ATOM     10  N   UNL d   1      -1.658  -1.775   0.000  0.00  0.00    -0.229 N 
BRANCH  10  11
ATOM     11  C   UNL d   1      -2.371  -1.354   0.000  0.00  0.00     0.092 C 
ATOM     12  C   UNL d   1      -2.362  -0.529   0.000  0.00  0.00     0.021 C 
ENDBRANCH  10  11
BRANCH  10  13
ATOM     13  C   UNL d   1      -1.671  -2.600   0.000  0.00  0.00     0.092 C 
ATOM     14  C   UNL d   1      -0.958  -3.017   0.000  0.00  0.00     0.021 C 
ENDBRANCH  10  13
ENDBRANCH   7  10
ENDBRANCH   1   7
BRANCH   2  15
ATOM     15  C   UNL d   1       1.917   0.296   0.000  0.00  0.00     0.265 C 
ATOM     16  N   UNL d   1       2.629  -0.117   0.000  0.00  0.00    -0.272 N 
ATOM     17  C   UNL d   1       2.629  -0.942   0.000  0.00  0.00     0.083 A 
ATOM     18  C   UNL d   1       3.342   0.296   0.000  0.00  0.00     0.083 A 
ATOM     19  C   UNL d   1       3.342  -1.354   0.000  0.00  0.00     0.019 A 
ATOM     20  C   UNL d   1       4.054  -0.942   0.000  0.00  0.00     0.003 A 
ATOM     21  C   UNL d   1       4.054  -0.117   0.000  0.00  0.00     0.019 A 
ATOM     22  O   UNL d   1       1.913   1.121   0.000  0.00  0.00    -0.267 OA
ENDBRANCH   2  15
TORSDOF 5
