REMARK  4 active torsions:
REMARK  status: ('A' for Active; 'I' for Inactive)
REMARK       I    between atoms: N_3  and  C_1 
REMARK       I    between atoms: N_7  and  C_1 
REMARK    1  A    between atoms: C_2  and  N_3 
REMARK    2  A    between atoms: C_4  and  C_5 
REMARK    3  A    between atoms: O_13  and  C_4 
REMARK    4  A    between atoms: C_15  and  N_7 
ROOT
ATOM      1  C   UNL d   1       1.494  -1.131   0.000  0.00  0.00     0.097 A 
ATOM      2  C   UNL d   1       2.921  -1.131   0.000  0.00  0.00     0.065 A 
ATOM      3  C   UNL d   1       2.207  -0.718   0.000  0.00  0.00     0.025 A 
ATOM      4  C   UNL d   1       1.494  -1.957   0.000  0.00  0.00     0.075 A 
ATOM      5  C   UNL d   1       2.921  -1.965   0.000  0.00  0.00     0.006 A 
ATOM      6  C   UNL d   1       2.207  -2.370   0.000  0.00  0.00     0.013 A 
ATOM      7 CL   UNL d   1       0.776  -2.370   0.000  0.00  0.00    -0.081 Cl
ENDROOT
BRANCH   1   8
ATOM      8  N   UNL d   1       0.780  -0.718   0.000  0.00  0.00    -0.190 NA
ATOM      9  C   UNL d   1       0.067  -1.131   0.000  0.00  0.00     0.369 C 
ATOM     10  N   UNL d   1      -0.647  -0.714   0.000  0.00  0.00    -0.191 NA
ATOM     11  O   UNL d   1       0.067  -1.957   0.000  0.00  0.00    -0.242 OA
BRANCH  10  12
ATOM     12  C   UNL d   1      -1.364  -1.127   0.000  0.00  0.00     0.086 A 
ATOM     13  C   UNL d   1      -2.078  -0.705   0.000  0.00  0.00     0.019 A 
ATOM     14  C   UNL d   1      -2.787  -1.127   0.000  0.00  0.00     0.002 A 
ATOM     15  C   UNL d   1      -2.787  -1.953   0.000  0.00  0.00     0.000 A 
ATOM     16  C   UNL d   1      -2.078  -2.357   0.000  0.00  0.00     0.002 A 
ATOM     17  C   UNL d   1      -1.364  -1.953   0.000  0.00  0.00     0.019 A 
ENDBRANCH  10  12
ENDBRANCH   1   8
BRANCH   2  18
ATOM     18  C   UNL d   1       3.643  -0.718   0.000  0.00  0.00     0.296 C 
ATOM     19  O   UNL d   1       3.643   0.108   0.000  0.00  0.00    -0.259 OA
BRANCH  18  20
ATOM     20  O   UNL d   1       4.356  -1.131   0.000  0.00  0.00    -0.296 OA
ATOM     21  C   UNL d   1       4.356  -1.957   0.000  0.00  0.00     0.185 C 
ENDBRANCH  18  20
ENDBRANCH   2  18
TORSDOF 4
