REMARK  4 active torsions:
REMARK  status: ('A' for Active; 'I' for Inactive)
REMARK       I    between atoms: N_3  and  C_1 
REMARK    1  A    between atoms: C_13  and  C_1 
REMARK    2  A    between atoms: C_2  and  N_5 
REMARK    3  A    between atoms: C_14  and  N_3 
REMARK    4  A    between atoms: C_4  and  C_14 
REMARK       I    between atoms: N_5  and  C_4 
ROOT
ATOM      1  C   UNL d   1       0.467  -1.650   0.000  0.00  0.00     0.299 C 
ATOM      2  N   UNL d   1       1.175  -1.229   0.000  0.00  0.00    -0.207 NA
ATOM      3  O   UNL d   1       0.467  -2.475   0.000  0.00  0.00    -0.263 OA
ENDROOT
BRANCH   1   4
ATOM      4  C   UNL d   1      -0.250  -1.242   0.000  0.00  0.00     0.165 C 
BRANCH   4   5
ATOM      5  N   UNL d   1      -0.963  -1.663   0.000  0.00  0.00    -0.201 NA
ATOM      6  C   UNL d   1      -1.675  -1.242   0.000  0.00  0.00     0.279 C 
ATOM      7  O   UNL d   1      -1.671  -0.417   0.000  0.00  0.00    -0.265 OA
BRANCH   6   8
ATOM      8  C   UNL d   1      -2.396  -1.655   0.000  0.00  0.00     0.058 A 
ATOM      9  C   UNL d   1      -3.109  -1.242   0.000  0.00  0.00     0.005 A 
ATOM     10  C   UNL d   1      -3.813  -1.655   0.000  0.00  0.00     0.000 A 
ATOM     11  C   UNL d   1      -3.813  -2.480   0.000  0.00  0.00     0.000 A 
ATOM     12  C   UNL d   1      -3.109  -2.892   0.000  0.00  0.00     0.000 A 
ATOM     13  C   UNL d   1      -2.396  -2.480   0.000  0.00  0.00     0.005 A 
ENDBRANCH   6   8
ENDBRANCH   4   5
ENDBRANCH   1   4
BRANCH   2  14
ATOM     14  C   UNL d   1       1.892  -1.642   0.000  0.00  0.00     0.086 A 
ATOM     15  C   UNL d   1       1.892  -2.467   0.000  0.00  0.00     0.031 A 
ATOM     16  C   UNL d   1       2.613  -2.867   0.000  0.00  0.00     0.060 A 
ATOM     17 CL   UNL d   1       2.555  -3.655   0.000  0.00  0.00    -0.082 Cl
ATOM     18  C   UNL d   1       3.326  -2.455   0.000  0.00  0.00     0.023 A 
ATOM     19  C   UNL d   1       3.317  -1.625   0.000  0.00  0.00     0.060 A 
ATOM     20  C   UNL d   1       2.600  -1.217   0.000  0.00  0.00     0.031 A 
ATOM     21 CL   UNL d   1       4.030  -1.204   0.000  0.00  0.00    -0.082 Cl
ENDBRANCH   2  14
TORSDOF 4
