REMARK  4 active torsions:
REMARK  status: ('A' for Active; 'I' for Inactive)
REMARK    1  A    between atoms: C_2  and  S_1 
REMARK    2  A    between atoms: N_3  and  S_1 
REMARK    3  A    between atoms: C_5  and  C_6 
REMARK       I    between atoms: N_7  and  C_5 
REMARK    4  A    between atoms: C_15  and  N_7 
ROOT
ATOM      1  C   UNL d   1       3.871  -3.295   0.000  0.00  0.00     0.115 A 
ATOM      2  C   UNL d   1       4.592  -2.876   0.000  0.00  0.00     0.019 A 
ATOM      3  C   UNL d   1       4.592  -2.051   0.000  0.00  0.00     0.059 A 
ATOM      4  C   UNL d   1       3.162  -2.876   0.000  0.00  0.00     0.070 A 
ATOM      5  C   UNL d   1       3.871  -1.641   0.000  0.00  0.00     0.006 A 
ATOM      6  C   UNL d   1       3.162  -2.051   0.000  0.00  0.00     0.012 A 
ATOM      7 CL   UNL d   1       2.441  -3.295   0.000  0.00  0.00    -0.082 Cl
ENDROOT
BRANCH   1   8
ATOM      8  S   UNL d   1       3.871  -4.120   0.000  0.00  0.00     0.272 S 
ATOM      9  O   UNL d   1       4.700  -4.120   0.000  0.00  0.00    -0.200 OA
ATOM     10  O   UNL d   1       3.050  -4.120   0.000  0.00  0.00    -0.200 OA
BRANCH   8  11
ATOM     11  N   UNL d   1       3.871  -4.940   0.000  0.00  0.00    -0.229 N 
ATOM     12  C   UNL d   1       3.075  -5.272   0.000  0.00  0.00     0.092 A 
ATOM     13  C   UNL d   1       2.802  -5.935   0.000  0.00  0.00     0.020 A 
ATOM     14  C   UNL d   1       3.249  -6.644   0.000  0.00  0.00     0.002 A 
ATOM     15  C   UNL d   1       4.120  -6.718   0.000  0.00  0.00     0.002 A 
ATOM     16  C   UNL d   1       4.716  -6.059   0.000  0.00  0.00     0.020 A 
ATOM     17  C   UNL d   1       4.542  -5.239   0.000  0.00  0.00     0.092 A 
ENDBRANCH   8  11
ENDBRANCH   1   8
BRANCH   3  18
ATOM     18  C   UNL d   1       5.301  -1.633   0.000  0.00  0.00     0.279 C 
ATOM     19  N   UNL d   1       5.301  -0.812   0.000  0.00  0.00    -0.206 NA
ATOM     20  O   UNL d   1       6.018  -2.043   0.000  0.00  0.00    -0.265 OA
BRANCH  19  21
ATOM     21  C   UNL d   1       6.010  -0.390   0.000  0.00  0.00     0.104 A 
ATOM     22  C   UNL d   1       5.997   0.423   0.000  0.00  0.00     0.118 A 
ATOM     23  N   UNL d   1       6.706   0.841   0.000  0.00  0.00    -0.241 NA
ATOM     24  C   UNL d   1       7.427   0.431   0.000  0.00  0.00     0.099 A 
ATOM     25  C   UNL d   1       7.435  -0.390   0.000  0.00  0.00     0.022 A 
ATOM     26  C   UNL d   1       6.718  -0.812   0.000  0.00  0.00     0.022 A 
ENDBRANCH  19  21
ENDBRANCH   3  18
TORSDOF 4
