REMARK  3 active torsions:
REMARK  status: ('A' for Active; 'I' for Inactive)
REMARK    1  A    between atoms: C_11  and  N_2 
REMARK    2  A    between atoms: C_16  and  C_6 
REMARK    3  A    between atoms: C_12  and  C_11 
ROOT
ATOM      1  C   UNL d   1       3.675  -1.575   0.000  0.00  0.00     0.137 A 
ATOM      2  N   UNL d   1       5.104  -1.562   0.000  0.00  0.00    -0.256 N 
ATOM      3  C   UNL d   1       3.679  -2.404   0.000  0.00  0.00     0.192 A 
ATOM      4  C   UNL d   1       4.388  -1.154   0.000  0.00  0.00     0.272 A 
ATOM      5  N   UNL d   1       4.392  -2.812   0.000  0.00  0.00    -0.204 NA
ATOM      6  C   UNL d   1       5.112  -2.392   0.000  0.00  0.00     0.152 A 
ATOM      7  C   UNL d   1       2.954  -1.167   0.000  0.00  0.00     0.205 A 
ATOM      8  O   UNL d   1       2.967  -2.817   0.000  0.00  0.00    -0.289 OA
ATOM      9  C   UNL d   1       2.250  -1.579   0.000  0.00  0.00     0.062 A 
ATOM     10  C   UNL d   1       2.250  -2.404   0.000  0.00  0.00     0.105 A 
ATOM     11  O   UNL d   1       4.379  -0.329   0.000  0.00  0.00    -0.266 OA
ATOM     12  O   UNL d   1       2.954  -0.342   0.000  0.00  0.00    -0.286 OA
ATOM     13  C   UNL d   1       1.529  -1.167   0.000  0.00  0.00     0.005 A 
ATOM     14  C   UNL d   1       1.529  -2.825   0.000  0.00  0.00     0.025 A 
ATOM     15  C   UNL d   1       0.817  -1.587   0.000  0.00  0.00     0.000 A 
ATOM     16  C   UNL d   1       0.817  -2.413   0.000  0.00  0.00     0.002 A 
ENDROOT
BRANCH   2  17
ATOM     17  C   UNL d   1       5.804  -1.142   0.000  0.00  0.00     0.109 C 
BRANCH  17  18
ATOM     18  C   UNL d   1       5.792  -0.317   0.000  0.00  0.00     0.118 A 
ATOM     19  O   UNL d   1       6.454   0.171   0.000  0.00  0.00    -0.304 OA
ATOM     20  C   UNL d   1       6.192   0.946   0.000  0.00  0.00     0.123 A 
ATOM     21  C   UNL d   1       5.367   0.938   0.000  0.00  0.00     0.029 A 
ATOM     22  C   UNL d   1       5.125   0.158   0.000  0.00  0.00     0.028 A 
ENDBRANCH  17  18
ENDBRANCH   2  17
BRANCH   6  23
ATOM     23  C   UNL d   1       5.829  -2.804   0.000  0.00  0.00     0.035 A 
ATOM     24  C   UNL d   1       5.838  -3.629   0.000  0.00  0.00     0.003 A 
ATOM     25  C   UNL d   1       6.550  -4.037   0.000  0.00  0.00     0.000 A 
ATOM     26  C   UNL d   1       7.263  -3.617   0.000  0.00  0.00     0.000 A 
ATOM     27  C   UNL d   1       7.254  -2.792   0.000  0.00  0.00     0.000 A 
ATOM     28  C   UNL d   1       6.542  -2.379   0.000  0.00  0.00     0.003 A 
ENDBRANCH   6  23
TORSDOF 3
