REMARK  6 active torsions:
REMARK  status: ('A' for Active; 'I' for Inactive)
REMARK    1  A    between atoms: C_3  and  C_1 
REMARK    2  A    between atoms: S_2  and  C_3 
REMARK    3  A    between atoms: C_8  and  S_2 
REMARK    4  A    between atoms: C_9  and  C_3 
REMARK    5  A    between atoms: N_7  and  C_4 
REMARK    6  A    between atoms: C_25  and  N_16 
ROOT
ATOM      1  C   UNL d   1       3.378  -1.302   0.000  0.00  0.00     0.128 A 
ATOM      2  C   UNL d   1       3.378  -2.123   0.000  0.00  0.00     0.166 A 
ATOM      3  N   UNL d   1       2.670  -0.889   0.000  0.00  0.00    -0.240 NA
ATOM      4  N   UNL d   1       2.670  -2.531   0.000  0.00  0.00    -0.225 NA
ATOM      5  C   UNL d   1       1.963  -1.302   0.000  0.00  0.00     0.099 A 
ATOM      6  C   UNL d   1       1.959  -2.123   0.000  0.00  0.00     0.101 A 
ATOM      7  C   UNL d   1       1.243  -2.531   0.000  0.00  0.00     0.021 A 
ATOM      8  C   UNL d   1       1.251  -0.884   0.000  0.00  0.00     0.021 A 
ATOM      9  C   UNL d   1       0.535  -1.293   0.000  0.00  0.00     0.002 A 
ATOM     10  C   UNL d   1       0.535  -2.115   0.000  0.00  0.00     0.002 A 
ENDROOT
BRANCH   1  11
ATOM     11  C   UNL d   1       4.086  -0.889   0.000  0.00  0.00     0.129 C 
BRANCH  11  12
ATOM     12  S   UNL d   1       4.056   0.008   0.000  0.00  0.00     0.213 S 
ATOM     13  O   UNL d   1       4.869  -0.190   0.000  0.00  0.00    -0.217 OA
ATOM     14  O   UNL d   1       4.827   0.451   0.000  0.00  0.00    -0.217 OA
BRANCH  12  15
ATOM     15  C   UNL d   1       3.424   0.552   0.000  0.00  0.00     0.088 A 
ATOM     16  C   UNL d   1       3.580   1.365   0.000  0.00  0.00     0.011 A 
ATOM     17  C   UNL d   1       2.957   1.904   0.000  0.00  0.00     0.001 A 
ATOM     18  C   UNL d   1       3.108   2.712   0.000  0.00  0.00     0.000 C 
ATOM     19  C   UNL d   1       2.173   1.630   0.000  0.00  0.00     0.000 A 
ATOM     20  C   UNL d   1       2.022   0.817   0.000  0.00  0.00     0.001 A 
ATOM     21  C   UNL d   1       1.546   2.169   0.000  0.00  0.00     0.000 C 
ATOM     22  C   UNL d   1       2.645   0.274   0.000  0.00  0.00     0.011 A 
ENDBRANCH  12  15
ENDBRANCH  11  12
BRANCH  11  23
ATOM     23  C   UNL d   1       4.907  -1.175   0.000  0.00  0.00     0.135 C 
ATOM     24  N   UNL d   1       5.652  -0.699   0.000  0.00  0.00    -0.146 N 
ENDBRANCH  11  23
ENDBRANCH   1  11
BRANCH   2  25
ATOM     25  N   UNL d   1       4.107  -2.531   0.000  0.00  0.00    -0.285 N 
ATOM     26  C   UNL d   1       4.819  -2.115   0.000  0.00  0.00     0.101 A 
ATOM     27  C   UNL d   1       5.539  -2.531   0.000  0.00  0.00     0.100 A 
ATOM     28  N   UNL d   1       5.539  -3.365   0.000  0.00  0.00    -0.300 N 
ATOM     29  C   UNL d   1       4.819  -3.782   0.000  0.00  0.00     0.100 A 
ATOM     30  C   UNL d   1       4.107  -3.365   0.000  0.00  0.00     0.101 A 
BRANCH  28  31
ATOM     31  C   UNL d   1       6.268  -3.782   0.000  0.00  0.00     0.080 C 
ATOM     32  C   UNL d   1       6.259  -4.616   0.000  0.00  0.00     0.021 C 
ENDBRANCH  28  31
ENDBRANCH   2  25
TORSDOF 6
