REMARK  4 active torsions:
REMARK  status: ('A' for Active; 'I' for Inactive)
REMARK    1  A    between atoms: C_8  and  N_2 
REMARK    2  A    between atoms: C_13  and  C_8 
REMARK    3  A    between atoms: O_17  and  C_13 
REMARK    4  A    between atoms: O_18  and  C_15 
ROOT
ATOM      1  C   UNL d   1       6.170  -3.998   0.000  0.00  0.00     0.166 A 
ATOM      2  N   UNL d   1       5.504  -4.485   0.000  0.00  0.00    -0.285 N 
ATOM      3  C   UNL d   1       5.908  -3.212   0.000  0.00  0.00     0.117 A 
ATOM      4  C   UNL d   1       5.084  -3.212   0.000  0.00  0.00     0.039 A 
ATOM      5  C   UNL d   1       4.835  -3.998   0.000  0.00  0.00     0.067 A 
ATOM      6  N   UNL d   1       6.969  -4.173   0.000  0.00  0.00    -0.225 NA
ATOM      7  N   UNL d   1       6.457  -2.600   0.000  0.00  0.00    -0.241 NA
ATOM      8  C   UNL d   1       7.530  -3.561   0.000  0.00  0.00     0.101 A 
ATOM      9  C   UNL d   1       7.268  -2.775   0.000  0.00  0.00     0.099 A 
ATOM     10  C   UNL d   1       4.023  -4.186   0.000  0.00  0.00     0.020 A 
ATOM     11  C   UNL d   1       4.531  -2.613   0.000  0.00  0.00     0.027 A 
ATOM     12  C   UNL d   1       3.724  -2.788   0.000  0.00  0.00     0.094 A 
ATOM     13  C   UNL d   1       3.474  -3.574   0.000  0.00  0.00     0.026 A 
ATOM     14  C   UNL d   1       7.817  -2.163   0.000  0.00  0.00     0.021 A 
ATOM     15  C   UNL d   1       8.329  -3.724   0.000  0.00  0.00     0.021 A 
ATOM     16  C   UNL d   1       8.887  -3.112   0.000  0.00  0.00     0.002 A 
ATOM     17  C   UNL d   1       8.625  -2.326   0.000  0.00  0.00     0.002 A 
ENDROOT
BRANCH   2  18
ATOM     18  C   UNL d   1       5.504  -5.309   0.000  0.00  0.00     0.150 C 
BRANCH  18  19
ATOM     19  C   UNL d   1       4.785  -5.721   0.000  0.00  0.00     0.314 C 
ATOM     20  O   UNL d   1       4.073  -5.296   0.000  0.00  0.00    -0.257 OA
BRANCH  19  21
ATOM     21  O   UNL d   1       4.780  -6.532   0.000  0.00  0.00    -0.295 OA
ATOM     22  C   UNL d   1       5.492  -6.956   0.000  0.00  0.00     0.185 C 
ENDBRANCH  19  21
ENDBRANCH  18  19
ENDBRANCH   2  18
BRANCH  12  23
ATOM     23  O   UNL d   1       3.175  -2.176   0.000  0.00  0.00    -0.328 OA
ATOM     24  C   UNL d   1       3.424  -1.390   0.000  0.00  0.00     0.181 C 
ENDBRANCH  12  23
TORSDOF 4
