REMARK  4 active torsions:
REMARK  status: ('A' for Active; 'I' for Inactive)
REMARK    1  A    between atoms: C_11  and  N_4 
REMARK    2  A    between atoms: C_18  and  C_7 
REMARK    3  A    between atoms: C_19  and  C_11 
REMARK    4  A    between atoms: O_20  and  C_16 
ROOT
ATOM      1  C   UNL d   1       4.374  -1.774   0.000  0.00  0.00     0.137 A 
ATOM      2  C   UNL d   1       4.378  -2.596   0.000  0.00  0.00     0.192 A 
ATOM      3  C   UNL d   1       5.085  -1.358   0.000  0.00  0.00     0.272 A 
ATOM      4  N   UNL d   1       5.799  -1.761   0.000  0.00  0.00    -0.258 N 
ATOM      5  N   UNL d   1       5.089  -3.008   0.000  0.00  0.00    -0.204 NA
ATOM      6  C   UNL d   1       3.656  -1.363   0.000  0.00  0.00     0.205 A 
ATOM      7  C   UNL d   1       5.808  -2.592   0.000  0.00  0.00     0.152 A 
ATOM      8  C   UNL d   1       2.954  -1.782   0.000  0.00  0.00     0.062 A 
ATOM      9  O   UNL d   1       3.668  -3.016   0.000  0.00  0.00    -0.289 OA
ATOM     10  C   UNL d   1       2.954  -2.605   0.000  0.00  0.00     0.107 A 
ATOM     11  C   UNL d   1       2.235  -3.020   0.000  0.00  0.00     0.049 A 
ATOM     12  C   UNL d   1       2.235  -1.371   0.000  0.00  0.00     0.007 A 
ATOM     13  O   UNL d   1       5.076  -0.536   0.000  0.00  0.00    -0.266 OA
ATOM     14  O   UNL d   1       3.656  -0.540   0.000  0.00  0.00    -0.286 OA
ATOM     15  C   UNL d   1       1.525  -2.609   0.000  0.00  0.00     0.096 A 
ATOM     16  C   UNL d   1       1.525  -1.782   0.000  0.00  0.00     0.024 A 
ENDROOT
BRANCH   4  17
ATOM     17  C   UNL d   1       6.518  -1.338   0.000  0.00  0.00     0.084 C 
BRANCH  17  18
ATOM     18  C   UNL d   1       6.510  -0.515   0.000  0.00  0.00     0.018 A 
ATOM     19  C   UNL d   1       5.799  -0.091   0.000  0.00  0.00     0.002 A 
ATOM     20  C   UNL d   1       5.799   0.735   0.000  0.00  0.00     0.000 A 
ATOM     21  C   UNL d   1       6.530   1.147   0.000  0.00  0.00     0.000 A 
ATOM     22  C   UNL d   1       7.245   0.723   0.000  0.00  0.00     0.000 A 
ATOM     23  C   UNL d   1       7.232  -0.104   0.000  0.00  0.00     0.002 A 
ENDBRANCH  17  18
ENDBRANCH   4  17
BRANCH   7  24
ATOM     24  C   UNL d   1       6.522  -2.995   0.000  0.00  0.00     0.038 C 
ATOM     25  C   UNL d   1       6.530  -3.818   0.000  0.00  0.00     0.003 C 
ENDBRANCH   7  24
BRANCH  15  26
ATOM     26  O   UNL d   1       0.814  -3.016   0.000  0.00  0.00    -0.328 OA
ATOM     27  C   UNL d   1       0.814  -3.838   0.000  0.00  0.00     0.181 C 
ENDBRANCH  15  26
TORSDOF 4
