REMARK  3 active torsions:
REMARK  status: ('A' for Active; 'I' for Inactive)
REMARK    1  A    between atoms: C_12  and  C_4 
REMARK    2  A    between atoms: O_13  and  C_7 
REMARK    3  A    between atoms: O_14  and  C_10 
ROOT
ATOM      1  C   UNL d   1       4.147  -2.970   0.000  0.00  0.00     0.084 A 
ATOM      2  C   UNL d   1       4.859  -3.386   0.000  0.00  0.00     0.201 A 
ATOM      3  C   UNL d   1       5.571  -2.970   0.000  0.00  0.00     0.067 A 
ATOM      4  C   UNL d   1       5.571  -2.141   0.000  0.00  0.00     0.103 A 
ATOM      5  C   UNL d   1       4.147  -2.141   0.000  0.00  0.00     0.107 A 
ATOM      6  O   UNL d   1       4.859  -1.729   0.000  0.00  0.00    -0.307 OA
ATOM      7  C   UNL d   1       3.435  -3.386   0.000  0.00  0.00     0.101 A 
ATOM      8  C   UNL d   1       3.435  -1.734   0.000  0.00  0.00     0.049 A 
ATOM      9  C   UNL d   1       2.723  -2.970   0.000  0.00  0.00     0.049 A 
ATOM     10  C   UNL d   1       2.723  -2.151   0.000  0.00  0.00     0.098 A 
ATOM     11  O   UNL d   1       4.854  -4.205   0.000  0.00  0.00    -0.286 OA
ENDROOT
BRANCH   4  12
ATOM     12  C   UNL d   1       6.283  -1.734   0.000  0.00  0.00     0.023 A 
ATOM     13  C   UNL d   1       6.283  -0.916   0.000  0.00  0.00     0.002 A 
ATOM     14  C   UNL d   1       6.995  -0.499   0.000  0.00  0.00     0.000 A 
ATOM     15  C   UNL d   1       7.717  -0.916   0.000  0.00  0.00     0.000 A 
ATOM     16  C   UNL d   1       7.707  -1.734   0.000  0.00  0.00     0.000 A 
ATOM     17  C   UNL d   1       6.995  -2.151   0.000  0.00  0.00     0.002 A 
ENDBRANCH   4  12
BRANCH   7  18
ATOM     18  O   UNL d   1       3.435  -4.205   0.000  0.00  0.00    -0.328 OA
ATOM     19  C   UNL d   1       4.147  -4.612   0.000  0.00  0.00     0.181 C 
ENDBRANCH   7  18
BRANCH  10  20
ATOM     20  O   UNL d   1       2.010  -1.734   0.000  0.00  0.00    -0.328 OA
ATOM     21  C   UNL d   1       1.298  -2.151   0.000  0.00  0.00     0.181 C 
ENDBRANCH  10  20
TORSDOF 3
