REMARK  5 active torsions:
REMARK  status: ('A' for Active; 'I' for Inactive)
REMARK    1  A    between atoms: C_4  and  N_1 
REMARK    2  A    between atoms: C_8  and  C_2 
REMARK    3  A    between atoms: C_13  and  C_6 
REMARK    4  A    between atoms: C_7  and  C_8 
REMARK    5  A    between atoms: O_24  and  C_22 
ROOT
ATOM      1  N   UNL d   1       3.816  -2.865   0.000  0.00  0.00    -0.255 N 
ATOM      2  C   UNL d   1       2.732  -3.654   0.000  0.00  0.00     0.101 A 
ATOM      3  C   UNL d   1       3.145  -2.382   0.000  0.00  0.00     0.305 A 
ATOM      4  C   UNL d   1       2.482  -2.865   0.000  0.00  0.00     0.256 A 
ATOM      5  C   UNL d   1       3.558  -3.654   0.000  0.00  0.00     0.075 A 
ATOM      6  O   UNL d   1       3.145  -1.556   0.000  0.00  0.00    -0.263 OA
ATOM      7  O   UNL d   1       1.693  -2.607   0.000  0.00  0.00    -0.281 OA
ENDROOT
BRANCH   2   8
ATOM      8  C   UNL d   1       2.244  -4.321   0.000  0.00  0.00     0.223 C 
ATOM      9  O   UNL d   1       2.582  -5.072   0.000  0.00  0.00    -0.284 OA
BRANCH   8  10
ATOM     10  C   UNL d   1       1.426  -4.234   0.000  0.00  0.00     0.139 A 
ATOM     11  O   UNL d   1       0.876  -4.847   0.000  0.00  0.00    -0.304 OA
ATOM     12  C   UNL d   1       0.117  -4.509   0.000  0.00  0.00     0.100 A 
ATOM     13  C   UNL d   1      -0.634  -4.842   0.000  0.00  0.00     0.025 A 
ATOM     14  C   UNL d   1       0.213  -3.691   0.000  0.00  0.00     0.025 A 
ATOM     15  C   UNL d   1      -1.297  -4.359   0.000  0.00  0.00     0.002 A 
ATOM     16  C   UNL d   1      -1.210  -3.533   0.000  0.00  0.00     0.000 A 
ATOM     17  C   UNL d   1      -0.459  -3.203   0.000  0.00  0.00     0.002 A 
ATOM     18  C   UNL d   1       1.014  -3.520   0.000  0.00  0.00     0.030 A 
ENDBRANCH   8  10
ENDBRANCH   2   8
BRANCH   5  19
ATOM     19  C   UNL d   1       4.046  -4.321   0.000  0.00  0.00     0.018 A 
ATOM     20  C   UNL d   1       4.859  -4.234   0.000  0.00  0.00     0.026 A 
ATOM     21  C   UNL d   1       5.347  -4.897   0.000  0.00  0.00     0.094 A 
ATOM     22  C   UNL d   1       5.009  -5.656   0.000  0.00  0.00     0.024 A 
ATOM     23  C   UNL d   1       4.183  -5.735   0.000  0.00  0.00     0.002 A 
ATOM     24  C   UNL d   1       3.704  -5.072   0.000  0.00  0.00     0.002 A 
BRANCH  21  25
ATOM     25  O   UNL d   1       6.169  -4.809   0.000  0.00  0.00    -0.328 OA
ATOM     26  C   UNL d   1       6.657  -5.472   0.000  0.00  0.00     0.181 C 
ENDBRANCH  21  25
ENDBRANCH   5  19
BRANCH   1  27
ATOM     27  C   UNL d   1       4.605  -2.607   0.000  0.00  0.00     0.179 A 
ATOM     28  N   UNL d   1       5.272  -3.095   0.000  0.00  0.00    -0.108 NA
ATOM     29  O   UNL d   1       5.935  -2.607   0.000  0.00  0.00    -0.210 OA
ATOM     30  C   UNL d   1       5.685  -1.827   0.000  0.00  0.00     0.128 A 
ATOM     31  C   UNL d   1       4.859  -1.819   0.000  0.00  0.00     0.067 A 
ATOM     32  C   UNL d   1       6.173  -1.155   0.000  0.00  0.00     0.029 C 
ENDBRANCH   1  27
TORSDOF 5
