REMARK  5 active torsions:
REMARK  status: ('A' for Active; 'I' for Inactive)
REMARK    1  A    between atoms: C_3  and  C_1 
REMARK    2  A    between atoms: S_2  and  C_3 
REMARK    3  A    between atoms: C_8  and  S_2 
REMARK    4  A    between atoms: C_9  and  C_3 
REMARK    5  A    between atoms: N_7  and  C_4 
ROOT
ATOM      1  C   UNL d   1       2.754  -1.099   0.000  0.00  0.00     0.128 A 
ATOM      2  C   UNL d   1       2.615  -1.912   0.000  0.00  0.00     0.166 A 
ATOM      3  N   UNL d   1       2.123  -0.573   0.000  0.00  0.00    -0.240 NA
ATOM      4  N   UNL d   1       1.836  -2.198   0.000  0.00  0.00    -0.225 NA
ATOM      5  C   UNL d   1       1.356  -0.859   0.000  0.00  0.00     0.099 A 
ATOM      6  C   UNL d   1       1.213  -1.668   0.000  0.00  0.00     0.101 A 
ATOM      7  C   UNL d   1       0.434  -1.950   0.000  0.00  0.00     0.021 A 
ATOM      8  C   UNL d   1       0.724  -0.329   0.000  0.00  0.00     0.021 A 
ATOM      9  C   UNL d   1      -0.190  -1.419   0.000  0.00  0.00     0.002 A 
ATOM     10  C   UNL d   1      -0.046  -0.611   0.000  0.00  0.00     0.002 A 
ENDROOT
BRANCH   1  11
ATOM     11  C   UNL d   1       3.525  -0.813   0.000  0.00  0.00     0.129 C 
BRANCH  11  12
ATOM     12  S   UNL d   1       3.639   0.072   0.000  0.00  0.00     0.213 S 
ATOM     13  O   UNL d   1       4.477   0.375   0.000  0.00  0.00    -0.217 OA
ATOM     14  O   UNL d   1       4.401  -0.257   0.000  0.00  0.00    -0.217 OA
BRANCH  12  15
ATOM     15  C   UNL d   1       3.112   0.716   0.000  0.00  0.00     0.088 A 
ATOM     16  C   UNL d   1       3.403   1.487   0.000  0.00  0.00     0.011 A 
ATOM     17  C   UNL d   1       2.881   2.131   0.000  0.00  0.00     0.001 A 
ATOM     18  C   UNL d   1       3.171   2.893   0.000  0.00  0.00     0.000 C 
ATOM     19  C   UNL d   1       2.064   1.992   0.000  0.00  0.00     0.000 A 
ATOM     20  C   UNL d   1       1.773   1.209   0.000  0.00  0.00     0.001 A 
ATOM     21  C   UNL d   1       2.299   0.577   0.000  0.00  0.00     0.011 A 
ENDBRANCH  12  15
ENDBRANCH  11  12
BRANCH  11  22
ATOM     22  C   UNL d   1       4.275  -1.238   0.000  0.00  0.00     0.135 C 
ATOM     23  N   UNL d   1       5.096  -0.901   0.000  0.00  0.00    -0.146 N 
ENDBRANCH  11  22
ENDBRANCH   1  11
BRANCH   2  24
ATOM     24  N   UNL d   1       3.260  -2.438   0.000  0.00  0.00    -0.288 N 
ATOM     25  C   UNL d   1       3.201  -3.272   0.000  0.00  0.00     0.082 A 
ATOM     26  C   UNL d   1       3.980  -3.580   0.000  0.00  0.00     0.021 A 
ATOM     27  C   UNL d   1       4.510  -2.935   0.000  0.00  0.00     0.021 A 
ATOM     28  C   UNL d   1       4.060  -2.228   0.000  0.00  0.00     0.082 A 
ENDBRANCH   2  24
TORSDOF 5
