REMARK  6 active torsions:
REMARK  status: ('A' for Active; 'I' for Inactive)
REMARK    1  A    between atoms: N_3  and  S_1 
REMARK    2  A    between atoms: C_7  and  S_1 
REMARK    3  A    between atoms: C_2  and  N_3 
REMARK    4  A    between atoms: N_8  and  C_5 
REMARK    5  A    between atoms: C_20  and  N_8 
REMARK    6  A    between atoms: C_13  and  C_20 
ROOT
ATOM      1  C   UNL d   1       7.465  -8.305   0.000  0.00  0.00     0.211 A 
ATOM      2  N   UNL d   1       7.875  -9.031   0.000  0.00  0.00    -0.222 NA
ATOM      3  C   UNL d   1       6.631  -8.305   0.000  0.00  0.00     0.200 A 
ATOM      4  N   UNL d   1       6.232  -9.016   0.000  0.00  0.00    -0.223 NA
ATOM      5  C   UNL d   1       7.465  -9.748   0.000  0.00  0.00     0.101 A 
ATOM      6  C   UNL d   1       6.631  -9.732   0.000  0.00  0.00     0.101 A 
ATOM      7  C   UNL d   1       6.202 -10.469   0.000  0.00  0.00     0.021 A 
ATOM      8  C   UNL d   1       7.875 -10.489   0.000  0.00  0.00     0.021 A 
ATOM      9  C   UNL d   1       6.631 -11.190   0.000  0.00  0.00     0.002 A 
ATOM     10  C   UNL d   1       7.465 -11.190   0.000  0.00  0.00     0.002 A 
ENDROOT
BRANCH   1  11
ATOM     11  N   UNL d   1       7.813  -7.619   0.000  0.00  0.00    -0.136 NA
BRANCH  11  12
ATOM     12  S   UNL d   1       8.611  -7.496   0.000  0.00  0.00     0.287 S 
ATOM     13  O   UNL d   1       9.471  -7.568   0.000  0.00  0.00    -0.198 OA
ATOM     14  O   UNL d   1       8.509  -8.294   0.000  0.00  0.00    -0.198 OA
BRANCH  12  15
ATOM     15  C   UNL d   1       9.026  -6.800   0.000  0.00  0.00     0.105 A 
ATOM     16  C   UNL d   1       8.632  -6.084   0.000  0.00  0.00     0.013 A 
ATOM     17  C   UNL d   1       9.041  -5.347   0.000  0.00  0.00     0.001 A 
ATOM     18  C   UNL d   1       9.886  -5.357   0.000  0.00  0.00     0.000 A 
ATOM     19  C   UNL d   1      10.290  -6.069   0.000  0.00  0.00     0.001 A 
ATOM     20  C   UNL d   1      10.331  -4.672   0.000  0.00  0.00     0.000 C 
ATOM     21  C   UNL d   1       9.860  -6.800   0.000  0.00  0.00     0.013 A 
ENDBRANCH  12  15
ENDBRANCH  11  12
ENDBRANCH   1  11
BRANCH   3  22
ATOM     22  N   UNL d   1       6.278  -7.598   0.000  0.00  0.00    -0.221 NA
BRANCH  22  23
ATOM     23  C   UNL d   1       5.516  -7.399   0.000  0.00  0.00     0.125 C 
BRANCH  23  24
ATOM     24  C   UNL d   1       5.316  -6.636   0.000  0.00  0.00     0.119 A 
ATOM     25  O   UNL d   1       5.808  -6.022   0.000  0.00  0.00    -0.304 OA
ATOM     26  C   UNL d   1       5.388  -5.373   0.000  0.00  0.00     0.123 A 
ATOM     27  C   UNL d   1       4.626  -5.572   0.000  0.00  0.00     0.029 A 
ATOM     28  C   UNL d   1       4.580  -6.355   0.000  0.00  0.00     0.028 A 
ENDBRANCH  23  24
ENDBRANCH  22  23
ENDBRANCH   3  22
TORSDOF 6
