REMARK  7 active torsions:
REMARK  status: ('A' for Active; 'I' for Inactive)
REMARK    1  A    between atoms: C_4  and  C_1 
REMARK    2  A    between atoms: N_5  and  C_3 
REMARK    3  A    between atoms: C_9  and  C_4 
REMARK       I    between atoms: C_7  and  N_5 
REMARK    4  A    between atoms: C_10  and  C_7 
REMARK       I    between atoms: N_19  and  C_9 
REMARK    5  A    between atoms: C_21  and  N_19 
REMARK    6  A    between atoms: C_24  and  C_21 
REMARK    7  A    between atoms: C_23  and  C_24 
ROOT
ATOM      1  C   UNL d   1       4.593  -1.855   0.000  0.00  0.00     0.144 C 
ATOM      2  C   UNL d   1       3.776  -1.755   0.000  0.00  0.00     0.107 C 
ATOM      3  N   UNL d   1       2.963  -1.663   0.000  0.00  0.00    -0.191 NA
ENDROOT
BRANCH   1   4
ATOM      4  C   UNL d   1       4.926  -2.617   0.000  0.00  0.00     0.097 A 
ATOM      5  N   UNL d   1       5.718  -2.851   0.000  0.00  0.00    -0.226 NA
ATOM      6  C   UNL d   1       5.743  -3.676   0.000  0.00  0.00     0.166 A 
ATOM      7  C   UNL d   1       4.968  -3.955   0.000  0.00  0.00     0.037 A 
ATOM      8  C   UNL d   1       4.455  -3.305   0.000  0.00  0.00     0.021 A 
ATOM      9  C   UNL d   1       4.655  -4.718   0.000  0.00  0.00     0.003 A 
ATOM     10  C   UNL d   1       3.643  -3.418   0.000  0.00  0.00     0.002 A 
ATOM     11  C   UNL d   1       3.330  -4.180   0.000  0.00  0.00     0.000 A 
ATOM     12  C   UNL d   1       3.843  -4.830   0.000  0.00  0.00     0.000 A 
BRANCH   6  13
ATOM     13  N   UNL d   1       6.393  -4.168   0.000  0.00  0.00    -0.189 NA
ATOM     14  C   UNL d   1       6.418  -5.001   0.000  0.00  0.00     0.286 C 
ATOM     15  O   UNL d   1       5.706  -5.414   0.000  0.00  0.00    -0.265 OA
BRANCH  14  16
ATOM     16  C   UNL d   1       7.131  -5.414   0.000  0.00  0.00     0.087 A 
ATOM     17  S   UNL d   1       7.131  -6.239   0.000  0.00  0.00    -0.082 SA
ATOM     18  C   UNL d   1       7.919  -6.489   0.000  0.00  0.00     0.036 A 
ATOM     19  C   UNL d   1       8.402  -5.818   0.000  0.00  0.00     0.008 A 
ATOM     20  C   UNL d   1       7.915  -5.155   0.000  0.00  0.00     0.012 A 
ENDBRANCH  14  16
ENDBRANCH   6  13
ENDBRANCH   1   4
BRANCH   1  21
ATOM     21  C   UNL d   1       5.089  -1.192   0.000  0.00  0.00     0.290 C 
ATOM     22  O   UNL d   1       5.906  -1.288   0.000  0.00  0.00    -0.264 OA
ATOM     23  N   UNL d   1       4.768  -0.438   0.000  0.00  0.00    -0.206 NA
BRANCH  23  24
ATOM     24  C   UNL d   1       3.951  -0.342   0.000  0.00  0.00     0.102 C 
BRANCH  24  25
ATOM     25  C   UNL d   1       3.305  -0.854   0.000  0.00  0.00     0.021 C 
BRANCH  25  26
ATOM     26  C   UNL d   1       2.538  -0.554   0.000  0.00  0.00     0.002 A 
ATOM     27  C   UNL d   1       2.413   0.263   0.000  0.00  0.00     0.000 A 
ATOM     28  C   UNL d   1       1.642   0.558   0.000  0.00  0.00     0.000 A 
ATOM     29  C   UNL d   1       0.992   0.046   0.000  0.00  0.00     0.000 A 
ATOM     30  C   UNL d   1       1.129  -0.779   0.000  0.00  0.00     0.000 A 
ATOM     31  C   UNL d   1       1.892  -1.075   0.000  0.00  0.00     0.000 A 
ENDBRANCH  25  26
ENDBRANCH  24  25
ENDBRANCH  23  24
ENDBRANCH   1  21
TORSDOF 7
