REMARK  4 active torsions:
REMARK  status: ('A' for Active; 'I' for Inactive)
REMARK    1  A    between atoms: S_4  and  C_3 
REMARK    2  A    between atoms: C_12  and  S_4 
REMARK    3  A    between atoms: C_23  and  N_6 
REMARK    4  A    between atoms: C_27  and  C_23 
ROOT
ATOM      1  C   UNL d   1       1.192  -2.462   0.000  0.00  0.00     0.155 A 
ATOM      2  C   UNL d   1       1.192  -1.642   0.000  0.00  0.00     0.092 A 
ATOM      3  C   UNL d   1       2.616  -1.650   0.000  0.00  0.00     0.124 A 
ATOM      4  N   UNL d   1       0.479  -2.875   0.000  0.00  0.00    -0.210 NA
ATOM      5  N   UNL d   1       1.900  -2.875   0.000  0.00  0.00    -0.273 N 
ATOM      6  C   UNL d   1       2.616  -2.466   0.000  0.00  0.00     0.181 A 
ATOM      7  C   UNL d   1       0.479  -1.225   0.000  0.00  0.00     0.269 A 
ATOM      8  N   UNL d   1      -0.233  -1.637   0.000  0.00  0.00    -0.258 N 
ATOM      9  C   UNL d   1       1.904  -1.229   0.000  0.00  0.00     0.022 A 
ATOM     10  C   UNL d   1      -0.233  -2.462   0.000  0.00  0.00     0.152 A 
ATOM     11  N   UNL d   1       3.329  -2.887   0.000  0.00  0.00    -0.128 N 
ATOM     12  C   UNL d   1      -0.946  -1.217   0.000  0.00  0.00     0.084 A 
ATOM     13  O   UNL d   1       0.487  -0.400   0.000  0.00  0.00    -0.266 OA
ATOM     14  C   UNL d   1      -0.946  -2.866   0.000  0.00  0.00     0.038 A 
ATOM     15  C   UNL d   1      -1.650  -1.637   0.000  0.00  0.00     0.019 A 
ATOM     16  C   UNL d   1      -1.650  -2.462   0.000  0.00  0.00     0.005 A 
ENDROOT
BRANCH   3  17
ATOM     17  S   UNL d   1       3.337  -1.237   0.000  0.00  0.00     0.213 S 
ATOM     18  O   UNL d   1       3.741  -1.950   0.000  0.00  0.00    -0.217 OA
ATOM     19  O   UNL d   1       2.917  -0.517   0.000  0.00  0.00    -0.217 OA
BRANCH  17  20
ATOM     20  C   UNL d   1       4.050  -0.817   0.000  0.00  0.00     0.088 A 
ATOM     21  C   UNL d   1       4.037   0.008   0.000  0.00  0.00     0.011 A 
ATOM     22  C   UNL d   1       4.741   0.425   0.000  0.00  0.00     0.001 A 
ATOM     23  C   UNL d   1       4.729   1.250   0.000  0.00  0.00     0.000 C 
ATOM     24  C   UNL d   1       5.466   0.021   0.000  0.00  0.00     0.000 A 
ATOM     25  C   UNL d   1       5.479  -0.804   0.000  0.00  0.00     0.001 A 
ATOM     26  C   UNL d   1       6.179   0.446   0.000  0.00  0.00     0.000 C 
ATOM     27  C   UNL d   1       4.766  -1.229   0.000  0.00  0.00     0.011 A 
ENDBRANCH  17  20
ENDBRANCH   3  17
BRANCH   5  28
ATOM     28  C   UNL d   1       1.891  -3.700   0.000  0.00  0.00     0.083 C 
BRANCH  28  29
ATOM     29  C   UNL d   1       2.604  -4.116   0.000  0.00  0.00     0.019 C 
ATOM     30  C   UNL d   1       2.604  -4.941   0.000  0.00  0.00     0.002 C 
ENDBRANCH  28  29
ENDBRANCH   5  28
TORSDOF 4
