REMARK  3 active torsions:
REMARK  status: ('A' for Active; 'I' for Inactive)
REMARK    1  A    between atoms: C_13  and  N_3 
REMARK    2  A    between atoms: C_10  and  C_6 
REMARK    3  A    between atoms: C_11  and  C_8 
ROOT
ATOM      1  C   UNL d   1       5.617  -8.193   0.000  0.00  0.00     0.167 A 
ATOM      2  C   UNL d   1       5.617  -7.363   0.000  0.00  0.00     0.056 A 
ATOM      3  N   UNL d   1       6.405  -8.455   0.000  0.00  0.00    -0.212 N 
ATOM      4  N   UNL d   1       6.901  -7.780   0.000  0.00  0.00    -0.164 NA
ATOM      5  N   UNL d   1       4.901  -8.601   0.000  0.00  0.00    -0.206 NA
ATOM      6  C   UNL d   1       4.905  -6.951   0.000  0.00  0.00     0.015 A 
ATOM      7  C   UNL d   1       6.413  -7.105   0.000  0.00  0.00     0.104 A 
ATOM      8  C   UNL d   1       4.192  -7.355   0.000  0.00  0.00     0.059 A 
ATOM      9  C   UNL d   1       4.192  -8.180   0.000  0.00  0.00     0.187 A 
ATOM     10  N   UNL d   1       3.479  -8.588   0.000  0.00  0.00    -0.127 N 
ATOM     11  C   UNL d   1       6.667  -6.326   0.000  0.00  0.00     0.023 C 
ENDROOT
BRANCH   3  12
ATOM     12  C   UNL d   1       6.655  -9.243   0.000  0.00  0.00     0.085 A 
ATOM     13  C   UNL d   1       6.101  -9.851   0.000  0.00  0.00     0.019 A 
ATOM     14  C   UNL d   1       6.351 -10.630   0.000  0.00  0.00     0.002 A 
ATOM     15  C   UNL d   1       7.155 -10.813   0.000  0.00  0.00     0.000 A 
ATOM     16  C   UNL d   1       7.717 -10.201   0.000  0.00  0.00     0.002 A 
ATOM     17  C   UNL d   1       7.405 -11.601   0.000  0.00  0.00     0.000 C 
ATOM     18  C   UNL d   1       7.463  -9.418   0.000  0.00  0.00     0.019 A 
ENDBRANCH   3  12
BRANCH   6  19
ATOM     19  C   UNL d   1       4.913  -6.126   0.000  0.00  0.00     0.030 A 
ATOM     20  S   UNL d   1       5.580  -5.642   0.000  0.00  0.00    -0.086 SA
ATOM     21  C   UNL d   1       5.330  -4.855   0.000  0.00  0.00     0.035 A 
ATOM     22  C   UNL d   1       4.505  -4.855   0.000  0.00  0.00     0.007 A 
ATOM     23  C   UNL d   1       4.242  -5.630   0.000  0.00  0.00     0.007 A 
ENDBRANCH   6  19
BRANCH   8  24
ATOM     24  C   UNL d   1       3.479  -6.942   0.000  0.00  0.00     0.125 C 
ATOM     25  N   UNL d   1       2.767  -7.355   0.000  0.00  0.00    -0.146 N 
ENDBRANCH   8  24
TORSDOF 3
