REMARK  5 active torsions:
REMARK  status: ('A' for Active; 'I' for Inactive)
REMARK    1  A    between atoms: C_4  and  N_1 
REMARK    2  A    between atoms: C_9  and  C_2 
REMARK    3  A    between atoms: C_14  and  C_6 
REMARK    4  A    between atoms: C_7  and  C_9 
REMARK    5  A    between atoms: O_26  and  C_22 
ROOT
ATOM      1  N   UNL d   1       4.638  -3.219   0.000  0.00  0.00    -0.254 N 
ATOM      2  C   UNL d   1       3.557  -4.008   0.000  0.00  0.00     0.101 A 
ATOM      3  C   UNL d   1       3.970  -2.734   0.000  0.00  0.00     0.305 A 
ATOM      4  C   UNL d   1       3.298  -3.219   0.000  0.00  0.00     0.256 A 
ATOM      5  C   UNL d   1       4.383  -4.008   0.000  0.00  0.00     0.081 A 
ATOM      6  O   UNL d   1       3.962  -1.908   0.000  0.00  0.00    -0.263 OA
ATOM      7  O   UNL d   1       2.509  -2.960   0.000  0.00  0.00    -0.281 OA
ENDROOT
BRANCH   2   8
ATOM      8  C   UNL d   1       3.068  -4.676   0.000  0.00  0.00     0.223 C 
ATOM      9  O   UNL d   1       3.398  -5.427   0.000  0.00  0.00    -0.284 OA
BRANCH   8  10
ATOM     10  C   UNL d   1       2.246  -4.588   0.000  0.00  0.00     0.139 A 
ATOM     11  O   UNL d   1       1.695  -5.202   0.000  0.00  0.00    -0.302 OA
ATOM     12  C   UNL d   1       0.939  -4.863   0.000  0.00  0.00     0.122 A 
ATOM     13  C   UNL d   1       0.188  -5.197   0.000  0.00  0.00     0.117 A 
ATOM     14  C   UNL d   1       1.027  -4.045   0.000  0.00  0.00     0.027 A 
ATOM     15  C   UNL d   1      -0.476  -4.713   0.000  0.00  0.00     0.026 A 
ATOM     16  C   UNL d   1      -0.388  -3.886   0.000  0.00  0.00     0.002 A 
ATOM     17  C   UNL d   1       0.363  -3.557   0.000  0.00  0.00     0.002 A 
ATOM     18  C   UNL d   1       1.833  -3.874   0.000  0.00  0.00     0.030 A 
BRANCH  13  19
ATOM     19  O   UNL d   1       0.100  -6.016   0.000  0.00  0.00    -0.326 OA
ATOM     20  C   UNL d   1      -0.659  -6.354   0.000  0.00  0.00     0.181 C 
ENDBRANCH  13  19
ENDBRANCH   8  10
ENDBRANCH   2   8
BRANCH   5  21
ATOM     21  C   UNL d   1       4.863  -4.676   0.000  0.00  0.00     0.046 A 
ATOM     22  S   UNL d   1       5.690  -4.676   0.000  0.00  0.00    -0.085 SA
ATOM     23  C   UNL d   1       5.949  -5.460   0.000  0.00  0.00     0.035 A 
ATOM     24  C   UNL d   1       5.277  -5.949   0.000  0.00  0.00     0.007 A 
ATOM     25  C   UNL d   1       4.613  -5.460   0.000  0.00  0.00     0.009 A 
ENDBRANCH   5  21
BRANCH   1  26
ATOM     26  C   UNL d   1       5.222  -2.630   0.000  0.00  0.00     0.179 A 
ATOM     27  N   UNL d   1       6.041  -2.747   0.000  0.00  0.00    -0.108 NA
ATOM     28  O   UNL d   1       6.412  -2.004   0.000  0.00  0.00    -0.210 OA
ATOM     29  C   UNL d   1       5.815  -1.419   0.000  0.00  0.00     0.128 A 
ATOM     30  C   UNL d   1       5.085  -1.803   0.000  0.00  0.00     0.067 A 
ATOM     31  C   UNL d   1       5.940  -0.605   0.000  0.00  0.00     0.029 C 
ENDBRANCH   1  26
TORSDOF 5
