REMARK  1 active torsions:
REMARK  status: ('A' for Active; 'I' for Inactive)
REMARK    1  A    between atoms: C_11  and  N_5 
ROOT
ATOM      1  C   UNL d   1       5.365  -3.311   0.000  0.00  0.00     0.130 A 
ATOM      2  C   UNL d   1       5.370  -4.137   0.000  0.00  0.00     0.157 A 
ATOM      3  N   UNL d   1       6.079  -4.544   0.000  0.00  0.00    -0.210 NA
ATOM      4  C   UNL d   1       6.075  -2.892   0.000  0.00  0.00     0.272 A 
ATOM      5  N   UNL d   1       6.789  -3.299   0.000  0.00  0.00    -0.259 N 
ATOM      6  C   UNL d   1       4.647  -2.905   0.000  0.00  0.00     0.204 A 
ATOM      7  N   UNL d   1       4.660  -4.548   0.000  0.00  0.00    -0.289 N 
ATOM      8  C   UNL d   1       6.797  -4.125   0.000  0.00  0.00     0.152 A 
ATOM      9  C   UNL d   1       3.946  -3.316   0.000  0.00  0.00     0.055 A 
ATOM     10  C   UNL d   1       3.946  -4.137   0.000  0.00  0.00     0.069 A 
ATOM     11  O   UNL d   1       6.067  -2.071   0.000  0.00  0.00    -0.266 OA
ATOM     12  O   UNL d   1       4.647  -2.083   0.000  0.00  0.00    -0.286 OA
ATOM     13  C   UNL d   1       4.660  -5.370   0.000  0.00  0.00     0.101 C 
ATOM     14  C   UNL d   1       7.511  -4.535   0.000  0.00  0.00     0.041 C 
ATOM     15  C   UNL d   1       3.228  -2.905   0.000  0.00  0.00     0.005 A 
ATOM     16  C   UNL d   1       3.228  -4.556   0.000  0.00  0.00     0.018 A 
ATOM     17  C   UNL d   1       2.519  -3.324   0.000  0.00  0.00     0.000 A 
ATOM     18  C   UNL d   1       2.519  -4.145   0.000  0.00  0.00     0.002 A 
ENDROOT
BRANCH   5  19
ATOM     19  C   UNL d   1       7.498  -2.876   0.000  0.00  0.00     0.068 A 
ATOM     20  C   UNL d   1       7.494  -2.046   0.000  0.00  0.00     0.020 A 
ATOM     21  C   UNL d   1       8.204  -1.623   0.000  0.00  0.00     0.031 A 
ATOM     22  C   UNL d   1       8.926  -2.021   0.000  0.00  0.00     0.140 A 
ATOM     23  C   UNL d   1       8.938  -2.855   0.000  0.00  0.00     0.031 A 
ATOM     24  F   UNL d   1       9.639  -1.598   0.000  0.00  0.00    -0.204 F 
ATOM     25  C   UNL d   1       8.220  -3.278   0.000  0.00  0.00     0.020 A 
ENDBRANCH   5  19
TORSDOF 1
