REMARK  4 active torsions:
REMARK  status: ('A' for Active; 'I' for Inactive)
REMARK    1  A    between atoms: N_5  and  C_1 
REMARK    2  A    between atoms: C_10  and  C_2 
REMARK    3  A    between atoms: C_12  and  N_3 
REMARK       I    between atoms: C_8  and  N_5 
REMARK    4  A    between atoms: C_9  and  C_8 
ROOT
ATOM      1  C   UNL d   1       6.270  -5.465   0.000  0.00  0.00     0.170 A 
ATOM      2  C   UNL d   1       5.782  -6.132   0.000  0.00  0.00     0.076 A 
ATOM      3  N   UNL d   1       7.095  -5.557   0.000  0.00  0.00    -0.212 N 
ATOM      4  N   UNL d   1       7.421  -6.316   0.000  0.00  0.00    -0.161 NA
ATOM      5  C   UNL d   1       6.116  -6.891   0.000  0.00  0.00     0.218 A 
ATOM      6  C   UNL d   1       6.933  -6.983   0.000  0.00  0.00     0.140 A 
ATOM      7  O   UNL d   1       5.628  -7.558   0.000  0.00  0.00    -0.285 OA
ATOM      8  C   UNL d   1       7.258  -7.746   0.000  0.00  0.00     0.026 C 
ENDROOT
BRANCH   1   9
ATOM      9  N   UNL d   1       5.945  -4.715   0.000  0.00  0.00    -0.188 NA
ATOM     10  C   UNL d   1       5.282  -4.219   0.000  0.00  0.00     0.286 C 
ATOM     11  O   UNL d   1       4.532  -4.557   0.000  0.00  0.00    -0.265 OA
BRANCH  10  12
ATOM     12  C   UNL d   1       5.378  -3.406   0.000  0.00  0.00     0.087 A 
ATOM     13  S   UNL d   1       6.095  -2.993   0.000  0.00  0.00    -0.082 SA
ATOM     14  C   UNL d   1       5.920  -2.189   0.000  0.00  0.00     0.036 A 
ATOM     15  C   UNL d   1       5.107  -2.093   0.000  0.00  0.00     0.008 A 
ATOM     16  C   UNL d   1       4.765  -2.852   0.000  0.00  0.00     0.012 A 
ENDBRANCH  10  12
ENDBRANCH   1   9
BRANCH   2  17
ATOM     17  C   UNL d   1       4.965  -6.045   0.000  0.00  0.00     0.006 A 
ATOM     18  C   UNL d   1       4.482  -6.708   0.000  0.00  0.00     0.001 A 
ATOM     19  C   UNL d   1       3.656  -6.620   0.000  0.00  0.00     0.011 A 
ATOM     20  C   UNL d   1       3.327  -5.866   0.000  0.00  0.00     0.058 A 
ATOM     21  C   UNL d   1       3.814  -5.194   0.000  0.00  0.00     0.011 A 
ATOM     22 CL   UNL d   1       2.506  -5.782   0.000  0.00  0.00    -0.082 Cl
ATOM     23  C   UNL d   1       4.632  -5.290   0.000  0.00  0.00     0.001 A 
ENDBRANCH   2  17
BRANCH   3  24
ATOM     24  C   UNL d   1       7.583  -4.894   0.000  0.00  0.00     0.085 A 
ATOM     25  C   UNL d   1       8.404  -4.990   0.000  0.00  0.00     0.019 A 
ATOM     26  C   UNL d   1       8.896  -4.319   0.000  0.00  0.00     0.002 A 
ATOM     27  C   UNL d   1       8.567  -3.569   0.000  0.00  0.00     0.000 A 
ATOM     28  C   UNL d   1       7.742  -3.481   0.000  0.00  0.00     0.002 A 
ATOM     29  C   UNL d   1       7.254  -4.144   0.000  0.00  0.00     0.019 A 
ENDBRANCH   3  24
TORSDOF 4
