REMARK  4 active torsions:
REMARK  status: ('A' for Active; 'I' for Inactive)
REMARK    1  A    between atoms: S_6  and  C_1 
REMARK    2  A    between atoms: C_9  and  N_2 
REMARK    3  A    between atoms: C_15  and  S_6 
REMARK    4  A    between atoms: C_14  and  C_9 
ROOT
ATOM      1  C   UNL d   1       5.760  -2.907   0.000  0.00  0.00     0.145 A 
ATOM      2  N   UNL d   1       5.760  -4.233   0.000  0.00  0.00    -0.270 N 
ATOM      3  C   UNL d   1       4.971  -3.157   0.000  0.00  0.00     0.130 A 
ATOM      4  C   UNL d   1       6.248  -3.570   0.000  0.00  0.00     0.183 A 
ATOM      5  C   UNL d   1       4.971  -3.983   0.000  0.00  0.00     0.168 A 
ATOM      6  N   UNL d   1       4.258  -2.744   0.000  0.00  0.00    -0.240 NA
ATOM      7  N   UNL d   1       4.258  -4.396   0.000  0.00  0.00    -0.225 NA
ATOM      8  C   UNL d   1       3.545  -3.157   0.000  0.00  0.00     0.099 A 
ATOM      9  C   UNL d   1       3.545  -3.983   0.000  0.00  0.00     0.101 A 
ATOM     10  N   UNL d   1       7.073  -3.583   0.000  0.00  0.00    -0.128 N 
ATOM     11  C   UNL d   1       2.832  -2.744   0.000  0.00  0.00     0.021 A 
ATOM     12  C   UNL d   1       2.832  -4.396   0.000  0.00  0.00     0.021 A 
ATOM     13  C   UNL d   1       2.119  -3.983   0.000  0.00  0.00     0.002 A 
ATOM     14  C   UNL d   1       2.119  -3.157   0.000  0.00  0.00     0.002 A 
ENDROOT
BRANCH   1  15
ATOM     15  S   UNL d   1       6.010  -2.119   0.000  0.00  0.00     0.214 S 
ATOM     16  O   UNL d   1       6.698  -2.569   0.000  0.00  0.00    -0.217 OA
ATOM     17  O   UNL d   1       5.317  -1.668   0.000  0.00  0.00    -0.217 OA
BRANCH  15  18
ATOM     18  C   UNL d   1       6.273  -1.339   0.000  0.00  0.00     0.088 A 
ATOM     19  C   UNL d   1       7.098  -1.268   0.000  0.00  0.00     0.011 A 
ATOM     20  C   UNL d   1       7.444  -0.513   0.000  0.00  0.00     0.001 A 
ATOM     21  C   UNL d   1       6.969   0.163   0.000  0.00  0.00     0.000 A 
ATOM     22  C   UNL d   1       6.147   0.088   0.000  0.00  0.00     0.001 A 
ATOM     23  C   UNL d   1       5.797  -0.663   0.000  0.00  0.00     0.011 A 
ENDBRANCH  15  18
ENDBRANCH   1  15
BRANCH   2  24
ATOM     24  C   UNL d   1       6.010  -5.021   0.000  0.00  0.00     0.108 C 
BRANCH  24  25
ATOM     25  C   UNL d   1       6.811  -5.197   0.000  0.00  0.00     0.118 A 
ATOM     26  O   UNL d   1       7.136  -5.947   0.000  0.00  0.00    -0.304 OA
ATOM     27  C   UNL d   1       7.962  -5.872   0.000  0.00  0.00     0.123 A 
ATOM     28  C   UNL d   1       8.137  -5.072   0.000  0.00  0.00     0.029 A 
ATOM     29  C   UNL d   1       7.424  -4.659   0.000  0.00  0.00     0.028 A 
ENDBRANCH  24  25
ENDBRANCH   2  24
TORSDOF 4
