REMARK  5 active torsions:
REMARK  status: ('A' for Active; 'I' for Inactive)
REMARK    1  A    between atoms: S_5  and  C_3 
REMARK    2  A    between atoms: C_13  and  S_5 
REMARK    3  A    between atoms: C_23  and  N_7 
REMARK    4  A    between atoms: C_30  and  C_23 
REMARK    5  A    between atoms: O_29  and  C_30 
ROOT
ATOM      1  C   UNL d   1       5.128  -4.761   0.000  0.00  0.00     0.155 A 
ATOM      2  C   UNL d   1       5.136  -3.945   0.000  0.00  0.00     0.092 A 
ATOM      3  C   UNL d   1       6.550  -3.959   0.000  0.00  0.00     0.124 A 
ATOM      4  N   UNL d   1       4.421  -5.168   0.000  0.00  0.00    -0.210 NA
ATOM      5  N   UNL d   1       3.714  -3.945   0.000  0.00  0.00    -0.258 N 
ATOM      6  N   UNL d   1       5.830  -5.182   0.000  0.00  0.00    -0.271 N 
ATOM      7  C   UNL d   1       3.714  -4.761   0.000  0.00  0.00     0.152 A 
ATOM      8  C   UNL d   1       6.541  -4.774   0.000  0.00  0.00     0.181 A 
ATOM      9  C   UNL d   1       4.430  -3.533   0.000  0.00  0.00     0.269 A 
ATOM     10  C   UNL d   1       5.843  -3.538   0.000  0.00  0.00     0.022 A 
ATOM     11  C   UNL d   1       3.008  -5.168   0.000  0.00  0.00     0.035 A 
ATOM     12  C   UNL d   1       3.008  -3.533   0.000  0.00  0.00     0.084 A 
ATOM     13  N   UNL d   1       7.261  -5.205   0.000  0.00  0.00    -0.128 N 
ATOM     14  O   UNL d   1       4.430  -2.695   0.000  0.00  0.00    -0.266 OA
ATOM     15  C   UNL d   1       2.301  -3.945   0.000  0.00  0.00     0.019 A 
ATOM     16  C   UNL d   1       2.301  -4.761   0.000  0.00  0.00     0.005 A 
ATOM     17  C   UNL d   1       3.008  -6.006   0.000  0.00  0.00     0.003 C 
ENDROOT
BRANCH   3  18
ATOM     18  S   UNL d   1       7.274  -3.551   0.000  0.00  0.00     0.213 S 
ATOM     19  O   UNL d   1       7.696  -4.271   0.000  0.00  0.00    -0.217 OA
ATOM     20  O   UNL d   1       6.862  -2.831   0.000  0.00  0.00    -0.217 OA
BRANCH  18  21
ATOM     21  C   UNL d   1       7.995  -3.130   0.000  0.00  0.00     0.088 A 
ATOM     22  C   UNL d   1       8.715  -3.538   0.000  0.00  0.00     0.014 A 
ATOM     23  C   UNL d   1       9.431  -3.116   0.000  0.00  0.00     0.030 A 
ATOM     24  C   UNL d   1       9.422  -2.283   0.000  0.00  0.00     0.140 A 
ATOM     25  C   UNL d   1       8.688  -1.875   0.000  0.00  0.00     0.030 A 
ATOM     26  F   UNL d   1      10.142  -1.853   0.000  0.00  0.00    -0.204 F 
ATOM     27  C   UNL d   1       7.981  -2.301   0.000  0.00  0.00     0.014 A 
ENDBRANCH  18  21
ENDBRANCH   3  18
BRANCH   6  28
ATOM     28  C   UNL d   1       5.821  -6.011   0.000  0.00  0.00     0.109 C 
BRANCH  28  29
ATOM     29  C   UNL d   1       5.096  -6.418   0.000  0.00  0.00     0.135 C 
BRANCH  29  30
ATOM     30  O   UNL d   1       5.087  -7.256   0.000  0.00  0.00    -0.325 OA
ATOM     31  C   UNL d   1       4.362  -7.664   0.000  0.00  0.00     0.182 C 
ENDBRANCH  29  30
ENDBRANCH  28  29
ENDBRANCH   6  28
TORSDOF 5
