REMARK  2 active torsions:
REMARK  status: ('A' for Active; 'I' for Inactive)
REMARK    1  A    between atoms: S_5  and  C_3 
REMARK    2  A    between atoms: C_12  and  S_5 
ROOT
ATOM      1  C   UNL d   1       5.059  -2.652   0.000  0.00  0.00     0.155 A 
ATOM      2  C   UNL d   1       5.064  -1.836   0.000  0.00  0.00     0.092 A 
ATOM      3  C   UNL d   1       6.478  -1.841   0.000  0.00  0.00     0.124 A 
ATOM      4  N   UNL d   1       4.343  -3.060   0.000  0.00  0.00    -0.210 NA
ATOM      5  N   UNL d   1       5.757  -3.064   0.000  0.00  0.00    -0.272 N 
ATOM      6  C   UNL d   1       6.473  -2.666   0.000  0.00  0.00     0.181 A 
ATOM      7  C   UNL d   1       4.356  -1.419   0.000  0.00  0.00     0.269 A 
ATOM      8  N   UNL d   1       3.645  -1.827   0.000  0.00  0.00    -0.258 N 
ATOM      9  C   UNL d   1       5.771  -1.428   0.000  0.00  0.00     0.022 A 
ATOM     10  C   UNL d   1       3.645  -2.652   0.000  0.00  0.00     0.152 A 
ATOM     11  N   UNL d   1       7.185  -3.092   0.000  0.00  0.00    -0.128 N 
ATOM     12  C   UNL d   1       2.929  -1.419   0.000  0.00  0.00     0.084 A 
ATOM     13  O   UNL d   1       4.356  -0.585   0.000  0.00  0.00    -0.266 OA
ATOM     14  C   UNL d   1       2.929  -3.060   0.000  0.00  0.00     0.038 A 
ATOM     15  C   UNL d   1       2.230  -1.827   0.000  0.00  0.00     0.019 A 
ATOM     16  C   UNL d   1       2.230  -2.652   0.000  0.00  0.00     0.005 A 
ATOM     17  C   UNL d   1       5.753  -3.903   0.000  0.00  0.00     0.102 C 
ENDROOT
BRANCH   3  18
ATOM     18  S   UNL d   1       7.199  -1.433   0.000  0.00  0.00     0.213 S 
ATOM     19  O   UNL d   1       7.620  -2.153   0.000  0.00  0.00    -0.217 OA
ATOM     20  O   UNL d   1       6.791  -0.712   0.000  0.00  0.00    -0.217 OA
BRANCH  18  21
ATOM     21  C   UNL d   1       7.920  -1.011   0.000  0.00  0.00     0.088 A 
ATOM     22  C   UNL d   1       8.640  -1.419   0.000  0.00  0.00     0.014 A 
ATOM     23  C   UNL d   1       9.361  -0.997   0.000  0.00  0.00     0.030 A 
ATOM     24  C   UNL d   1       9.357  -0.168   0.000  0.00  0.00     0.140 A 
ATOM     25  C   UNL d   1       8.622   0.240   0.000  0.00  0.00     0.030 A 
ATOM     26  F   UNL d   1      10.068   0.258   0.000  0.00  0.00    -0.204 F 
ATOM     27  C   UNL d   1       7.906  -0.181   0.000  0.00  0.00     0.014 A 
ENDBRANCH  18  21
ENDBRANCH   3  18
TORSDOF 2
