REMARK  5 active torsions:
REMARK  status: ('A' for Active; 'I' for Inactive)
REMARK    1  A    between atoms: C_16  and  N_5 
REMARK    2  A    between atoms: C_15  and  C_6 
REMARK    3  A    between atoms: C_19  and  C_16 
REMARK    4  A    between atoms: O_20  and  C_17 
REMARK    5  A    between atoms: C_22  and  C_19 
ROOT
ATOM      1  O   UNL d   1       5.197   1.105   0.000  0.00  0.00    -0.326 OA
ATOM      2  C   UNL d   1       5.201   0.274   0.000  0.00  0.00     0.118 C 
ATOM      3  C   UNL d   1       5.189   1.932   0.000  0.00  0.00     0.181 C 
ENDROOT
BRANCH   2   4
ATOM      4  C   UNL d   1       5.799  -0.303   0.000  0.00  0.00     0.045 C 
BRANCH   4   5
ATOM      5  C   UNL d   1       5.812  -1.138   0.000  0.00  0.00     0.086 C 
BRANCH   5   6
ATOM      6  N   UNL d   1       5.089  -1.558   0.000  0.00  0.00    -0.258 N 
ATOM      7  C   UNL d   1       4.374  -1.151   0.000  0.00  0.00     0.272 A 
ATOM      8  C   UNL d   1       3.664  -1.570   0.000  0.00  0.00     0.137 A 
ATOM      9  O   UNL d   1       4.366  -0.328   0.000  0.00  0.00    -0.266 OA
ATOM     10  C   UNL d   1       3.668  -2.397   0.000  0.00  0.00     0.192 A 
ATOM     11  C   UNL d   1       2.945  -1.163   0.000  0.00  0.00     0.205 A 
ATOM     12  N   UNL d   1       4.378  -2.804   0.000  0.00  0.00    -0.204 NA
ATOM     13  O   UNL d   1       2.958  -2.808   0.000  0.00  0.00    -0.289 OA
ATOM     14  C   UNL d   1       5.097  -2.385   0.000  0.00  0.00     0.152 A 
ATOM     15  C   UNL d   1       2.243  -2.397   0.000  0.00  0.00     0.107 A 
ATOM     16  C   UNL d   1       2.243  -1.575   0.000  0.00  0.00     0.062 A 
ATOM     17  C   UNL d   1       1.525  -2.817   0.000  0.00  0.00     0.049 A 
ATOM     18  C   UNL d   1       1.525  -1.163   0.000  0.00  0.00     0.007 A 
ATOM     19  C   UNL d   1       0.814  -1.583   0.000  0.00  0.00     0.024 A 
ATOM     20  C   UNL d   1       0.814  -2.405   0.000  0.00  0.00     0.096 A 
ATOM     21  O   UNL d   1       2.945  -0.341   0.000  0.00  0.00    -0.286 OA
BRANCH  14  22
ATOM     22  C   UNL d   1       5.812  -2.796   0.000  0.00  0.00     0.035 A 
ATOM     23  C   UNL d   1       6.522  -2.372   0.000  0.00  0.00     0.003 A 
ATOM     24  C   UNL d   1       7.232  -2.783   0.000  0.00  0.00     0.000 A 
ATOM     25  C   UNL d   1       7.241  -3.606   0.000  0.00  0.00     0.000 A 
ATOM     26  C   UNL d   1       6.530  -4.025   0.000  0.00  0.00     0.000 A 
ATOM     27  C   UNL d   1       5.820  -3.618   0.000  0.00  0.00     0.003 A 
ENDBRANCH  14  22
BRANCH  20  28
ATOM     28  O   UNL d   1       0.104  -2.808   0.000  0.00  0.00    -0.328 OA
ATOM     29  C   UNL d   1       0.104  -3.631   0.000  0.00  0.00     0.181 C 
ENDBRANCH  20  28
ENDBRANCH   5   6
ENDBRANCH   4   5
ENDBRANCH   2   4
TORSDOF 5
