REMARK  5 active torsions:
REMARK  status: ('A' for Active; 'I' for Inactive)
REMARK    1  A    between atoms: N_5  and  C_1 
REMARK    2  A    between atoms: N_8  and  C_2 
REMARK    3  A    between atoms: C_26  and  N_4 
REMARK    4  A    between atoms: C_22  and  N_9 
REMARK    5  A    between atoms: C_21  and  C_22 
ROOT
ATOM      1  C   UNL d   1       2.842  -2.000   0.000  0.00  0.00     0.199 A 
ATOM      2  C   UNL d   1       2.850  -1.167   0.000  0.00  0.00     0.092 A 
ATOM      3  C   UNL d   1       2.129  -2.413   0.000  0.00  0.00     0.288 A 
ATOM      4  N   UNL d   1       1.413  -1.992   0.000  0.00  0.00    -0.272 N 
ATOM      5  C   UNL d   1       2.129  -0.754   0.000  0.00  0.00     0.034 A 
ATOM      6  C   UNL d   1       1.413  -1.167   0.000  0.00  0.00     0.068 A 
ATOM      7  O   UNL d   1       2.129  -3.237   0.000  0.00  0.00    -0.265 OA
ATOM      8  C   UNL d   1       2.129   0.071   0.000  0.00  0.00     0.003 A 
ATOM      9  C   UNL d   1       0.700  -0.754   0.000  0.00  0.00     0.018 A 
ATOM     10  C   UNL d   1       1.413   0.483   0.000  0.00  0.00     0.000 A 
ATOM     11  C   UNL d   1       0.700   0.071   0.000  0.00  0.00     0.002 A 
ENDROOT
BRANCH   2  12
ATOM     12  N   UNL d   1       3.554  -0.754   0.000  0.00  0.00    -0.300 N 
ATOM     13  C   UNL d   1       4.267  -1.167   0.000  0.00  0.00     0.100 A 
ATOM     14  C   UNL d   1       4.987  -0.754   0.000  0.00  0.00     0.100 A 
ATOM     15  N   UNL d   1       4.992   0.071   0.000  0.00  0.00    -0.300 N 
ATOM     16  C   UNL d   1       4.275   0.487   0.000  0.00  0.00     0.100 A 
ATOM     17  C   UNL d   1       3.562   0.071   0.000  0.00  0.00     0.100 A 
BRANCH  15  18
ATOM     18  C   UNL d   1       5.704   0.483   0.000  0.00  0.00     0.080 C 
BRANCH  18  19
ATOM     19  C   UNL d   1       6.417   0.071   0.000  0.00  0.00     0.020 A 
ATOM     20  C   UNL d   1       7.129   0.483   0.000  0.00  0.00     0.028 A 
ATOM     21  C   UNL d   1       7.842   0.071   0.000  0.00  0.00     0.119 A 
ATOM     22  O   UNL d   1       8.625   0.325   0.000  0.00  0.00    -0.300 OA
ATOM     23  C   UNL d   1       7.842  -0.754   0.000  0.00  0.00     0.119 A 
ATOM     24  C   UNL d   1       9.113  -0.342   0.000  0.00  0.00     0.304 A 
ATOM     25  O   UNL d   1       8.629  -1.012   0.000  0.00  0.00    -0.300 OA
ATOM     26  C   UNL d   1       7.125  -1.167   0.000  0.00  0.00     0.026 A 
ATOM     27  C   UNL d   1       6.412  -0.754   0.000  0.00  0.00     0.004 A 
ENDBRANCH  18  19
ENDBRANCH  15  18
ENDBRANCH   2  12
BRANCH   1  28
ATOM     28  N   UNL d   1       3.562  -2.413   0.000  0.00  0.00    -0.107 N 
ATOM     29  O   UNL d   1       3.562  -3.237   0.000  0.00  0.00    -0.531 OA
ATOM     30  O   UNL d   1       4.279  -2.000   0.000  0.00  0.00    -0.531 OA
ENDBRANCH   1  28
BRANCH   4  31
ATOM     31  C   UNL d   1       0.700  -2.404   0.000  0.00  0.00     0.083 C 
ATOM     32  C   UNL d   1      -0.021  -1.992   0.000  0.00  0.00     0.021 C 
ENDBRANCH   4  31
TORSDOF 5
