REMARK  3 active torsions:
REMARK  status: ('A' for Active; 'I' for Inactive)
REMARK    1  A    between atoms: N_5  and  C_1 
REMARK    2  A    between atoms: C_9  and  C_2 
REMARK       I    between atoms: C_8  and  N_5 
REMARK    3  A    between atoms: C_10  and  C_8 
ROOT
ATOM      1  C   UNL d   1       6.088  -2.892   0.000  0.00  0.00     0.155 A 
ATOM      2  C   UNL d   1       6.088  -2.067   0.000  0.00  0.00     0.080 A 
ATOM      3  N   UNL d   1       5.367  -3.304   0.000  0.00  0.00    -0.289 N 
ATOM      4  C   UNL d   1       5.367  -1.654   0.000  0.00  0.00     0.200 A 
ATOM      5  C   UNL d   1       4.654  -2.067   0.000  0.00  0.00     0.055 A 
ATOM      6  C   UNL d   1       4.654  -2.892   0.000  0.00  0.00     0.069 A 
ATOM      7  O   UNL d   1       5.367  -0.825   0.000  0.00  0.00    -0.286 OA
ATOM      8  C   UNL d   1       5.367  -4.129   0.000  0.00  0.00     0.101 C 
ATOM      9  C   UNL d   1       3.942  -1.654   0.000  0.00  0.00     0.005 A 
ATOM     10  C   UNL d   1       3.950  -3.304   0.000  0.00  0.00     0.018 A 
ATOM     11  C   UNL d   1       3.229  -2.067   0.000  0.00  0.00     0.000 A 
ATOM     12  C   UNL d   1       3.229  -2.892   0.000  0.00  0.00     0.002 A 
ENDROOT
BRANCH   1  13
ATOM     13  N   UNL d   1       6.812  -3.312   0.000  0.00  0.00    -0.190 NA
ATOM     14  C   UNL d   1       6.829  -4.142   0.000  0.00  0.00     0.286 C 
ATOM     15  O   UNL d   1       6.117  -4.550   0.000  0.00  0.00    -0.265 OA
BRANCH  14  16
ATOM     16  C   UNL d   1       7.542  -4.554   0.000  0.00  0.00     0.087 A 
ATOM     17  S   UNL d   1       7.542  -5.379   0.000  0.00  0.00    -0.082 SA
ATOM     18  C   UNL d   1       8.329  -5.629   0.000  0.00  0.00     0.036 A 
ATOM     19  C   UNL d   1       8.817  -4.963   0.000  0.00  0.00     0.008 A 
ATOM     20  C   UNL d   1       8.329  -4.292   0.000  0.00  0.00     0.012 A 
ENDBRANCH  14  16
ENDBRANCH   1  13
BRANCH   2  21
ATOM     21  C   UNL d   1       6.800  -1.654   0.000  0.00  0.00     0.035 A 
ATOM     22  S   UNL d   1       7.554  -1.992   0.000  0.00  0.00    -0.086 SA
ATOM     23  C   UNL d   1       8.104  -1.375   0.000  0.00  0.00     0.035 A 
ATOM     24  C   UNL d   1       7.692  -0.654   0.000  0.00  0.00     0.007 A 
ATOM     25  C   UNL d   1       6.888  -0.838   0.000  0.00  0.00     0.007 A 
ENDBRANCH   2  21
TORSDOF 3
