REMARK  4 active torsions:
REMARK  status: ('A' for Active; 'I' for Inactive)
REMARK    1  A    between atoms: C_14  and  N_3 
REMARK    2  A    between atoms: C_9  and  C_5 
REMARK    3  A    between atoms: C_19  and  C_14 
REMARK    4  A    between atoms: C_23  and  C_19 
ROOT
ATOM      1  C   UNL d   1       3.346  -1.812   0.000  0.00  0.00     0.083 A 
ATOM      2  C   UNL d   1       3.355  -2.635   0.000  0.00  0.00     0.161 A 
ATOM      3  N   UNL d   1       4.627  -2.220   0.000  0.00  0.00    -0.272 N 
ATOM      4  C   UNL d   1       4.144  -2.893   0.000  0.00  0.00     0.288 A 
ATOM      5  C   UNL d   1       4.132  -1.551   0.000  0.00  0.00     0.072 A 
ATOM      6  C   UNL d   1       2.631  -1.401   0.000  0.00  0.00     0.201 A 
ATOM      7  O   UNL d   1       2.635  -3.055   0.000  0.00  0.00    -0.302 OA
ATOM      8  C   UNL d   1       1.921  -1.821   0.000  0.00  0.00     0.062 A 
ATOM      9  C   UNL d   1       1.925  -2.644   0.000  0.00  0.00     0.103 A 
ATOM     10  O   UNL d   1       4.402  -3.671   0.000  0.00  0.00    -0.264 OA
ATOM     11  O   UNL d   1       2.623  -0.578   0.000  0.00  0.00    -0.286 OA
ATOM     12  C   UNL d   1       1.201  -1.409   0.000  0.00  0.00     0.005 A 
ATOM     13  C   UNL d   1       1.201  -3.059   0.000  0.00  0.00     0.025 A 
ATOM     14  C   UNL d   1       0.491  -1.821   0.000  0.00  0.00     0.000 A 
ATOM     15  C   UNL d   1       0.491  -2.648   0.000  0.00  0.00     0.002 A 
ENDROOT
BRANCH   5  16
ATOM     16  C   UNL d   1       4.128  -0.728   0.000  0.00  0.00     0.019 A 
ATOM     17  C   UNL d   1       4.839  -0.303   0.000  0.00  0.00     0.031 A 
ATOM     18  C   UNL d   1       4.830   0.520   0.000  0.00  0.00     0.140 A 
ATOM     19  F   UNL d   1       5.541   0.935   0.000  0.00  0.00    -0.204 F 
ATOM     20  C   UNL d   1       4.107   0.931   0.000  0.00  0.00     0.030 A 
ATOM     21  C   UNL d   1       3.396   0.507   0.000  0.00  0.00     0.002 A 
ATOM     22  C   UNL d   1       3.409  -0.324   0.000  0.00  0.00     0.002 A 
ENDBRANCH   5  16
BRANCH   3  23
ATOM     23  C   UNL d   1       5.450  -2.212   0.000  0.00  0.00     0.086 C 
BRANCH  23  24
ATOM     24  C   UNL d   1       5.865  -2.922   0.000  0.00  0.00     0.065 C 
BRANCH  24  25
ATOM     25  C   UNL d   1       6.689  -2.918   0.000  0.00  0.00     0.236 C 
ATOM     26  O   UNL d   1       7.100  -3.621   0.000  0.00  0.00    -0.283 OA
ENDBRANCH  24  25
ENDBRANCH  23  24
ENDBRANCH   3  23
TORSDOF 4
