REMARK  2 active torsions:
REMARK  status: ('A' for Active; 'I' for Inactive)
REMARK    1  A    between atoms: C_6  and  C_1 
REMARK    2  A    between atoms: C_8  and  N_3 
REMARK       I    between atoms: N_7  and  C_6 
ROOT
ATOM      1  C   UNL d   1       5.527  -7.430   0.000  0.00  0.00     0.124 A 
ATOM      2  C   UNL d   1       5.527  -8.269   0.000  0.00  0.00     0.181 A 
ATOM      3  N   UNL d   1       6.328  -8.520   0.000  0.00  0.00    -0.276 N 
ATOM      4  C   UNL d   1       6.812  -7.852   0.000  0.00  0.00     0.152 A 
ATOM      5  S   UNL d   1       6.328  -7.167   0.000  0.00  0.00    -0.051 SA
ATOM      6  S   UNL d   1       7.630  -7.852   0.000  0.00  0.00    -0.052 SA
ATOM      7  N   UNL d   1       4.813  -8.678   0.000  0.00  0.00    -0.128 N 
ENDROOT
BRANCH   1   8
ATOM      8  C   UNL d   1       4.825  -7.004   0.000  0.00  0.00     0.274 C 
ATOM      9  N   UNL d   1       4.107  -7.405   0.000  0.00  0.00    -0.267 N 
ATOM     10  C   UNL d   1       4.082  -8.244   0.000  0.00  0.00     0.110 A 
ATOM     11  C   UNL d   1       3.385  -6.979   0.000  0.00  0.00     0.110 A 
ATOM     12  C   UNL d   1       3.348  -8.641   0.000  0.00  0.00     0.142 A 
ATOM     13  O   UNL d   1       2.647  -8.207   0.000  0.00  0.00    -0.300 OA
ATOM     14  C   UNL d   1       2.667  -7.380   0.000  0.00  0.00     0.142 A 
ATOM     15  O   UNL d   1       4.838  -6.186   0.000  0.00  0.00    -0.266 OA
ENDBRANCH   1   8
BRANCH   3  16
ATOM     16  C   UNL d   1       6.579  -9.317   0.000  0.00  0.00     0.067 A 
ATOM     17  C   UNL d   1       6.028  -9.922   0.000  0.00  0.00     0.018 A 
ATOM     18  C   UNL d   1       6.290 -10.719   0.000  0.00  0.00     0.002 A 
ATOM     19  C   UNL d   1       7.088 -10.886   0.000  0.00  0.00     0.000 A 
ATOM     20  C   UNL d   1       7.643 -10.268   0.000  0.00  0.00     0.002 A 
ATOM     21  C   UNL d   1       7.342 -11.671   0.000  0.00  0.00     0.000 C 
ATOM     22  C   UNL d   1       7.393  -9.484   0.000  0.00  0.00     0.018 A 
ENDBRANCH   3  16
TORSDOF 2
