REMARK  5 active torsions:
REMARK  status: ('A' for Active; 'I' for Inactive)
REMARK    1  A    between atoms: C_9  and  N_1 
REMARK    2  A    between atoms: C_6  and  C_2 
REMARK    3  A    between atoms: O_10  and  C_6 
REMARK    4  A    between atoms: C_13  and  C_9 
REMARK    5  A    between atoms: C_19  and  O_10 
ROOT
ATOM      1  N   UNL d   1       2.758  -2.259   0.000  0.00  0.00    -0.271 N 
ATOM      2  C   UNL d   1       2.272  -1.022   0.000  0.00  0.00     0.120 A 
ATOM      3  C   UNL d   1       2.970  -1.462   0.000  0.00  0.00     0.177 A 
ATOM      4  C   UNL d   1       1.935  -2.309   0.000  0.00  0.00     0.167 A 
ATOM      5  C   UNL d   1       1.636  -1.549   0.000  0.00  0.00     0.124 A 
ATOM      6  N   UNL d   1       1.425  -2.957   0.000  0.00  0.00    -0.225 NA
ATOM      7  N   UNL d   1       0.822  -1.425   0.000  0.00  0.00    -0.241 NA
ATOM      8  C   UNL d   1       0.615  -2.841   0.000  0.00  0.00     0.101 A 
ATOM      9  C   UNL d   1       0.316  -2.072   0.000  0.00  0.00     0.099 A 
ATOM     10  N   UNL d   1       3.742  -1.163   0.000  0.00  0.00    -0.128 N 
ATOM     11  C   UNL d   1       0.112  -3.489   0.000  0.00  0.00     0.021 A 
ATOM     12  C   UNL d   1      -0.507  -1.960   0.000  0.00  0.00     0.021 A 
ATOM     13  C   UNL d   1      -0.710  -3.368   0.000  0.00  0.00     0.002 A 
ATOM     14  C   UNL d   1      -1.005  -2.608   0.000  0.00  0.00     0.002 A 
ENDROOT
BRANCH   2  15
ATOM     15  C   UNL d   1       2.222  -0.191   0.000  0.00  0.00     0.300 C 
ATOM     16  O   UNL d   1       1.495   0.174   0.000  0.00  0.00    -0.259 OA
BRANCH  15  17
ATOM     17  O   UNL d   1       2.920   0.262   0.000  0.00  0.00    -0.303 OA
BRANCH  17  18
ATOM     18  C   UNL d   1       2.866   1.084   0.000  0.00  0.00     0.102 C 
ATOM     19  C   UNL d   1       2.035   1.034   0.000  0.00  0.00     0.030 C 
ATOM     20  C   UNL d   1       3.692   1.142   0.000  0.00  0.00     0.030 C 
ATOM     21  C   UNL d   1       2.816   1.915   0.000  0.00  0.00     0.030 C 
ENDBRANCH  17  18
ENDBRANCH  15  17
ENDBRANCH   2  15
BRANCH   1  22
ATOM     22  C   UNL d   1       3.281  -2.895   0.000  0.00  0.00     0.108 C 
BRANCH  22  23
ATOM     23  C   UNL d   1       4.099  -2.758   0.000  0.00  0.00     0.118 A 
ATOM     24  O   UNL d   1       4.685  -3.339   0.000  0.00  0.00    -0.304 OA
ATOM     25  C   UNL d   1       5.420  -2.953   0.000  0.00  0.00     0.123 A 
ATOM     26  C   UNL d   1       5.274  -2.147   0.000  0.00  0.00     0.029 A 
ATOM     27  C   UNL d   1       4.465  -2.023   0.000  0.00  0.00     0.028 A 
ENDBRANCH  22  23
ENDBRANCH   1  22
TORSDOF 5
