REMARK  9 active torsions:
REMARK  status: ('A' for Active; 'I' for Inactive)
REMARK    1  A    between atoms: C_6  and  N_1 
REMARK    2  A    between atoms: C_7  and  C_2 
REMARK    3  A    between atoms: C_3  and  C_9 
REMARK    4  A    between atoms: O_5  and  C_3 
REMARK    5  A    between atoms: C_4  and  O_5 
REMARK    6  A    between atoms: C_8  and  C_7 
REMARK    7  A    between atoms: C_12  and  C_8 
REMARK    8  A    between atoms: C_10  and  C_12 
REMARK    9  A    between atoms: O_25  and  C_23 
ROOT
ATOM      1  C   UNL d   1       0.800  -3.167   0.000  0.00  0.00     0.064 A 
ATOM      2  C   UNL d   1       0.800  -2.342   0.000  0.00  0.00     0.106 A 
ATOM      3  C   UNL d   1       0.079  -3.579   0.000  0.00  0.00     0.029 A 
ATOM      4  C   UNL d   1       0.079  -1.929   0.000  0.00  0.00     0.027 A 
ATOM      5  C   UNL d   1      -0.633  -3.167   0.000  0.00  0.00     0.094 A 
ATOM      6  C   UNL d   1      -0.633  -2.342   0.000  0.00  0.00     0.026 A 
ENDROOT
BRANCH   2   7
ATOM      7  O   UNL d   1       1.512  -1.925   0.000  0.00  0.00    -0.273 OA
BRANCH   7   8
ATOM      8  C   UNL d   1       1.504  -1.100   0.000  0.00  0.00     0.300 C 
ATOM      9  O   UNL d   1       0.792  -0.692   0.000  0.00  0.00    -0.259 OA
BRANCH   8  10
ATOM     10  C   UNL d   1       2.217  -0.688   0.000  0.00  0.00     0.065 A 
ATOM     11  C   UNL d   1       2.212   0.133   0.000  0.00  0.00     0.029 A 
ATOM     12  C   UNL d   1       2.917   0.550   0.000  0.00  0.00     0.127 A 
ATOM     13  C   UNL d   1       3.642   0.146   0.000  0.00  0.00     0.024 A 
ATOM     14  C   UNL d   1       3.642  -0.679   0.000  0.00  0.00     0.002 A 
ATOM     15  C   UNL d   1       2.929  -1.100   0.000  0.00  0.00     0.005 A 
BRANCH  12  16
ATOM     16  N   UNL d   1       2.917   1.383   0.000  0.00  0.00    -0.114 N 
ATOM     17  O   UNL d   1       3.625   1.796   0.000  0.00  0.00    -0.532 OA
ATOM     18  O   UNL d   1       2.192   1.783   0.000  0.00  0.00    -0.532 OA
ENDBRANCH  12  16
ENDBRANCH   8  10
ENDBRANCH   7   8
ENDBRANCH   2   7
BRANCH   1  19
ATOM     19  C   UNL d   1       1.517  -3.579   0.000  0.00  0.00     0.198 C 
ATOM     20  O   UNL d   1       1.517  -4.404   0.000  0.00  0.00    -0.286 OA
BRANCH  19  21
ATOM     21  C   UNL d   1       2.229  -3.167   0.000  0.00  0.00     0.043 C 
BRANCH  21  22
ATOM     22  C   UNL d   1       2.942  -3.579   0.000  0.00  0.00     0.010 C 
BRANCH  22  23
ATOM     23  C   UNL d   1       3.654  -3.167   0.000  0.00  0.00     0.030 A 
ATOM     24  S   UNL d   1       4.412  -3.492   0.000  0.00  0.00    -0.086 SA
ATOM     25  C   UNL d   1       4.963  -2.879   0.000  0.00  0.00     0.035 A 
ATOM     26  C   UNL d   1       4.550  -2.167   0.000  0.00  0.00     0.007 A 
ATOM     27  C   UNL d   1       3.742  -2.342   0.000  0.00  0.00     0.007 A 
ENDBRANCH  22  23
ENDBRANCH  21  22
ENDBRANCH  19  21
ENDBRANCH   1  19
BRANCH   5  28
ATOM     28  O   UNL d   1      -1.346  -3.579   0.000  0.00  0.00    -0.328 OA
ATOM     29  C   UNL d   1      -2.058  -3.167   0.000  0.00  0.00     0.181 C 
ENDBRANCH   5  28
TORSDOF 9
