REMARK  3 active torsions:
REMARK  status: ('A' for Active; 'I' for Inactive)
REMARK    1  A    between atoms: C_16  and  N_3 
REMARK    2  A    between atoms: C_10  and  C_5 
REMARK    3  A    between atoms: C_26  and  C_16 
ROOT
ATOM      1  C   UNL d   1       3.345  -1.812   0.000  0.00  0.00     0.083 A 
ATOM      2  C   UNL d   1       3.353  -2.635   0.000  0.00  0.00     0.161 A 
ATOM      3  N   UNL d   1       4.625  -2.219   0.000  0.00  0.00    -0.268 N 
ATOM      4  C   UNL d   1       4.143  -2.892   0.000  0.00  0.00     0.288 A 
ATOM      5  C   UNL d   1       4.131  -1.550   0.000  0.00  0.00     0.072 A 
ATOM      6  C   UNL d   1       2.631  -1.401   0.000  0.00  0.00     0.201 A 
ATOM      7  O   UNL d   1       2.635  -3.054   0.000  0.00  0.00    -0.302 OA
ATOM      8  C   UNL d   1       1.920  -1.820   0.000  0.00  0.00     0.062 A 
ATOM      9  C   UNL d   1       1.924  -2.643   0.000  0.00  0.00     0.103 A 
ATOM     10  O   UNL d   1       4.401  -3.669   0.000  0.00  0.00    -0.264 OA
ATOM     11  O   UNL d   1       2.622  -0.578   0.000  0.00  0.00    -0.286 OA
ATOM     12  C   UNL d   1       1.201  -1.409   0.000  0.00  0.00     0.012 A 
ATOM     13  C   UNL d   1       1.201  -3.058   0.000  0.00  0.00     0.025 A 
ATOM     14  C   UNL d   1       0.490  -1.820   0.000  0.00  0.00     0.035 A 
ATOM     15  C   UNL d   1       0.490  -2.647   0.000  0.00  0.00     0.009 A 
ATOM     16 BR   UNL d   1      -0.220  -1.413   0.000  0.00  0.00    -0.049 Br
ENDROOT
BRANCH   5  17
ATOM     17  C   UNL d   1       4.127  -0.727   0.000  0.00  0.00     0.019 A 
ATOM     18  C   UNL d   1       4.837  -0.303   0.000  0.00  0.00     0.031 A 
ATOM     19  C   UNL d   1       4.829   0.519   0.000  0.00  0.00     0.140 A 
ATOM     20  F   UNL d   1       5.539   0.935   0.000  0.00  0.00    -0.204 F 
ATOM     21  C   UNL d   1       4.106   0.931   0.000  0.00  0.00     0.030 A 
ATOM     22  C   UNL d   1       3.395   0.507   0.000  0.00  0.00     0.002 A 
ATOM     23  C   UNL d   1       3.408  -0.324   0.000  0.00  0.00     0.002 A 
ENDBRANCH   5  17
BRANCH   3  24
ATOM     24  C   UNL d   1       5.448  -2.211   0.000  0.00  0.00     0.129 C 
BRANCH  24  25
ATOM     25  C   UNL d   1       5.864  -2.921   0.000  0.00  0.00     0.253 C 
ATOM     26  O   UNL d   1       6.686  -2.917   0.000  0.00  0.00    -0.281 OA
ENDBRANCH  24  25
ENDBRANCH   3  24
TORSDOF 3
