REMARK  5 active torsions:
REMARK  status: ('A' for Active; 'I' for Inactive)
REMARK    1  A    between atoms: C_3  and  C_1 
REMARK    2  A    between atoms: S_2  and  C_3 
REMARK    3  A    between atoms: C_8  and  S_2 
REMARK    4  A    between atoms: C_9  and  C_3 
REMARK    5  A    between atoms: N_7  and  C_4 
ROOT
ATOM      1  C   UNL d   1       3.741  -1.304   0.000  0.00  0.00     0.128 A 
ATOM      2  C   UNL d   1       3.741  -2.125   0.000  0.00  0.00     0.166 A 
ATOM      3  N   UNL d   1       3.030  -0.888   0.000  0.00  0.00    -0.240 NA
ATOM      4  N   UNL d   1       3.030  -2.537   0.000  0.00  0.00    -0.225 NA
ATOM      5  C   UNL d   1       2.323  -1.304   0.000  0.00  0.00     0.099 A 
ATOM      6  C   UNL d   1       2.314  -2.125   0.000  0.00  0.00     0.101 A 
ATOM      7  C   UNL d   1       1.603  -2.529   0.000  0.00  0.00     0.021 A 
ATOM      8  C   UNL d   1       1.607  -0.888   0.000  0.00  0.00     0.021 A 
ATOM      9  C   UNL d   1       0.896  -2.121   0.000  0.00  0.00     0.002 A 
ATOM     10  C   UNL d   1       0.900  -1.300   0.000  0.00  0.00     0.002 A 
ENDROOT
BRANCH   1  11
ATOM     11  C   UNL d   1       4.448  -0.888   0.000  0.00  0.00     0.129 C 
BRANCH  11  12
ATOM     12  S   UNL d   1       4.410   0.000   0.000  0.00  0.00     0.213 S 
ATOM     13  O   UNL d   1       5.180   0.442   0.000  0.00  0.00    -0.217 OA
ATOM     14  O   UNL d   1       5.218  -0.194   0.000  0.00  0.00    -0.217 OA
BRANCH  12  15
ATOM     15  C   UNL d   1       3.779   0.543   0.000  0.00  0.00     0.088 A 
ATOM     16  C   UNL d   1       3.943   1.359   0.000  0.00  0.00     0.011 A 
ATOM     17  C   UNL d   1       3.312   1.894   0.000  0.00  0.00     0.001 A 
ATOM     18  C   UNL d   1       3.463   2.701   0.000  0.00  0.00     0.000 C 
ATOM     19  C   UNL d   1       2.529   1.624   0.000  0.00  0.00     0.000 A 
ATOM     20  C   UNL d   1       2.377   0.804   0.000  0.00  0.00     0.001 A 
ATOM     21  C   UNL d   1       3.009   0.274   0.000  0.00  0.00     0.011 A 
ENDBRANCH  12  15
ENDBRANCH  11  12
BRANCH  11  22
ATOM     22  C   UNL d   1       5.264  -1.178   0.000  0.00  0.00     0.135 C 
ATOM     23  N   UNL d   1       6.013  -0.707   0.000  0.00  0.00    -0.146 N 
ENDBRANCH  11  22
ENDBRANCH   1  11
BRANCH   2  24
ATOM     24  N   UNL d   1       4.460  -2.537   0.000  0.00  0.00    -0.284 N 
ATOM     25  C   UNL d   1       5.180  -2.112   0.000  0.00  0.00     0.108 A 
ATOM     26  C   UNL d   1       5.900  -2.537   0.000  0.00  0.00     0.142 A 
ATOM     27  O   UNL d   1       5.900  -3.371   0.000  0.00  0.00    -0.300 OA
ATOM     28  C   UNL d   1       5.180  -3.779   0.000  0.00  0.00     0.142 A 
ATOM     29  C   UNL d   1       4.460  -3.371   0.000  0.00  0.00     0.108 A 
ENDBRANCH   2  24
TORSDOF 5
