REMARK  5 active torsions:
REMARK  status: ('A' for Active; 'I' for Inactive)
REMARK    1  A    between atoms: C_12  and  N_3 
REMARK    2  A    between atoms: C_11  and  C_5 
REMARK       I    between atoms: N_16  and  C_11 
REMARK    3  A    between atoms: C_15  and  C_12 
REMARK    4  A    between atoms: C_26  and  N_16 
REMARK    5  A    between atoms: C_27  and  C_26 
ROOT
ATOM      1  C   UNL d   1       4.309  -3.858   0.000  0.00  0.00     0.155 A 
ATOM      2  C   UNL d   1       4.309  -3.023   0.000  0.00  0.00     0.091 A 
ATOM      3  N   UNL d   1       5.023  -4.263   0.000  0.00  0.00    -0.272 N 
ATOM      4  N   UNL d   1       3.595  -4.263   0.000  0.00  0.00    -0.210 NA
ATOM      5  C   UNL d   1       5.741  -3.023   0.000  0.00  0.00     0.094 A 
ATOM      6  C   UNL d   1       5.741  -3.850   0.000  0.00  0.00     0.175 A 
ATOM      7  C   UNL d   1       3.595  -2.610   0.000  0.00  0.00     0.269 A 
ATOM      8  N   UNL d   1       2.881  -3.031   0.000  0.00  0.00    -0.258 N 
ATOM      9  C   UNL d   1       2.885  -3.858   0.000  0.00  0.00     0.152 A 
ATOM     10  C   UNL d   1       5.023  -2.610   0.000  0.00  0.00     0.016 A 
ATOM     11  N   UNL d   1       6.455  -4.263   0.000  0.00  0.00    -0.128 N 
ATOM     12  C   UNL d   1       2.167  -2.610   0.000  0.00  0.00     0.084 A 
ATOM     13  O   UNL d   1       3.587  -1.783   0.000  0.00  0.00    -0.266 OA
ATOM     14  C   UNL d   1       2.167  -4.263   0.000  0.00  0.00     0.038 A 
ATOM     15  C   UNL d   1       1.457  -3.031   0.000  0.00  0.00     0.019 A 
ATOM     16  C   UNL d   1       1.457  -3.858   0.000  0.00  0.00     0.005 A 
ENDROOT
BRANCH   5  17
ATOM     17  C   UNL d   1       6.455  -2.610   0.000  0.00  0.00     0.282 C 
ATOM     18  N   UNL d   1       7.169  -3.023   0.000  0.00  0.00    -0.206 NA
ATOM     19  O   UNL d   1       6.455  -1.783   0.000  0.00  0.00    -0.265 OA
BRANCH  18  20
ATOM     20  C   UNL d   1       7.891  -2.610   0.000  0.00  0.00     0.102 C 
BRANCH  20  21
ATOM     21  C   UNL d   1       8.605  -3.023   0.000  0.00  0.00     0.019 A 
ATOM     22  C   UNL d   1       8.605  -3.850   0.000  0.00  0.00     0.002 A 
ATOM     23  C   UNL d   1       9.319  -4.263   0.000  0.00  0.00     0.000 A 
ATOM     24  C   UNL d   1      10.037  -3.850   0.000  0.00  0.00     0.000 A 
ATOM     25  C   UNL d   1      10.033  -3.023   0.000  0.00  0.00     0.000 A 
ATOM     26  C   UNL d   1      10.751  -4.263   0.000  0.00  0.00     0.000 C 
ATOM     27  C   UNL d   1       9.319  -2.610   0.000  0.00  0.00     0.002 A 
ENDBRANCH  20  21
ENDBRANCH  18  20
ENDBRANCH   5  17
BRANCH   3  28
ATOM     28  C   UNL d   1       5.023  -5.090   0.000  0.00  0.00     0.107 C 
BRANCH  28  29
ATOM     29  C   UNL d   1       5.737  -5.503   0.000  0.00  0.00     0.118 A 
ATOM     30  O   UNL d   1       6.555  -5.465   0.000  0.00  0.00    -0.304 OA
ATOM     31  C   UNL d   1       6.856  -6.230   0.000  0.00  0.00     0.123 A 
ATOM     32  C   UNL d   1       6.217  -6.752   0.000  0.00  0.00     0.029 A 
ATOM     33  C   UNL d   1       5.524  -6.305   0.000  0.00  0.00     0.028 A 
ENDBRANCH  28  29
ENDBRANCH   3  28
TORSDOF 5
