REMARK  4 active torsions:
REMARK  status: ('A' for Active; 'I' for Inactive)
REMARK    1  A    between atoms: C_11  and  N_2 
REMARK    2  A    between atoms: C_12  and  C_6 
REMARK    3  A    between atoms: C_15  and  C_11 
REMARK    4  A    between atoms: O_29  and  C_24 
ROOT
ATOM      1  C   UNL d   1       3.305  -1.571   0.000  0.00  0.00     0.137 A 
ATOM      2  N   UNL d   1       4.731  -1.559   0.000  0.00  0.00    -0.256 N 
ATOM      3  C   UNL d   1       3.309  -2.399   0.000  0.00  0.00     0.192 A 
ATOM      4  C   UNL d   1       4.016  -1.151   0.000  0.00  0.00     0.272 A 
ATOM      5  N   UNL d   1       4.020  -2.806   0.000  0.00  0.00    -0.204 NA
ATOM      6  C   UNL d   1       4.739  -2.386   0.000  0.00  0.00     0.152 A 
ATOM      7  C   UNL d   1       2.586  -1.164   0.000  0.00  0.00     0.205 A 
ATOM      8  C   UNL d   1       1.883  -1.575   0.000  0.00  0.00     0.062 A 
ATOM      9  O   UNL d   1       2.598  -2.810   0.000  0.00  0.00    -0.289 OA
ATOM     10  C   UNL d   1       1.883  -2.399   0.000  0.00  0.00     0.107 A 
ATOM     11  C   UNL d   1       1.164  -2.818   0.000  0.00  0.00     0.049 A 
ATOM     12  C   UNL d   1       1.164  -1.164   0.000  0.00  0.00     0.007 A 
ATOM     13  O   UNL d   1       4.007  -0.328   0.000  0.00  0.00    -0.266 OA
ATOM     14  O   UNL d   1       2.586  -0.341   0.000  0.00  0.00    -0.286 OA
ATOM     15  C   UNL d   1       0.453  -2.407   0.000  0.00  0.00     0.096 A 
ATOM     16  C   UNL d   1       0.453  -1.584   0.000  0.00  0.00     0.024 A 
ENDROOT
BRANCH   6  17
ATOM     17  C   UNL d   1       5.454  -2.798   0.000  0.00  0.00     0.035 A 
ATOM     18  C   UNL d   1       5.454  -3.621   0.000  0.00  0.00     0.003 A 
ATOM     19  C   UNL d   1       6.173  -4.020   0.000  0.00  0.00     0.000 A 
ATOM     20  C   UNL d   1       6.884  -3.608   0.000  0.00  0.00     0.000 A 
ATOM     21  C   UNL d   1       6.876  -2.781   0.000  0.00  0.00     0.000 A 
ATOM     22  C   UNL d   1       7.599  -4.016   0.000  0.00  0.00     0.000 C 
ATOM     23  C   UNL d   1       6.161  -2.374   0.000  0.00  0.00     0.003 A 
ENDBRANCH   6  17
BRANCH   2  24
ATOM     24  C   UNL d   1       5.441  -1.139   0.000  0.00  0.00     0.109 C 
BRANCH  24  25
ATOM     25  C   UNL d   1       5.437  -0.303   0.000  0.00  0.00     0.118 A 
ATOM     26  O   UNL d   1       6.102   0.183   0.000  0.00  0.00    -0.304 OA
ATOM     27  C   UNL d   1       5.840   0.973   0.000  0.00  0.00     0.123 A 
ATOM     28  C   UNL d   1       5.005   0.969   0.000  0.00  0.00     0.029 A 
ATOM     29  C   UNL d   1       4.756   0.170   0.000  0.00  0.00     0.028 A 
ENDBRANCH  24  25
ENDBRANCH   2  24
BRANCH  15  30
ATOM     30  O   UNL d   1      -0.258  -2.810   0.000  0.00  0.00    -0.328 OA
ATOM     31  C   UNL d   1      -0.258  -3.633   0.000  0.00  0.00     0.181 C 
ENDBRANCH  15  30
TORSDOF 4
