REMARK  4 active torsions:
REMARK  status: ('A' for Active; 'I' for Inactive)
REMARK    1  A    between atoms: S_5  and  C_3 
REMARK    2  A    between atoms: C_12  and  S_5 
REMARK    3  A    between atoms: C_23  and  N_6 
REMARK    4  A    between atoms: C_28  and  C_23 
ROOT
ATOM      1  C   UNL d   1       5.154  -4.583   0.000  0.00  0.00     0.155 A 
ATOM      2  C   UNL d   1       5.159  -3.767   0.000  0.00  0.00     0.092 A 
ATOM      3  C   UNL d   1       6.573  -3.772   0.000  0.00  0.00     0.124 A 
ATOM      4  N   UNL d   1       4.438  -4.991   0.000  0.00  0.00    -0.210 NA
ATOM      5  N   UNL d   1       5.852  -4.995   0.000  0.00  0.00    -0.273 N 
ATOM      6  C   UNL d   1       6.569  -4.597   0.000  0.00  0.00     0.181 A 
ATOM      7  C   UNL d   1       4.452  -3.350   0.000  0.00  0.00     0.269 A 
ATOM      8  N   UNL d   1       3.740  -3.758   0.000  0.00  0.00    -0.258 N 
ATOM      9  C   UNL d   1       5.866  -3.359   0.000  0.00  0.00     0.022 A 
ATOM     10  C   UNL d   1       3.740  -4.583   0.000  0.00  0.00     0.152 A 
ATOM     11  N   UNL d   1       7.280  -5.023   0.000  0.00  0.00    -0.128 N 
ATOM     12  C   UNL d   1       3.024  -3.350   0.000  0.00  0.00     0.084 A 
ATOM     13  O   UNL d   1       4.452  -2.516   0.000  0.00  0.00    -0.266 OA
ATOM     14  C   UNL d   1       3.024  -4.991   0.000  0.00  0.00     0.038 A 
ATOM     15  C   UNL d   1       2.316  -3.758   0.000  0.00  0.00     0.019 A 
ATOM     16  C   UNL d   1       2.316  -4.583   0.000  0.00  0.00     0.005 A 
ENDROOT
BRANCH   3  17
ATOM     17  S   UNL d   1       7.294  -3.364   0.000  0.00  0.00     0.213 S 
ATOM     18  O   UNL d   1       7.715  -4.084   0.000  0.00  0.00    -0.217 OA
ATOM     19  O   UNL d   1       6.886  -2.643   0.000  0.00  0.00    -0.217 OA
BRANCH  17  20
ATOM     20  C   UNL d   1       8.015  -2.942   0.000  0.00  0.00     0.088 A 
ATOM     21  C   UNL d   1       8.735  -3.350   0.000  0.00  0.00     0.014 A 
ATOM     22  C   UNL d   1       9.456  -2.928   0.000  0.00  0.00     0.030 A 
ATOM     23  C   UNL d   1       9.451  -2.099   0.000  0.00  0.00     0.140 A 
ATOM     24  C   UNL d   1       8.717  -1.691   0.000  0.00  0.00     0.030 A 
ATOM     25  F   UNL d   1      10.163  -1.673   0.000  0.00  0.00    -0.204 F 
ATOM     26  C   UNL d   1       8.001  -2.112   0.000  0.00  0.00     0.014 A 
ENDBRANCH  17  20
ENDBRANCH   3  17
BRANCH   5  27
ATOM     27  C   UNL d   1       5.848  -5.834   0.000  0.00  0.00     0.083 C 
BRANCH  27  28
ATOM     28  C   UNL d   1       5.118  -6.242   0.000  0.00  0.00     0.019 C 
ATOM     29  C   UNL d   1       4.397  -5.821   0.000  0.00  0.00     0.002 C 
ENDBRANCH  27  28
ENDBRANCH   5  27
TORSDOF 4
