REMARK  4 active torsions:
REMARK  status: ('A' for Active; 'I' for Inactive)
REMARK    1  A    between atoms: C_6  and  N_1 
REMARK    2  A    between atoms: C_8  and  C_2 
REMARK    3  A    between atoms: C_16  and  C_5 
REMARK    4  A    between atoms: C_7  and  C_8 
ROOT
ATOM      1  N   UNL d   1       4.724  -5.204   0.000  0.00  0.00    -0.251 N 
ATOM      2  C   UNL d   1       6.056  -5.204   0.000  0.00  0.00     0.101 A 
ATOM      3  C   UNL d   1       4.980  -5.988   0.000  0.00  0.00     0.305 A 
ATOM      4  C   UNL d   1       5.809  -5.988   0.000  0.00  0.00     0.256 A 
ATOM      5  C   UNL d   1       5.392  -4.724   0.000  0.00  0.00     0.075 A 
ATOM      6  O   UNL d   1       4.496  -6.661   0.000  0.00  0.00    -0.263 OA
ATOM      7  O   UNL d   1       6.284  -6.661   0.000  0.00  0.00    -0.281 OA
ENDROOT
BRANCH   2   8
ATOM      8  C   UNL d   1       6.845  -4.953   0.000  0.00  0.00     0.223 C 
ATOM      9  O   UNL d   1       7.019  -4.146   0.000  0.00  0.00    -0.284 OA
BRANCH   8  10
ATOM     10  C   UNL d   1       7.454  -5.500   0.000  0.00  0.00     0.139 A 
ATOM     11  O   UNL d   1       8.261  -5.330   0.000  0.00  0.00    -0.304 OA
ATOM     12  C   UNL d   1       8.678  -6.042   0.000  0.00  0.00     0.100 A 
ATOM     13  C   UNL d   1       9.480  -6.204   0.000  0.00  0.00     0.025 A 
ATOM     14  C   UNL d   1       8.127  -6.647   0.000  0.00  0.00     0.025 A 
ATOM     15  C   UNL d   1       9.736  -6.984   0.000  0.00  0.00     0.002 A 
ATOM     16  C   UNL d   1       9.184  -7.602   0.000  0.00  0.00     0.000 A 
ATOM     17  C   UNL d   1       8.382  -7.427   0.000  0.00  0.00     0.002 A 
ATOM     18  C   UNL d   1       7.373  -6.320   0.000  0.00  0.00     0.030 A 
ENDBRANCH   8  10
ENDBRANCH   2   8
BRANCH   5  19
ATOM     19  C   UNL d   1       5.397  -3.891   0.000  0.00  0.00     0.017 A 
ATOM     20  C   UNL d   1       6.123  -3.483   0.000  0.00  0.00     0.002 A 
ATOM     21  C   UNL d   1       6.136  -2.654   0.000  0.00  0.00     0.000 A 
ATOM     22  C   UNL d   1       5.419  -2.223   0.000  0.00  0.00     0.000 A 
ATOM     23  C   UNL d   1       4.693  -2.640   0.000  0.00  0.00     0.000 A 
ATOM     24  C   UNL d   1       4.684  -3.474   0.000  0.00  0.00     0.002 A 
ENDBRANCH   5  19
BRANCH   1  25
ATOM     25  C   UNL d   1       3.945  -4.953   0.000  0.00  0.00     0.182 A 
ATOM     26  N   UNL d   1       3.272  -5.437   0.000  0.00  0.00    -0.220 NA
ATOM     27  C   UNL d   1       2.609  -4.953   0.000  0.00  0.00     0.108 A 
ATOM     28  C   UNL d   1       2.864  -4.169   0.000  0.00  0.00     0.059 A 
ATOM     29  S   UNL d   1       3.689  -4.169   0.000  0.00  0.00    -0.048 SA
ENDBRANCH   1  25
TORSDOF 4
