REMARK  6 active torsions:
REMARK  status: ('A' for Active; 'I' for Inactive)
REMARK    1  A    between atoms: C_7  and  C_2 
REMARK    2  A    between atoms: C_16  and  N_3 
REMARK    3  A    between atoms: O_17  and  C_9 
REMARK    4  A    between atoms: O_19  and  C_10 
REMARK    5  A    between atoms: O_18  and  C_11 
REMARK    6  A    between atoms: C_25  and  C_16 
ROOT
ATOM      1  N   UNL d   1       7.164  -4.938   0.000  0.00  0.00    -0.206 NA
ATOM      2  C   UNL d   1       7.068  -4.114   0.000  0.00  0.00     0.151 A 
ATOM      3  N   UNL d   1       7.824  -3.770   0.000  0.00  0.00    -0.273 N 
ATOM      4  C   UNL d   1       8.374  -4.384   0.000  0.00  0.00     0.185 A 
ATOM      5  C   UNL d   1       7.971  -5.103   0.000  0.00  0.00     0.199 A 
ATOM      6  N   UNL d   1       9.207  -4.384   0.000  0.00  0.00    -0.224 NA
ATOM      7  N   UNL d   1       8.387  -5.813   0.000  0.00  0.00    -0.223 NA
ATOM      8  C   UNL d   1       9.620  -5.098   0.000  0.00  0.00     0.101 A 
ATOM      9  C   UNL d   1       9.207  -5.813   0.000  0.00  0.00     0.101 A 
ATOM     10  C   UNL d   1      10.449  -5.089   0.000  0.00  0.00     0.021 A 
ATOM     11  C   UNL d   1       9.620  -6.519   0.000  0.00  0.00     0.021 A 
ATOM     12  C   UNL d   1      10.444  -6.519   0.000  0.00  0.00     0.002 A 
ATOM     13  C   UNL d   1      10.857  -5.804   0.000  0.00  0.00     0.002 A 
ENDROOT
BRANCH   2  14
ATOM     14  C   UNL d   1       6.354  -3.710   0.000  0.00  0.00     0.039 A 
ATOM     15  C   UNL d   1       6.354  -2.863   0.000  0.00  0.00     0.029 A 
ATOM     16  C   UNL d   1       5.639  -2.437   0.000  0.00  0.00     0.118 A 
ATOM     17  C   UNL d   1       4.920  -2.863   0.000  0.00  0.00     0.138 A 
ATOM     18  C   UNL d   1       4.920  -3.710   0.000  0.00  0.00     0.118 A 
ATOM     19  C   UNL d   1       5.639  -4.141   0.000  0.00  0.00     0.029 A 
BRANCH  16  20
ATOM     20  O   UNL d   1       5.639  -1.608   0.000  0.00  0.00    -0.326 OA
ATOM     21  C   UNL d   1       6.546  -1.086   0.000  0.00  0.00     0.181 C 
ENDBRANCH  16  20
BRANCH  17  22
ATOM     22  O   UNL d   1       4.205  -2.465   0.000  0.00  0.00    -0.324 OA
ATOM     23  C   UNL d   1       3.257  -2.987   0.000  0.00  0.00     0.182 C 
ENDBRANCH  17  22
BRANCH  18  24
ATOM     24  O   UNL d   1       4.205  -4.141   0.000  0.00  0.00    -0.326 OA
ATOM     25  C   UNL d   1       4.205  -5.250   0.000  0.00  0.00     0.181 C 
ENDBRANCH  18  24
ENDBRANCH   2  14
BRANCH   3  26
ATOM     26  C   UNL d   1       7.989  -2.968   0.000  0.00  0.00     0.083 C 
BRANCH  26  27
ATOM     27  C   UNL d   1       8.768  -2.707   0.000  0.00  0.00     0.019 C 
ATOM     28  C   UNL d   1       8.932  -1.901   0.000  0.00  0.00     0.002 C 
ENDBRANCH  26  27
ENDBRANCH   3  26
TORSDOF 6
