REMARK  4 active torsions:
REMARK  status: ('A' for Active; 'I' for Inactive)
REMARK    1  A    between atoms: C_11  and  N_2 
REMARK    2  A    between atoms: C_9  and  C_3 
REMARK    3  A    between atoms: C_12  and  C_11 
REMARK    4  A    between atoms: O_19  and  C_16 
ROOT
ATOM      1  N   UNL d   1       7.468  -3.010   0.000  0.00  0.00    -0.206 NA
ATOM      2  N   UNL d   1       6.807  -1.853   0.000  0.00  0.00    -0.273 N 
ATOM      3  C   UNL d   1       6.716  -2.674   0.000  0.00  0.00     0.151 A 
ATOM      4  C   UNL d   1       7.610  -1.684   0.000  0.00  0.00     0.185 A 
ATOM      5  C   UNL d   1       8.025  -2.401   0.000  0.00  0.00     0.199 A 
ATOM      6  N   UNL d   1       8.038  -0.963   0.000  0.00  0.00    -0.224 NA
ATOM      7  N   UNL d   1       8.841  -2.401   0.000  0.00  0.00    -0.223 NA
ATOM      8  C   UNL d   1       8.863  -0.976   0.000  0.00  0.00     0.101 A 
ATOM      9  C   UNL d   1       9.264  -1.697   0.000  0.00  0.00     0.101 A 
ATOM     10  C   UNL d   1       9.282  -0.264   0.000  0.00  0.00     0.021 A 
ATOM     11  C   UNL d   1      10.085  -1.702   0.000  0.00  0.00     0.021 A 
ATOM     12  C   UNL d   1      10.508  -1.002   0.000  0.00  0.00     0.002 A 
ATOM     13  C   UNL d   1      10.107  -0.277   0.000  0.00  0.00     0.002 A 
ENDROOT
BRANCH   3  14
ATOM     14  C   UNL d   1       6.003  -3.075   0.000  0.00  0.00     0.035 A 
ATOM     15  C   UNL d   1       5.304  -2.669   0.000  0.00  0.00     0.005 A 
ATOM     16  C   UNL d   1       4.617  -3.075   0.000  0.00  0.00     0.024 A 
ATOM     17  C   UNL d   1       4.617  -3.904   0.000  0.00  0.00     0.094 A 
ATOM     18  C   UNL d   1       5.304  -4.306   0.000  0.00  0.00     0.024 A 
ATOM     19  C   UNL d   1       6.003  -3.904   0.000  0.00  0.00     0.005 A 
BRANCH  17  20
ATOM     20  O   UNL d   1       3.917  -4.280   0.000  0.00  0.00    -0.328 OA
ATOM     21  C   UNL d   1       3.036  -3.771   0.000  0.00  0.00     0.181 C 
ENDBRANCH  17  20
ENDBRANCH   3  14
BRANCH   2  22
ATOM     22  C   UNL d   1       6.194  -1.296   0.000  0.00  0.00     0.083 C 
BRANCH  22  23
ATOM     23  C   UNL d   1       6.366  -0.492   0.000  0.00  0.00     0.019 C 
ATOM     24  C   UNL d   1       5.757   0.065   0.000  0.00  0.00     0.002 C 
ENDBRANCH  22  23
ENDBRANCH   2  22
TORSDOF 4
