REMARK  4 active torsions:
REMARK  status: ('A' for Active; 'I' for Inactive)
REMARK    1  A    between atoms: C_4  and  N_1 
REMARK    2  A    between atoms: C_8  and  C_2 
REMARK    3  A    between atoms: C_13  and  C_6 
REMARK    4  A    between atoms: C_7  and  C_8 
ROOT
ATOM      1  N   UNL d   1       1.107  -2.399   0.000  0.00  0.00    -0.255 N 
ATOM      2  C   UNL d   1       2.439  -2.399   0.000  0.00  0.00     0.101 A 
ATOM      3  C   UNL d   1       1.363  -3.192   0.000  0.00  0.00     0.305 A 
ATOM      4  C   UNL d   1       2.192  -3.192   0.000  0.00  0.00     0.256 A 
ATOM      5  C   UNL d   1       1.775  -1.923   0.000  0.00  0.00     0.075 A 
ATOM      6  O   UNL d   1       0.879  -3.860   0.000  0.00  0.00    -0.263 OA
ATOM      7  O   UNL d   1       2.668  -3.860   0.000  0.00  0.00    -0.281 OA
ENDROOT
BRANCH   2   8
ATOM      8  C   UNL d   1       3.228  -2.152   0.000  0.00  0.00     0.223 C 
ATOM      9  O   UNL d   1       3.403  -1.345   0.000  0.00  0.00    -0.284 OA
BRANCH   8  10
ATOM     10  C   UNL d   1       3.838  -2.695   0.000  0.00  0.00     0.139 A 
ATOM     11  O   UNL d   1       4.645  -2.520   0.000  0.00  0.00    -0.304 OA
ATOM     12  C   UNL d   1       5.062  -3.232   0.000  0.00  0.00     0.100 A 
ATOM     13  C   UNL d   1       5.864  -3.403   0.000  0.00  0.00     0.025 A 
ATOM     14  C   UNL d   1       4.510  -3.847   0.000  0.00  0.00     0.025 A 
ATOM     15  C   UNL d   1       6.120  -4.174   0.000  0.00  0.00     0.002 A 
ATOM     16  C   UNL d   1       5.573  -4.793   0.000  0.00  0.00     0.000 A 
ATOM     17  C   UNL d   1       4.766  -4.627   0.000  0.00  0.00     0.002 A 
ATOM     18  C   UNL d   1       3.757  -3.515   0.000  0.00  0.00     0.030 A 
ENDBRANCH   8  10
ENDBRANCH   2   8
BRANCH   5  19
ATOM     19  C   UNL d   1       1.780  -1.094   0.000  0.00  0.00     0.017 A 
ATOM     20  C   UNL d   1       1.076  -0.686   0.000  0.00  0.00     0.013 A 
ATOM     21  C   UNL d   1       1.076   0.143   0.000  0.00  0.00     0.058 A 
ATOM     22 CL   UNL d   1       0.363   0.560   0.000  0.00  0.00    -0.082 Cl
ATOM     23  C   UNL d   1       1.793   0.551   0.000  0.00  0.00     0.011 A 
ATOM     24  C   UNL d   1       2.506   0.135   0.000  0.00  0.00     0.001 A 
ATOM     25  C   UNL d   1       2.493  -0.691   0.000  0.00  0.00     0.002 A 
ENDBRANCH   5  19
BRANCH   1  26
ATOM     26  C   UNL d   1       0.327  -2.152   0.000  0.00  0.00     0.179 A 
ATOM     27  N   UNL d   1       0.072  -1.363   0.000  0.00  0.00    -0.108 NA
ATOM     28  O   UNL d   1      -0.749  -1.363   0.000  0.00  0.00    -0.210 OA
ATOM     29  C   UNL d   1      -1.004  -2.152   0.000  0.00  0.00     0.128 A 
ATOM     30  C   UNL d   1      -0.336  -2.636   0.000  0.00  0.00     0.067 A 
ATOM     31  C   UNL d   1      -1.789  -2.408   0.000  0.00  0.00     0.029 C 
ENDBRANCH   1  26
TORSDOF 4
