REMARK  3 active torsions:
REMARK  status: ('A' for Active; 'I' for Inactive)
REMARK    1  A    between atoms: N_5  and  C_1 
REMARK    2  A    between atoms: C_9  and  C_2 
REMARK       I    between atoms: C_8  and  N_5 
REMARK    3  A    between atoms: C_13  and  C_8 
ROOT
ATOM      1  C   UNL d   1       3.775  -3.236   0.000  0.00  0.00     0.156 A 
ATOM      2  C   UNL d   1       3.775  -2.409   0.000  0.00  0.00     0.091 A 
ATOM      3  N   UNL d   1       3.056  -3.649   0.000  0.00  0.00    -0.289 N 
ATOM      4  C   UNL d   1       3.056  -1.996   0.000  0.00  0.00     0.201 A 
ATOM      5  C   UNL d   1       2.342  -2.409   0.000  0.00  0.00     0.055 A 
ATOM      6  C   UNL d   1       2.342  -3.236   0.000  0.00  0.00     0.069 A 
ATOM      7  O   UNL d   1       3.056  -1.169   0.000  0.00  0.00    -0.286 OA
ATOM      8  C   UNL d   1       3.056  -4.476   0.000  0.00  0.00     0.101 C 
ATOM      9  C   UNL d   1       1.628  -1.996   0.000  0.00  0.00     0.005 A 
ATOM     10  C   UNL d   1       1.628  -3.649   0.000  0.00  0.00     0.018 A 
ATOM     11  C   UNL d   1       0.906  -2.417   0.000  0.00  0.00     0.000 A 
ATOM     12  C   UNL d   1       0.906  -3.236   0.000  0.00  0.00     0.002 A 
ENDROOT
BRANCH   1  13
ATOM     13  N   UNL d   1       4.497  -3.662   0.000  0.00  0.00    -0.190 NA
ATOM     14  C   UNL d   1       4.522  -4.489   0.000  0.00  0.00     0.280 C 
ATOM     15  O   UNL d   1       3.808  -4.902   0.000  0.00  0.00    -0.265 OA
BRANCH  14  16
ATOM     16  C   UNL d   1       5.236  -4.902   0.000  0.00  0.00     0.058 A 
ATOM     17  C   UNL d   1       5.228  -5.729   0.000  0.00  0.00     0.005 A 
ATOM     18  C   UNL d   1       5.941  -6.142   0.000  0.00  0.00     0.000 A 
ATOM     19  C   UNL d   1       6.655  -5.729   0.000  0.00  0.00     0.000 A 
ATOM     20  C   UNL d   1       6.655  -4.902   0.000  0.00  0.00     0.000 A 
ATOM     21  C   UNL d   1       5.941  -4.489   0.000  0.00  0.00     0.005 A 
ENDBRANCH  14  16
ENDBRANCH   1  13
BRANCH   2  22
ATOM     22  C   UNL d   1       4.489  -1.996   0.000  0.00  0.00     0.087 A 
ATOM     23  N   UNL d   1       5.202  -2.409   0.000  0.00  0.00    -0.244 NA
ATOM     24  C   UNL d   1       5.925  -1.992   0.000  0.00  0.00     0.099 A 
ATOM     25  C   UNL d   1       5.916  -1.157   0.000  0.00  0.00     0.021 A 
ATOM     26  C   UNL d   1       5.202  -0.752   0.000  0.00  0.00     0.003 A 
ATOM     27  C   UNL d   1       4.489  -1.169   0.000  0.00  0.00     0.019 A 
ENDBRANCH   2  22
TORSDOF 3
