REMARK  3 active torsions:
REMARK  status: ('A' for Active; 'I' for Inactive)
REMARK    1  A    between atoms: C_6  and  N_1 
REMARK    2  A    between atoms: C_5  and  C_6 
REMARK       I    between atoms: N_8  and  C_5 
REMARK    3  A    between atoms: C_10  and  N_8 
ROOT
ATOM      1  C   UNL d   1       3.781   0.283   0.000  0.00  0.00     0.297 C 
ATOM      2  N   UNL d   1       4.268  -0.388   0.000  0.00  0.00    -0.207 NA
ATOM      3  O   UNL d   1       2.964   0.196   0.000  0.00  0.00    -0.264 OA
ENDROOT
BRANCH   1   4
ATOM      4  C   UNL d   1       4.118   1.034   0.000  0.00  0.00     0.145 C 
BRANCH   4   5
ATOM      5  N   UNL d   1       3.639   1.701   0.000  0.00  0.00    -0.282 N 
ATOM      6  C   UNL d   1       3.893   2.488   0.000  0.00  0.00     0.183 A 
ATOM      7  N   UNL d   1       3.226   2.972   0.000  0.00  0.00    -0.224 NA
ATOM      8  C   UNL d   1       2.555   2.488   0.000  0.00  0.00     0.099 A 
ATOM      9  C   UNL d   1       2.814   1.701   0.000  0.00  0.00     0.083 A 
ATOM     10  C   UNL d   1       1.751   2.663   0.000  0.00  0.00     0.021 A 
ATOM     11  C   UNL d   1       2.255   1.096   0.000  0.00  0.00     0.019 A 
ATOM     12  C   UNL d   1       1.455   1.259   0.000  0.00  0.00     0.002 A 
ATOM     13  C   UNL d   1       1.192   2.051   0.000  0.00  0.00     0.002 A 
ENDBRANCH   4   5
ENDBRANCH   1   4
BRANCH   2  14
ATOM     14  C   UNL d   1       3.868  -1.113   0.000  0.00  0.00     0.085 A 
ATOM     15  C   UNL d   1       4.293  -1.813   0.000  0.00  0.00     0.019 A 
ATOM     16  C   UNL d   1       3.901  -2.538   0.000  0.00  0.00     0.002 A 
ATOM     17  C   UNL d   1       4.331  -3.243   0.000  0.00  0.00     0.000 C 
ATOM     18  C   UNL d   1       3.068  -2.555   0.000  0.00  0.00     0.000 A 
ATOM     19  C   UNL d   1       2.643  -1.851   0.000  0.00  0.00     0.002 A 
ATOM     20  C   UNL d   1       2.668  -3.280   0.000  0.00  0.00     0.000 C 
ATOM     21  C   UNL d   1       3.043  -1.125   0.000  0.00  0.00     0.019 A 
ENDBRANCH   2  14
TORSDOF 3
