REMARK  4 active torsions:
REMARK  status: ('A' for Active; 'I' for Inactive)
REMARK    1  A    between atoms: C_4  and  N_1 
REMARK    2  A    between atoms: C_8  and  C_2 
REMARK    3  A    between atoms: C_17  and  C_6 
REMARK    4  A    between atoms: C_7  and  C_8 
ROOT
ATOM      1  N   UNL d   1       5.139  -4.767   0.000  0.00  0.00    -0.255 N 
ATOM      2  C   UNL d   1       6.471  -4.767   0.000  0.00  0.00     0.101 A 
ATOM      3  C   UNL d   1       5.395  -5.561   0.000  0.00  0.00     0.305 A 
ATOM      4  C   UNL d   1       6.216  -5.561   0.000  0.00  0.00     0.256 A 
ATOM      5  C   UNL d   1       5.803  -4.292   0.000  0.00  0.00     0.075 A 
ATOM      6  O   UNL d   1       4.911  -6.229   0.000  0.00  0.00    -0.263 OA
ATOM      7  O   UNL d   1       6.700  -6.229   0.000  0.00  0.00    -0.281 OA
ENDROOT
BRANCH   2   8
ATOM      8  C   UNL d   1       7.256  -4.511   0.000  0.00  0.00     0.223 C 
ATOM      9  O   UNL d   1       7.431  -3.713   0.000  0.00  0.00    -0.284 OA
BRANCH   8  10
ATOM     10  C   UNL d   1       7.870  -5.063   0.000  0.00  0.00     0.139 A 
ATOM     11  O   UNL d   1       8.678  -4.888   0.000  0.00  0.00    -0.304 OA
ATOM     12  C   UNL d   1       9.086  -5.601   0.000  0.00  0.00     0.100 A 
ATOM     13  C   UNL d   1       9.893  -5.772   0.000  0.00  0.00     0.025 A 
ATOM     14  C   UNL d   1       8.543  -6.216   0.000  0.00  0.00     0.025 A 
ATOM     15  C   UNL d   1      10.149  -6.543   0.000  0.00  0.00     0.002 A 
ATOM     16  C   UNL d   1       9.597  -7.162   0.000  0.00  0.00     0.000 A 
ATOM     17  C   UNL d   1       8.799  -6.996   0.000  0.00  0.00     0.002 A 
ATOM     18  C   UNL d   1       7.790  -5.884   0.000  0.00  0.00     0.030 A 
ENDBRANCH   8  10
ENDBRANCH   2   8
BRANCH   5  19
ATOM     19  C   UNL d   1       5.812  -3.462   0.000  0.00  0.00     0.017 A 
ATOM     20  C   UNL d   1       6.529  -3.058   0.000  0.00  0.00     0.001 A 
ATOM     21  C   UNL d   1       6.538  -2.233   0.000  0.00  0.00     0.000 A 
ATOM     22  C   UNL d   1       5.825  -1.816   0.000  0.00  0.00     0.000 A 
ATOM     23  C   UNL d   1       5.103  -2.224   0.000  0.00  0.00     0.000 A 
ATOM     24  C   UNL d   1       5.830  -0.987   0.000  0.00  0.00     0.000 C 
ATOM     25  C   UNL d   1       5.103  -3.054   0.000  0.00  0.00     0.001 A 
ENDBRANCH   5  19
BRANCH   1  26
ATOM     26  C   UNL d   1       4.350  -4.511   0.000  0.00  0.00     0.179 A 
ATOM     27  N   UNL d   1       4.103  -3.731   0.000  0.00  0.00    -0.108 NA
ATOM     28  O   UNL d   1       3.274  -3.731   0.000  0.00  0.00    -0.210 OA
ATOM     29  C   UNL d   1       3.018  -4.511   0.000  0.00  0.00     0.128 A 
ATOM     30  C   UNL d   1       3.691  -5.005   0.000  0.00  0.00     0.067 A 
ATOM     31  C   UNL d   1       2.238  -4.776   0.000  0.00  0.00     0.029 C 
ENDBRANCH   1  26
TORSDOF 4
