REMARK  5 active torsions:
REMARK  status: ('A' for Active; 'I' for Inactive)
REMARK    1  A    between atoms: C_11  and  N_5 
REMARK    2  A    between atoms: C_15  and  C_8 
REMARK    3  A    between atoms: C_12  and  C_11 
REMARK    4  A    between atoms: O_20  and  C_15 
REMARK    5  A    between atoms: C_23  and  O_20 
ROOT
ATOM      1  C   UNL d   1       4.257  -0.673   0.000  0.00  0.00     0.130 A 
ATOM      2  C   UNL d   1       3.546  -0.262   0.000  0.00  0.00     0.157 A 
ATOM      3  C   UNL d   1       4.257  -1.501   0.000  0.00  0.00     0.272 A 
ATOM      4  N   UNL d   1       2.835  -0.673   0.000  0.00  0.00    -0.208 NA
ATOM      5  N   UNL d   1       3.546  -1.912   0.000  0.00  0.00    -0.254 N 
ATOM      6  C   UNL d   1       4.976  -0.262   0.000  0.00  0.00     0.204 A 
ATOM      7  N   UNL d   1       3.546   0.570   0.000  0.00  0.00    -0.289 N 
ATOM      8  C   UNL d   1       2.835  -1.501   0.000  0.00  0.00     0.177 A 
ATOM      9  C   UNL d   1       4.976   0.570   0.000  0.00  0.00     0.055 A 
ATOM     10  C   UNL d   1       4.257   0.981   0.000  0.00  0.00     0.069 A 
ATOM     11  O   UNL d   1       4.980  -1.925   0.000  0.00  0.00    -0.266 OA
ATOM     12  O   UNL d   1       5.691  -0.678   0.000  0.00  0.00    -0.286 OA
ATOM     13  C   UNL d   1       2.831   0.985   0.000  0.00  0.00     0.101 C 
ATOM     14  C   UNL d   1       5.691   0.981   0.000  0.00  0.00     0.005 A 
ATOM     15  C   UNL d   1       4.257   1.804   0.000  0.00  0.00     0.018 A 
ATOM     16  C   UNL d   1       5.691   1.804   0.000  0.00  0.00     0.000 A 
ATOM     17  C   UNL d   1       4.968   2.216   0.000  0.00  0.00     0.002 A 
ENDROOT
BRANCH   8  18
ATOM     18  C   UNL d   1       2.112  -1.921   0.000  0.00  0.00     0.160 C 
BRANCH  18  19
ATOM     19  O   UNL d   1       1.397  -1.509   0.000  0.00  0.00    -0.302 OA
BRANCH  19  20
ATOM     20  C   UNL d   1       0.686  -1.925   0.000  0.00  0.00     0.100 A 
ATOM     21  C   UNL d   1      -0.025  -1.513   0.000  0.00  0.00     0.025 A 
ATOM     22  C   UNL d   1      -0.744  -1.925   0.000  0.00  0.00     0.002 A 
ATOM     23  C   UNL d   1      -0.736  -2.748   0.000  0.00  0.00     0.000 A 
ATOM     24  C   UNL d   1      -0.021  -3.159   0.000  0.00  0.00     0.002 A 
ATOM     25  C   UNL d   1       0.690  -2.748   0.000  0.00  0.00     0.025 A 
ENDBRANCH  19  20
ENDBRANCH  18  19
ENDBRANCH   8  18
BRANCH   5  26
ATOM     26  C   UNL d   1       3.546  -2.735   0.000  0.00  0.00     0.109 C 
BRANCH  26  27
ATOM     27  C   UNL d   1       4.257  -3.147   0.000  0.00  0.00     0.118 A 
ATOM     28  O   UNL d   1       4.431  -3.953   0.000  0.00  0.00    -0.304 OA
ATOM     29  C   UNL d   1       5.250  -4.032   0.000  0.00  0.00     0.123 A 
ATOM     30  C   UNL d   1       5.591  -3.292   0.000  0.00  0.00     0.029 A 
ATOM     31  C   UNL d   1       4.976  -2.735   0.000  0.00  0.00     0.028 A 
ENDBRANCH  26  27
ENDBRANCH   5  26
TORSDOF 5
