REMARK  3 active torsions:
REMARK  status: ('A' for Active; 'I' for Inactive)
REMARK    1  A    between atoms: C_12  and  N_3 
REMARK    2  A    between atoms: C_11  and  C_6 
REMARK    3  A    between atoms: C_22  and  C_12 
ROOT
ATOM      1  C   UNL d   1       5.304  -3.242   0.000  0.00  0.00     0.130 A 
ATOM      2  C   UNL d   1       5.312  -4.067   0.000  0.00  0.00     0.157 A 
ATOM      3  N   UNL d   1       6.737  -3.229   0.000  0.00  0.00    -0.256 N 
ATOM      4  C   UNL d   1       6.017  -2.829   0.000  0.00  0.00     0.272 A 
ATOM      5  N   UNL d   1       6.029  -4.479   0.000  0.00  0.00    -0.208 NA
ATOM      6  C   UNL d   1       6.742  -4.067   0.000  0.00  0.00     0.175 A 
ATOM      7  C   UNL d   1       4.592  -2.837   0.000  0.00  0.00     0.204 A 
ATOM      8  N   UNL d   1       4.600  -4.492   0.000  0.00  0.00    -0.289 N 
ATOM      9  C   UNL d   1       3.879  -3.254   0.000  0.00  0.00     0.055 A 
ATOM     10  C   UNL d   1       3.879  -4.079   0.000  0.00  0.00     0.069 A 
ATOM     11  O   UNL d   1       6.017  -2.004   0.000  0.00  0.00    -0.266 OA
ATOM     12  O   UNL d   1       4.588  -2.013   0.000  0.00  0.00    -0.286 OA
ATOM     13  C   UNL d   1       4.600  -5.317   0.000  0.00  0.00     0.101 C 
ATOM     14  C   UNL d   1       3.167  -2.842   0.000  0.00  0.00     0.005 A 
ATOM     15  C   UNL d   1       3.167  -4.492   0.000  0.00  0.00     0.018 A 
ATOM     16  C   UNL d   1       2.454  -3.254   0.000  0.00  0.00     0.000 A 
ATOM     17  C   UNL d   1       2.454  -4.079   0.000  0.00  0.00     0.002 A 
ENDROOT
BRANCH   6  18
ATOM     18  C   UNL d   1       7.467  -4.475   0.000  0.00  0.00     0.135 A 
ATOM     19  O   UNL d   1       7.467  -5.300   0.000  0.00  0.00    -0.302 OA
ATOM     20  C   UNL d   1       8.254  -5.550   0.000  0.00  0.00     0.123 A 
ATOM     21  C   UNL d   1       8.738  -4.879   0.000  0.00  0.00     0.029 A 
ATOM     22  C   UNL d   1       8.250  -4.217   0.000  0.00  0.00     0.030 A 
ENDBRANCH   6  18
BRANCH   3  23
ATOM     23  C   UNL d   1       7.454  -2.812   0.000  0.00  0.00     0.085 C 
BRANCH  23  24
ATOM     24  C   UNL d   1       7.450  -1.979   0.000  0.00  0.00     0.018 C 
ATOM     25  C   UNL d   1       6.717  -1.567   0.000  0.00  0.00     0.002 C 
ATOM     26  C   UNL d   1       8.167  -1.554   0.000  0.00  0.00     0.002 C 
ENDBRANCH  23  24
ENDBRANCH   3  23
TORSDOF 3
