REMARK  1 active torsions:
REMARK  status: ('A' for Active; 'I' for Inactive)
REMARK       I    between atoms: C_8  and  N_9 
REMARK    1  A    between atoms: N_9  and  C_10 
ROOT
ATOM      1  C   UNL d   1       1.069   0.259   0.000  0.00  0.00     0.102 A 
ATOM      2  O   UNL d   1       0.242   0.251   0.000  0.00  0.00    -0.307 OA
ATOM      3  C   UNL d   1       1.328   1.040   0.000  0.00  0.00     0.025 A 
ATOM      4  C   UNL d   1       0.656   1.524   0.000  0.00  0.00     0.025 A 
ATOM      5  C   UNL d   1      -0.008   1.040   0.000  0.00  0.00     0.100 A 
ATOM      6  C   UNL d   1       1.616  -0.355   0.000  0.00  0.00     0.044 A 
ATOM      7  C   UNL d   1       2.130   1.211   0.000  0.00  0.00     0.004 A 
ATOM      8  C   UNL d   1       2.422  -0.192   0.000  0.00  0.00     0.087 A 
ATOM      9  C   UNL d   1       2.681   0.597   0.000  0.00  0.00     0.019 A 
ATOM     10  C   UNL d   1       0.568   2.351   0.000  0.00  0.00     0.002 A 
ATOM     11  C   UNL d   1      -0.764   1.374   0.000  0.00  0.00     0.025 A 
ATOM     12  C   UNL d   1      -0.184   2.681   0.000  0.00  0.00     0.000 A 
ATOM     13  C   UNL d   1      -0.852   2.192   0.000  0.00  0.00     0.002 A 
ENDROOT
BRANCH   8  14
ATOM     14  N   UNL d   1       2.973  -0.806   0.000  0.00  0.00    -0.208 NA
ATOM     15  C   UNL d   1       2.718  -1.591   0.000  0.00  0.00     0.279 C 
ATOM     16  O   UNL d   1       1.908  -1.758   0.000  0.00  0.00    -0.265 OA
ATOM     17  C   UNL d   1       3.270  -2.209   0.000  0.00  0.00     0.068 C 
ENDBRANCH   8  14
TORSDOF 1
