REMARK  5 active torsions:
REMARK  status: ('A' for Active; 'I' for Inactive)
REMARK    1  A    between atoms: C_3  and  S_1 
REMARK    2  A    between atoms: C_7  and  S_1 
REMARK    3  A    between atoms: C_2  and  C_3 
REMARK    4  A    between atoms: C_9  and  C_3 
REMARK    5  A    between atoms: N_8  and  C_4 
ROOT
ATOM      1  C   UNL d   1       3.742  -1.306   0.000  0.00  0.00     0.128 A 
ATOM      2  C   UNL d   1       3.746  -2.124   0.000  0.00  0.00     0.166 A 
ATOM      3  N   UNL d   1       3.026  -0.889   0.000  0.00  0.00    -0.240 NA
ATOM      4  N   UNL d   1       3.026  -2.541   0.000  0.00  0.00    -0.225 NA
ATOM      5  C   UNL d   1       2.318  -1.306   0.000  0.00  0.00     0.099 A 
ATOM      6  C   UNL d   1       2.318  -2.124   0.000  0.00  0.00     0.101 A 
ATOM      7  C   UNL d   1       1.597  -2.533   0.000  0.00  0.00     0.021 A 
ATOM      8  C   UNL d   1       1.610  -0.889   0.000  0.00  0.00     0.021 A 
ATOM      9  C   UNL d   1       0.889  -2.124   0.000  0.00  0.00     0.002 A 
ATOM     10  C   UNL d   1       0.898  -1.302   0.000  0.00  0.00     0.002 A 
ENDROOT
BRANCH   1  11
ATOM     11  C   UNL d   1       4.450  -0.889   0.000  0.00  0.00     0.129 C 
BRANCH  11  12
ATOM     12  S   UNL d   1       4.416   0.008   0.000  0.00  0.00     0.213 S 
ATOM     13  O   UNL d   1       5.187   0.443   0.000  0.00  0.00    -0.217 OA
ATOM     14  O   UNL d   1       5.225  -0.194   0.000  0.00  0.00    -0.217 OA
BRANCH  12  15
ATOM     15  C   UNL d   1       3.784   0.544   0.000  0.00  0.00     0.088 A 
ATOM     16  C   UNL d   1       3.944   1.361   0.000  0.00  0.00     0.011 A 
ATOM     17  C   UNL d   1       3.316   1.905   0.000  0.00  0.00     0.001 A 
ATOM     18  C   UNL d   1       4.720   1.631   0.000  0.00  0.00     0.001 C 
ATOM     19  C   UNL d   1       2.533   1.627   0.000  0.00  0.00     0.000 A 
ATOM     20  C   UNL d   1       2.381   0.809   0.000  0.00  0.00     0.001 A 
ATOM     21  C   UNL d   1       3.009   0.274   0.000  0.00  0.00     0.011 A 
ATOM     22  C   UNL d   1       1.605   0.539   0.000  0.00  0.00     0.000 C 
ENDBRANCH  12  15
ENDBRANCH  11  12
BRANCH  11  23
ATOM     23  C   UNL d   1       5.263  -1.180   0.000  0.00  0.00     0.135 C 
ATOM     24  N   UNL d   1       6.018  -0.700   0.000  0.00  0.00    -0.146 N 
ENDBRANCH  11  23
ENDBRANCH   1  11
BRANCH   2  25
ATOM     25  N   UNL d   1       4.467  -2.541   0.000  0.00  0.00    -0.284 N 
ATOM     26  C   UNL d   1       4.467  -3.375   0.000  0.00  0.00     0.108 A 
ATOM     27  C   UNL d   1       5.187  -3.784   0.000  0.00  0.00     0.142 A 
ATOM     28  O   UNL d   1       5.908  -3.375   0.000  0.00  0.00    -0.300 OA
ATOM     29  C   UNL d   1       5.908  -2.541   0.000  0.00  0.00     0.142 A 
ATOM     30  C   UNL d   1       5.187  -2.115   0.000  0.00  0.00     0.108 A 
ENDBRANCH   2  25
TORSDOF 5
