REMARK  9 active torsions:
REMARK  status: ('A' for Active; 'I' for Inactive)
REMARK    1  A    between atoms: C_2  and  C_1 
REMARK    2  A    between atoms: C_23  and  C_7 
REMARK    3  A    between atoms: C_12  and  O_16 
REMARK    4  A    between atoms: C_18  and  C_12 
REMARK    5  A    between atoms: O_16  and  C_14 
REMARK    6  A    between atoms: C_30  and  C_17 
REMARK    7  A    between atoms: C_20  and  C_28 
REMARK    8  A    between atoms: O_25  and  C_23 
REMARK    9  A    between atoms: C_28  and  O_25 
ROOT
ATOM      1  C   UNL d   1       3.198  -0.326   0.000  0.00  0.00     0.098 A 
ATOM      2  C   UNL d   1       2.472  -0.739   0.000  0.00  0.00     0.202 A 
ATOM      3  C   UNL d   1       1.758  -0.326   0.000  0.00  0.00     0.062 A 
ATOM      4  C   UNL d   1       3.198   0.509   0.000  0.00  0.00     0.130 A 
ATOM      5  C   UNL d   1       1.758   0.509   0.000  0.00  0.00     0.105 A 
ATOM      6  O   UNL d   1       2.480   0.935   0.000  0.00  0.00    -0.305 OA
ATOM      7  C   UNL d   1       1.044  -0.731   0.000  0.00  0.00     0.007 A 
ATOM      8  C   UNL d   1       0.330   0.509   0.000  0.00  0.00     0.105 A 
ATOM      9  C   UNL d   1       1.044   0.923   0.000  0.00  0.00     0.050 A 
ATOM     10  C   UNL d   1       0.330  -0.317   0.000  0.00  0.00     0.023 A 
ATOM     11  O   UNL d   1       2.472  -1.566   0.000  0.00  0.00    -0.286 OA
ENDROOT
BRANCH   1  12
ATOM     12  C   UNL d   1       3.912  -0.743   0.000  0.00  0.00     0.153 A 
ATOM     13  N   UNL d   1       4.664  -0.405   0.000  0.00  0.00    -0.227 NA
ATOM     14  C   UNL d   1       5.215  -1.019   0.000  0.00  0.00     0.099 A 
ATOM     15  C   UNL d   1       6.037  -1.019   0.000  0.00  0.00     0.021 A 
ATOM     16  C   UNL d   1       4.802  -1.733   0.000  0.00  0.00     0.083 A 
ATOM     17  C   UNL d   1       6.451  -1.733   0.000  0.00  0.00     0.002 A 
ATOM     18  C   UNL d   1       6.029  -2.447   0.000  0.00  0.00     0.002 A 
ATOM     19  C   UNL d   1       5.211  -2.447   0.000  0.00  0.00     0.019 A 
ATOM     20  N   UNL d   1       3.996  -1.557   0.000  0.00  0.00    -0.288 N 
ATOM     21  C   UNL d   1       3.382  -2.109   0.000  0.00  0.00     0.101 C 
ENDBRANCH   1  12
BRANCH   4  22
ATOM     22  C   UNL d   1       3.921   0.923   0.000  0.00  0.00     0.142 C 
BRANCH  22  23
ATOM     23  O   UNL d   1       4.635   0.509   0.000  0.00  0.00    -0.315 OA
BRANCH  23  24
ATOM     24  C   UNL d   1       5.353   0.923   0.000  0.00  0.00     0.246 C 
BRANCH  24  25
ATOM     25  C   UNL d   1       6.067   0.501   0.000  0.00  0.00     0.217 C 
ATOM     26  O   UNL d   1       6.067  -0.326   0.000  0.00  0.00    -0.645 OA
ATOM     27  O   UNL d   1       6.781   0.914   0.000  0.00  0.00    -0.645 OA
ENDBRANCH  24  25
ENDBRANCH  23  24
ENDBRANCH  22  23
ENDBRANCH   4  22
BRANCH  10  28
ATOM     28  C   UNL d   1      -0.388  -0.731   0.000  0.00  0.00     0.002 C 
ATOM     29  C   UNL d   1      -1.102  -0.317   0.000  0.00  0.00     0.000 C 
ENDBRANCH  10  28
BRANCH   8  30
ATOM     30  O   UNL d   1      -0.384   0.923   0.000  0.00  0.00    -0.276 OA
BRANCH  30  31
ATOM     31  C   UNL d   1      -0.384   1.749   0.000  0.00  0.00     0.275 C 
ATOM     32  O   UNL d   1       0.330   2.163   0.000  0.00  0.00    -0.264 OA
BRANCH  31  33
ATOM     33  C   UNL d   1      -1.102   2.163   0.000  0.00  0.00     0.078 C 
ATOM     34  C   UNL d   1      -1.825   2.576   0.000  0.00  0.00     0.010 C 
ATOM     35  C   UNL d   1      -0.689   2.877   0.000  0.00  0.00     0.010 C 
ATOM     36  C   UNL d   1      -1.511   1.440   0.000  0.00  0.00     0.010 C 
ENDBRANCH  31  33
ENDBRANCH  30  31
ENDBRANCH   8  30
TORSDOF 9
