REMARK  4 active torsions:
REMARK  status: ('A' for Active; 'I' for Inactive)
REMARK    1  A    between atoms: S_6  and  C_1 
REMARK    2  A    between atoms: N_9  and  N_2 
REMARK    3  A    between atoms: C_12  and  S_6 
REMARK       I    between atoms: C_10  and  N_9 
REMARK    4  A    between atoms: C_11  and  C_10 
ROOT
ATOM      1  C   UNL d   1       3.849  -5.384   0.000  0.00  0.00     0.146 A 
ATOM      2  N   UNL d   1       3.973  -4.048   0.000  0.00  0.00    -0.188 N 
ATOM      3  C   UNL d   1       3.432  -4.672   0.000  0.00  0.00     0.199 A 
ATOM      4  C   UNL d   1       4.735  -4.373   0.000  0.00  0.00     0.184 A 
ATOM      5  C   UNL d   1       4.660  -5.197   0.000  0.00  0.00     0.131 A 
ATOM      6  N   UNL d   1       5.484  -4.032   0.000  0.00  0.00    -0.224 NA
ATOM      7  N   UNL d   1       5.330  -5.671   0.000  0.00  0.00    -0.240 NA
ATOM      8  C   UNL d   1       6.157  -4.510   0.000  0.00  0.00     0.101 A 
ATOM      9  C   UNL d   1       6.070  -5.334   0.000  0.00  0.00     0.099 A 
ATOM     10  N   UNL d   1       2.613  -4.593   0.000  0.00  0.00    -0.126 N 
ATOM     11  C   UNL d   1       6.906  -4.169   0.000  0.00  0.00     0.021 A 
ATOM     12  C   UNL d   1       6.744  -5.816   0.000  0.00  0.00     0.021 A 
ATOM     13  C   UNL d   1       7.493  -5.471   0.000  0.00  0.00     0.002 A 
ATOM     14  C   UNL d   1       7.580  -4.647   0.000  0.00  0.00     0.002 A 
ENDROOT
BRANCH   1  15
ATOM     15  S   UNL d   1       3.532  -6.133   0.000  0.00  0.00     0.214 S 
ATOM     16  O   UNL d   1       4.186  -6.644   0.000  0.00  0.00    -0.217 OA
ATOM     17  O   UNL d   1       2.883  -5.629   0.000  0.00  0.00    -0.217 OA
BRANCH  15  18
ATOM     18  C   UNL d   1       3.199  -6.890   0.000  0.00  0.00     0.088 A 
ATOM     19  C   UNL d   1       3.611  -7.605   0.000  0.00  0.00     0.011 A 
ATOM     20  C   UNL d   1       3.199  -8.317   0.000  0.00  0.00     0.001 A 
ATOM     21  C   UNL d   1       2.376  -8.317   0.000  0.00  0.00     0.000 A 
ATOM     22  C   UNL d   1       1.964  -7.605   0.000  0.00  0.00     0.001 A 
ATOM     23  C   UNL d   1       1.964  -9.028   0.000  0.00  0.00     0.000 C 
ATOM     24  C   UNL d   1       2.376  -6.881   0.000  0.00  0.00     0.011 A 
ENDBRANCH  15  18
ENDBRANCH   1  15
BRANCH   2  25
ATOM     25  N   UNL d   1       3.799  -3.245   0.000  0.00  0.00    -0.120 NA
ATOM     26  C   UNL d   1       4.410  -2.688   0.000  0.00  0.00     0.295 C 
ATOM     27  O   UNL d   1       4.231  -1.889   0.000  0.00  0.00    -0.264 OA
BRANCH  26  28
ATOM     28  C   UNL d   1       5.197  -2.937   0.000  0.00  0.00     0.059 A 
ATOM     29  C   UNL d   1       5.754  -3.549   0.000  0.00  0.00     0.005 A 
ATOM     30  C   UNL d   1       6.003  -2.763   0.000  0.00  0.00     0.005 A 
ENDBRANCH  26  28
ENDBRANCH   2  25
TORSDOF 4
