REMARK  9 active torsions:
REMARK  status: ('A' for Active; 'I' for Inactive)
REMARK    1  A    between atoms: C_5  and  C_1 
REMARK    2  A    between atoms: N_11  and  C_2 
REMARK    3  A    between atoms: C_6  and  C_5 
REMARK    4  A    between atoms: C_7  and  C_5 
REMARK       I    between atoms: N_13  and  C_6 
REMARK    5  A    between atoms: C_16  and  N_11 
REMARK    6  A    between atoms: C_17  and  N_11 
REMARK    7  A    between atoms: C_14  and  N_13 
REMARK    8  A    between atoms: C_20  and  C_14 
REMARK    9  A    between atoms: C_15  and  C_20 
ROOT
ATOM      1  C   UNL d   1       4.642  -3.587   0.000  0.00  0.00     0.117 A 
ATOM      2  C   UNL d   1       4.642  -4.412   0.000  0.00  0.00     0.145 A 
ATOM      3  N   UNL d   1       3.929  -3.175   0.000  0.00  0.00    -0.241 NA
ATOM      4  N   UNL d   1       3.929  -4.825   0.000  0.00  0.00    -0.230 NA
ATOM      5  C   UNL d   1       3.217  -4.412   0.000  0.00  0.00     0.100 A 
ATOM      6  C   UNL d   1       3.217  -3.587   0.000  0.00  0.00     0.099 A 
ATOM      7  C   UNL d   1       2.504  -4.825   0.000  0.00  0.00     0.021 A 
ATOM      8  C   UNL d   1       2.504  -3.175   0.000  0.00  0.00     0.021 A 
ATOM      9  C   UNL d   1       1.788  -4.412   0.000  0.00  0.00     0.002 A 
ATOM     10  C   UNL d   1       1.788  -3.587   0.000  0.00  0.00     0.002 A 
ENDROOT
BRANCH   1  11
ATOM     11  C   UNL d   1       5.429  -3.329   0.000  0.00  0.00     0.099 C 
BRANCH  11  12
ATOM     12  C   UNL d   1       5.767  -2.575   0.000  0.00  0.00     0.282 C 
ATOM     13  O   UNL d   1       5.279  -1.892   0.000  0.00  0.00    -0.265 OA
ATOM     14  N   UNL d   1       6.592  -2.492   0.000  0.00  0.00    -0.206 NA
BRANCH  14  15
ATOM     15  C   UNL d   1       6.938  -1.729   0.000  0.00  0.00     0.102 C 
BRANCH  15  16
ATOM     16  C   UNL d   1       7.729  -1.517   0.000  0.00  0.00     0.021 C 
BRANCH  16  17
ATOM     17  C   UNL d   1       8.317  -2.092   0.000  0.00  0.00     0.002 A 
ATOM     18  C   UNL d   1       8.100  -2.888   0.000  0.00  0.00     0.000 A 
ATOM     19  C   UNL d   1       8.679  -3.467   0.000  0.00  0.00     0.000 A 
ATOM     20  C   UNL d   1       9.479  -3.254   0.000  0.00  0.00     0.000 A 
ATOM     21  C   UNL d   1       9.688  -2.454   0.000  0.00  0.00     0.000 A 
ATOM     22  C   UNL d   1       9.104  -1.879   0.000  0.00  0.00     0.000 A 
ENDBRANCH  16  17
ENDBRANCH  15  16
ENDBRANCH  14  15
ENDBRANCH  11  12
BRANCH  11  23
ATOM     23  C   UNL d   1       6.013  -3.917   0.000  0.00  0.00     0.129 C 
ATOM     24  N   UNL d   1       6.838  -3.917   0.000  0.00  0.00    -0.146 N 
ENDBRANCH  11  23
ENDBRANCH   1  11
BRANCH   2  25
ATOM     25  N   UNL d   1       5.429  -4.667   0.000  0.00  0.00    -0.192 NA
BRANCH  25  26
ATOM     26  C   UNL d   1       5.642  -5.463   0.000  0.00  0.00     0.057 C 
ATOM     27  C   UNL d   1       6.717  -5.237   0.000  0.00  0.00     0.014 C 
ENDBRANCH  25  26
BRANCH  25  28
ATOM     28  C   UNL d   1       5.975  -5.042   0.000  0.00  0.00     0.057 C 
ATOM     29  C   UNL d   1       6.975  -4.812   0.000  0.00  0.00     0.014 C 
ENDBRANCH  25  28
ENDBRANCH   2  25
TORSDOF 9
