REMARK  4 active torsions:
REMARK  status: ('A' for Active; 'I' for Inactive)
REMARK    1  A    between atoms: N_5  and  C_1 
REMARK    2  A    between atoms: N_8  and  C_3 
REMARK    3  A    between atoms: C_19  and  N_8 
REMARK    4  A    between atoms: C_21  and  C_19 
ROOT
ATOM      1  C   UNL d   1       2.842  -2.000   0.000  0.00  0.00     0.200 A 
ATOM      2  C   UNL d   1       2.129  -2.413   0.000  0.00  0.00     0.288 A 
ATOM      3  C   UNL d   1       2.850  -1.167   0.000  0.00  0.00     0.109 A 
ATOM      4  N   UNL d   1       1.413  -1.992   0.000  0.00  0.00    -0.270 N 
ATOM      5  C   UNL d   1       2.129  -0.754   0.000  0.00  0.00     0.036 A 
ATOM      6  C   UNL d   1       1.413  -1.167   0.000  0.00  0.00     0.069 A 
ATOM      7  O   UNL d   1       2.129  -3.237   0.000  0.00  0.00    -0.265 OA
ATOM      8  C   UNL d   1       0.700  -2.404   0.000  0.00  0.00     0.102 C 
ATOM      9  C   UNL d   1       2.129   0.071   0.000  0.00  0.00     0.003 A 
ATOM     10  C   UNL d   1       0.700  -0.754   0.000  0.00  0.00     0.018 A 
ATOM     11  C   UNL d   1       1.413   0.483   0.000  0.00  0.00     0.000 A 
ATOM     12  C   UNL d   1       0.700   0.071   0.000  0.00  0.00     0.002 A 
ENDROOT
BRANCH   3  13
ATOM     13  N   UNL d   1       3.562  -0.754   0.000  0.00  0.00    -0.242 NA
BRANCH  13  14
ATOM     14  C   UNL d   1       3.562   0.071   0.000  0.00  0.00     0.099 C 
BRANCH  14  15
ATOM     15  C   UNL d   1       4.275   0.483   0.000  0.00  0.00     0.021 A 
ATOM     16  C   UNL d   1       4.987   0.071   0.000  0.00  0.00     0.028 A 
ATOM     17  C   UNL d   1       5.700   0.483   0.000  0.00  0.00     0.119 A 
ATOM     18  O   UNL d   1       6.479   0.233   0.000  0.00  0.00    -0.300 OA
ATOM     19  C   UNL d   1       5.700   1.308   0.000  0.00  0.00     0.119 A 
ATOM     20  C   UNL d   1       6.967   0.896   0.000  0.00  0.00     0.304 A 
ATOM     21  O   UNL d   1       6.479   1.562   0.000  0.00  0.00    -0.300 OA
ATOM     22  C   UNL d   1       4.979   1.721   0.000  0.00  0.00     0.026 A 
ATOM     23  C   UNL d   1       4.267   1.308   0.000  0.00  0.00     0.004 A 
ENDBRANCH  14  15
ENDBRANCH  13  14
ENDBRANCH   3  13
BRANCH   1  24
ATOM     24  N   UNL d   1       3.562  -2.413   0.000  0.00  0.00    -0.107 N 
ATOM     25  O   UNL d   1       3.562  -3.237   0.000  0.00  0.00    -0.531 OA
ATOM     26  O   UNL d   1       4.279  -2.000   0.000  0.00  0.00    -0.531 OA
ENDBRANCH   1  24
TORSDOF 4
