REMARK  4 active torsions:
REMARK  status: ('A' for Active; 'I' for Inactive)
REMARK    1  A    between atoms: C_7  and  C_1 
REMARK    2  A    between atoms: S_4  and  O_12 
REMARK    3  A    between atoms: O_12  and  C_10 
REMARK    4  A    between atoms: C_25  and  C_13 
ROOT
ATOM      1  C   UNL d   1       2.729  -0.325   0.000  0.00  0.00     0.064 A 
ATOM      2  C   UNL d   1       1.304  -0.329   0.000  0.00  0.00     0.062 A 
ATOM      3  C   UNL d   1       2.017  -0.738   0.000  0.00  0.00     0.199 A 
ATOM      4  C   UNL d   1       2.729   0.508   0.000  0.00  0.00     0.126 A 
ATOM      5  C   UNL d   1       1.300   0.496   0.000  0.00  0.00     0.105 A 
ATOM      6  O   UNL d   1       2.004   0.921   0.000  0.00  0.00    -0.305 OA
ATOM      7  C   UNL d   1       0.592  -0.738   0.000  0.00  0.00     0.007 A 
ATOM      8  C   UNL d   1      -0.121   0.496   0.000  0.00  0.00     0.115 A 
ATOM      9  C   UNL d   1       0.592   0.908   0.000  0.00  0.00     0.050 A 
ATOM     10  C   UNL d   1      -0.121  -0.329   0.000  0.00  0.00     0.024 A 
ATOM     11  O   UNL d   1       2.017  -1.554   0.000  0.00  0.00    -0.286 OA
ENDROOT
BRANCH   1  12
ATOM     12  C   UNL d   1       3.442  -0.738   0.000  0.00  0.00     0.007 A 
ATOM     13  C   UNL d   1       4.154  -0.317   0.000  0.00  0.00     0.027 A 
ATOM     14  C   UNL d   1       4.867  -0.729   0.000  0.00  0.00     0.123 A 
ATOM     15  O   UNL d   1       5.588  -0.304   0.000  0.00  0.00    -0.301 OA
ATOM     16  C   UNL d   1       4.867  -1.562   0.000  0.00  0.00     0.123 A 
ATOM     17  C   UNL d   1       6.304  -0.729   0.000  0.00  0.00     0.149 A 
ATOM     18  C   UNL d   1       6.304  -1.554   0.000  0.00  0.00     0.149 A 
ATOM     19  O   UNL d   1       5.588  -1.975   0.000  0.00  0.00    -0.301 OA
ATOM     20  C   UNL d   1       4.162  -1.967   0.000  0.00  0.00     0.027 A 
ATOM     21  C   UNL d   1       3.442  -1.562   0.000  0.00  0.00     0.002 A 
ENDBRANCH   1  12
BRANCH  10  22
ATOM     22  C   UNL d   1      -0.833  -0.742   0.000  0.00  0.00     0.002 C 
ATOM     23  C   UNL d   1      -0.838  -1.567   0.000  0.00  0.00     0.000 C 
ENDBRANCH  10  22
BRANCH   8  24
ATOM     24  O   UNL d   1      -0.833   0.908   0.000  0.00  0.00    -0.230 OA
BRANCH  24  25
ATOM     25  S   UNL d   1      -0.833   1.733   0.000  0.00  0.00     0.285 S 
ATOM     26  O   UNL d   1      -0.008   1.738   0.000  0.00  0.00    -0.197 OA
ATOM     27  O   UNL d   1      -1.658   1.733   0.000  0.00  0.00    -0.197 OA
ATOM     28  C   UNL d   1      -0.838   2.558   0.000  0.00  0.00     0.172 C 
ENDBRANCH  24  25
ENDBRANCH   8  24
TORSDOF 4
