REMARK  2 active torsions:
REMARK  status: ('A' for Active; 'I' for Inactive)
REMARK    1  A    between atoms: C_7  and  N_1 
REMARK    2  A    between atoms: C_9  and  C_2 
ROOT
ATOM      1  N   UNL d   1       3.139  -2.496   0.000  0.00  0.00    -0.273 N 
ATOM      2  C   UNL d   1       3.913  -2.199   0.000  0.00  0.00     0.174 A 
ATOM      3  N   UNL d   1       3.867  -1.379   0.000  0.00  0.00    -0.204 NA
ATOM      4  C   UNL d   1       2.625  -1.856   0.000  0.00  0.00     0.185 A 
ATOM      5  C   UNL d   1       3.072  -1.166   0.000  0.00  0.00     0.199 A 
ATOM      6  N   UNL d   1       1.798  -1.810   0.000  0.00  0.00    -0.224 NA
ATOM      7  N   UNL d   1       2.700  -0.431   0.000  0.00  0.00    -0.223 NA
ATOM      8  C   UNL d   1       1.430  -1.079   0.000  0.00  0.00     0.101 A 
ATOM      9  C   UNL d   1       1.873  -0.389   0.000  0.00  0.00     0.101 A 
ATOM     10  C   UNL d   1       0.606  -1.033   0.000  0.00  0.00     0.021 A 
ATOM     11  C   UNL d   1       1.505   0.347   0.000  0.00  0.00     0.021 A 
ATOM     12  C   UNL d   1       0.681   0.397   0.000  0.00  0.00     0.002 A 
ATOM     13  C   UNL d   1       0.230  -0.301   0.000  0.00  0.00     0.002 A 
ENDROOT
BRANCH   1  14
ATOM     14  C   UNL d   1       2.964  -3.302   0.000  0.00  0.00     0.069 A 
ATOM     15  C   UNL d   1       2.174  -3.549   0.000  0.00  0.00     0.044 A 
ATOM     16  C   UNL d   1       1.998  -4.352   0.000  0.00  0.00     0.124 A 
ATOM     17  O   UNL d   1       1.216  -4.594   0.000  0.00  0.00    -0.301 OA
ATOM     18  C   UNL d   1       2.613  -4.908   0.000  0.00  0.00     0.123 A 
ATOM     19  C   UNL d   1       1.033  -5.409   0.000  0.00  0.00     0.149 A 
ATOM     20  C   UNL d   1       1.647  -5.974   0.000  0.00  0.00     0.149 A 
ATOM     21  O   UNL d   1       2.437  -5.723   0.000  0.00  0.00    -0.301 OA
ATOM     22  C   UNL d   1       3.398  -4.665   0.000  0.00  0.00     0.028 A 
ATOM     23  C   UNL d   1       3.574  -3.862   0.000  0.00  0.00     0.020 A 
ENDBRANCH   1  14
BRANCH   2  24
ATOM     24  C   UNL d   1       4.602  -2.650   0.000  0.00  0.00     0.135 A 
ATOM     25  O   UNL d   1       4.644  -3.474   0.000  0.00  0.00    -0.302 OA
ATOM     26  C   UNL d   1       5.447  -3.687   0.000  0.00  0.00     0.123 A 
ATOM     27  C   UNL d   1       5.894  -2.989   0.000  0.00  0.00     0.029 A 
ATOM     28  C   UNL d   1       5.372  -2.349   0.000  0.00  0.00     0.030 A 
ENDBRANCH   2  24
TORSDOF 2
