REMARK  7 active torsions:
REMARK  status: ('A' for Active; 'I' for Inactive)
REMARK    1  A    between atoms: C_5  and  C_1 
REMARK    2  A    between atoms: N_6  and  C_2 
REMARK    3  A    between atoms: C_7  and  C_5 
REMARK    4  A    between atoms: C_8  and  C_5 
REMARK       I    between atoms: N_13  and  C_7 
REMARK    5  A    between atoms: C_17  and  N_13 
REMARK    6  A    between atoms: C_23  and  C_17 
REMARK    7  A    between atoms: C_18  and  C_23 
ROOT
ATOM      1  C   UNL d   1       4.779  -3.867   0.000  0.00  0.00     0.117 A 
ATOM      2  C   UNL d   1       4.779  -4.692   0.000  0.00  0.00     0.145 A 
ATOM      3  N   UNL d   1       4.062  -5.104   0.000  0.00  0.00    -0.230 NA
ATOM      4  N   UNL d   1       4.062  -3.454   0.000  0.00  0.00    -0.241 NA
ATOM      5  C   UNL d   1       3.350  -4.692   0.000  0.00  0.00     0.100 A 
ATOM      6  C   UNL d   1       3.350  -3.867   0.000  0.00  0.00     0.099 A 
ATOM      7  C   UNL d   1       2.638  -5.104   0.000  0.00  0.00     0.021 A 
ATOM      8  C   UNL d   1       2.638  -3.454   0.000  0.00  0.00     0.021 A 
ATOM      9  C   UNL d   1       1.917  -4.692   0.000  0.00  0.00     0.002 A 
ATOM     10  C   UNL d   1       1.917  -3.867   0.000  0.00  0.00     0.002 A 
ENDROOT
BRANCH   1  11
ATOM     11  C   UNL d   1       5.562  -3.617   0.000  0.00  0.00     0.099 C 
BRANCH  11  12
ATOM     12  C   UNL d   1       5.904  -2.854   0.000  0.00  0.00     0.282 C 
ATOM     13  O   UNL d   1       5.417  -2.179   0.000  0.00  0.00    -0.265 OA
ATOM     14  N   UNL d   1       6.729  -2.775   0.000  0.00  0.00    -0.206 NA
BRANCH  14  15
ATOM     15  C   UNL d   1       7.067  -2.013   0.000  0.00  0.00     0.102 C 
BRANCH  15  16
ATOM     16  C   UNL d   1       7.867  -1.800   0.000  0.00  0.00     0.021 C 
BRANCH  16  17
ATOM     17  C   UNL d   1       8.450  -2.379   0.000  0.00  0.00     0.002 A 
ATOM     18  C   UNL d   1       8.229  -3.167   0.000  0.00  0.00     0.000 A 
ATOM     19  C   UNL d   1       8.817  -3.750   0.000  0.00  0.00     0.000 A 
ATOM     20  C   UNL d   1       9.613  -3.538   0.000  0.00  0.00     0.000 A 
ATOM     21  C   UNL d   1       9.817  -2.737   0.000  0.00  0.00     0.000 A 
ATOM     22  C   UNL d   1       9.238  -2.163   0.000  0.00  0.00     0.000 A 
ENDBRANCH  16  17
ENDBRANCH  15  16
ENDBRANCH  14  15
ENDBRANCH  11  12
BRANCH  11  23
ATOM     23  C   UNL d   1       6.142  -4.192   0.000  0.00  0.00     0.129 C 
ATOM     24  N   UNL d   1       6.967  -4.192   0.000  0.00  0.00    -0.146 N 
ENDBRANCH  11  23
ENDBRANCH   1  11
BRANCH   2  25
ATOM     25  N   UNL d   1       5.562  -4.950   0.000  0.00  0.00    -0.188 NA
ATOM     26  C   UNL d   1       5.775  -5.742   0.000  0.00  0.00     0.083 A 
ATOM     27  C   UNL d   1       6.854  -5.517   0.000  0.00  0.00     0.136 A 
ATOM     28  O   UNL d   1       7.379  -5.942   0.000  0.00  0.00    -0.301 OA
ATOM     29  C   UNL d   1       7.104  -5.092   0.000  0.00  0.00     0.136 A 
ATOM     30  C   UNL d   1       6.104  -5.329   0.000  0.00  0.00     0.083 A 
ENDBRANCH   2  25
TORSDOF 7
