REMARK  6 active torsions:
REMARK  status: ('A' for Active; 'I' for Inactive)
REMARK    1  A    between atoms: N_3  and  S_1 
REMARK    2  A    between atoms: C_7  and  S_1 
REMARK    3  A    between atoms: C_2  and  N_3 
REMARK    4  A    between atoms: N_9  and  C_5 
REMARK    5  A    between atoms: C_22  and  N_9 
REMARK    6  A    between atoms: C_21  and  C_22 
ROOT
ATOM      1  C   UNL d   1       5.503  -1.087   0.000  0.00  0.00     0.211 A 
ATOM      2  N   UNL d   1       6.057  -0.483   0.000  0.00  0.00    -0.222 NA
ATOM      3  C   UNL d   1       5.747  -1.876   0.000  0.00  0.00     0.200 A 
ATOM      4  N   UNL d   1       6.561  -2.053   0.000  0.00  0.00    -0.223 NA
ATOM      5  C   UNL d   1       6.855  -0.659   0.000  0.00  0.00     0.101 A 
ATOM      6  C   UNL d   1       7.115  -1.440   0.000  0.00  0.00     0.101 A 
ATOM      7  C   UNL d   1       7.921  -1.612   0.000  0.00  0.00     0.021 A 
ATOM      8  C   UNL d   1       7.409  -0.042   0.000  0.00  0.00     0.021 A 
ATOM      9  C   UNL d   1       8.467  -0.999   0.000  0.00  0.00     0.002 A 
ATOM     10  C   UNL d   1       8.215  -0.218   0.000  0.00  0.00     0.002 A 
ENDROOT
BRANCH   1  11
ATOM     11  N   UNL d   1       4.701  -0.911   0.000  0.00  0.00    -0.136 NA
BRANCH  11  12
ATOM     12  S   UNL d   1       4.462  -0.050   0.000  0.00  0.00     0.287 S 
ATOM     13  O   UNL d   1       3.589   0.134   0.000  0.00  0.00    -0.198 OA
ATOM     14  O   UNL d   1       3.744  -0.483   0.000  0.00  0.00    -0.198 OA
BRANCH  12  15
ATOM     15  C   UNL d   1       4.890   0.655   0.000  0.00  0.00     0.105 A 
ATOM     16  C   UNL d   1       4.496   1.385   0.000  0.00  0.00     0.013 A 
ATOM     17  C   UNL d   1       4.928   2.099   0.000  0.00  0.00     0.001 A 
ATOM     18  C   UNL d   1       4.533   2.817   0.000  0.00  0.00     0.000 C 
ATOM     19  C   UNL d   1       5.759   2.074   0.000  0.00  0.00     0.000 A 
ATOM     20  C   UNL d   1       6.149   1.343   0.000  0.00  0.00     0.001 A 
ATOM     21  C   UNL d   1       5.721   0.638   0.000  0.00  0.00     0.013 A 
ENDBRANCH  12  15
ENDBRANCH  11  12
ENDBRANCH   1  11
BRANCH   3  22
ATOM     22  N   UNL d   1       5.192  -2.493   0.000  0.00  0.00    -0.223 NA
BRANCH  22  23
ATOM     23  C   UNL d   1       5.444  -3.287   0.000  0.00  0.00     0.101 C 
BRANCH  23  24
ATOM     24  C   UNL d   1       6.250  -3.463   0.000  0.00  0.00     0.021 A 
ATOM     25  C   UNL d   1       6.666  -4.181   0.000  0.00  0.00     0.028 A 
ATOM     26  C   UNL d   1       7.497  -4.173   0.000  0.00  0.00     0.119 A 
ATOM     27  O   UNL d   1       8.051  -4.785   0.000  0.00  0.00    -0.300 OA
ATOM     28  C   UNL d   1       7.900  -3.455   0.000  0.00  0.00     0.119 A 
ATOM     29  C   UNL d   1       8.802  -4.445   0.000  0.00  0.00     0.304 A 
ATOM     30  O   UNL d   1       8.714  -3.627   0.000  0.00  0.00    -0.300 OA
ATOM     31  C   UNL d   1       7.484  -2.745   0.000  0.00  0.00     0.026 A 
ATOM     32  C   UNL d   1       6.662  -2.745   0.000  0.00  0.00     0.004 A 
ENDBRANCH  23  24
ENDBRANCH  22  23
ENDBRANCH   3  22
TORSDOF 6
