REMARK  4 active torsions:
REMARK  status: ('A' for Active; 'I' for Inactive)
REMARK    1  A    between atoms: S_5  and  C_3 
REMARK    2  A    between atoms: C_13  and  S_5 
REMARK    3  A    between atoms: C_23  and  N_7 
REMARK    4  A    between atoms: C_29  and  C_23 
ROOT
ATOM      1  C   UNL d   1       5.134  -4.565   0.000  0.00  0.00     0.155 A 
ATOM      2  C   UNL d   1       5.139  -3.752   0.000  0.00  0.00     0.092 A 
ATOM      3  C   UNL d   1       6.548  -3.757   0.000  0.00  0.00     0.124 A 
ATOM      4  N   UNL d   1       4.421  -4.971   0.000  0.00  0.00    -0.210 NA
ATOM      5  N   UNL d   1       3.725  -3.743   0.000  0.00  0.00    -0.258 N 
ATOM      6  N   UNL d   1       5.830  -4.976   0.000  0.00  0.00    -0.273 N 
ATOM      7  C   UNL d   1       3.725  -4.565   0.000  0.00  0.00     0.152 A 
ATOM      8  C   UNL d   1       6.543  -4.579   0.000  0.00  0.00     0.181 A 
ATOM      9  C   UNL d   1       4.434  -3.337   0.000  0.00  0.00     0.269 A 
ATOM     10  C   UNL d   1       5.843  -3.346   0.000  0.00  0.00     0.022 A 
ATOM     11  C   UNL d   1       3.012  -4.971   0.000  0.00  0.00     0.035 A 
ATOM     12  C   UNL d   1       3.012  -3.337   0.000  0.00  0.00     0.084 A 
ATOM     13  N   UNL d   1       7.252  -5.003   0.000  0.00  0.00    -0.128 N 
ATOM     14  O   UNL d   1       4.434  -2.506   0.000  0.00  0.00    -0.266 OA
ATOM     15  C   UNL d   1       2.307  -3.743   0.000  0.00  0.00     0.019 A 
ATOM     16  C   UNL d   1       2.307  -4.565   0.000  0.00  0.00     0.005 A 
ATOM     17  C   UNL d   1       3.012  -5.802   0.000  0.00  0.00     0.003 C 
ENDROOT
BRANCH   3  18
ATOM     18  S   UNL d   1       7.265  -3.350   0.000  0.00  0.00     0.213 S 
ATOM     19  O   UNL d   1       7.685  -4.069   0.000  0.00  0.00    -0.217 OA
ATOM     20  O   UNL d   1       6.859  -2.633   0.000  0.00  0.00    -0.217 OA
BRANCH  18  21
ATOM     21  C   UNL d   1       7.983  -2.931   0.000  0.00  0.00     0.088 A 
ATOM     22  C   UNL d   1       8.701  -3.337   0.000  0.00  0.00     0.014 A 
ATOM     23  C   UNL d   1       9.419  -2.917   0.000  0.00  0.00     0.030 A 
ATOM     24  C   UNL d   1       9.415  -2.091   0.000  0.00  0.00     0.140 A 
ATOM     25  C   UNL d   1       8.683  -1.684   0.000  0.00  0.00     0.030 A 
ATOM     26  F   UNL d   1      10.124  -1.666   0.000  0.00  0.00    -0.204 F 
ATOM     27  C   UNL d   1       7.970  -2.104   0.000  0.00  0.00     0.014 A 
ENDBRANCH  18  21
ENDBRANCH   3  18
BRANCH   6  28
ATOM     28  C   UNL d   1       5.825  -5.811   0.000  0.00  0.00     0.083 C 
BRANCH  28  29
ATOM     29  C   UNL d   1       5.098  -6.218   0.000  0.00  0.00     0.019 C 
ATOM     30  C   UNL d   1       4.380  -5.798   0.000  0.00  0.00     0.002 C 
ENDBRANCH  28  29
ENDBRANCH   6  28
TORSDOF 4
