REMARK  7 active torsions:
REMARK  status: ('A' for Active; 'I' for Inactive)
REMARK    1  A    between atoms: C_8  and  N_2 
REMARK    2  A    between atoms: C_13  and  C_8 
REMARK    3  A    between atoms: O_17  and  C_13 
REMARK    4  A    between atoms: O_18  and  C_15 
REMARK    5  A    between atoms: C_21  and  O_17 
REMARK    6  A    between atoms: C_23  and  C_21 
REMARK    7  A    between atoms: C_24  and  C_23 
ROOT
ATOM      1  C   UNL d   1       6.160  -2.972   0.000  0.00  0.00     0.166 A 
ATOM      2  N   UNL d   1       5.499  -3.454   0.000  0.00  0.00    -0.285 N 
ATOM      3  C   UNL d   1       5.902  -2.186   0.000  0.00  0.00     0.117 A 
ATOM      4  C   UNL d   1       5.079  -2.186   0.000  0.00  0.00     0.039 A 
ATOM      5  C   UNL d   1       4.826  -2.972   0.000  0.00  0.00     0.067 A 
ATOM      6  N   UNL d   1       6.962  -3.142   0.000  0.00  0.00    -0.225 NA
ATOM      7  N   UNL d   1       6.451  -1.563   0.000  0.00  0.00    -0.241 NA
ATOM      8  C   UNL d   1       7.519  -2.523   0.000  0.00  0.00     0.101 A 
ATOM      9  C   UNL d   1       7.261  -1.737   0.000  0.00  0.00     0.099 A 
ATOM     10  C   UNL d   1       4.019  -3.147   0.000  0.00  0.00     0.020 A 
ATOM     11  C   UNL d   1       4.526  -1.575   0.000  0.00  0.00     0.027 A 
ATOM     12  C   UNL d   1       3.720  -1.750   0.000  0.00  0.00     0.094 A 
ATOM     13  C   UNL d   1       3.466  -2.535   0.000  0.00  0.00     0.026 A 
ATOM     14  C   UNL d   1       7.810  -1.126   0.000  0.00  0.00     0.021 A 
ATOM     15  C   UNL d   1       8.321  -2.698   0.000  0.00  0.00     0.021 A 
ATOM     16  C   UNL d   1       8.616  -1.301   0.000  0.00  0.00     0.002 A 
ATOM     17  C   UNL d   1       8.878  -2.087   0.000  0.00  0.00     0.002 A 
ENDROOT
BRANCH   2  18
ATOM     18  C   UNL d   1       5.499  -4.277   0.000  0.00  0.00     0.151 C 
BRANCH  18  19
ATOM     19  C   UNL d   1       4.780  -4.680   0.000  0.00  0.00     0.318 C 
ATOM     20  O   UNL d   1       4.069  -4.269   0.000  0.00  0.00    -0.257 OA
BRANCH  19  21
ATOM     21  O   UNL d   1       4.776  -5.503   0.000  0.00  0.00    -0.270 OA
BRANCH  21  22
ATOM     22  C   UNL d   1       5.487  -5.915   0.000  0.00  0.00     0.126 C 
BRANCH  22  23
ATOM     23  C   UNL d   1       5.478  -6.738   0.000  0.00  0.00     0.027 C 
BRANCH  23  24
ATOM     24  C   UNL d   1       6.189  -7.157   0.000  0.00  0.00     0.002 C 
ATOM     25  C   UNL d   1       6.185  -7.980   0.000  0.00  0.00     0.000 C 
ENDBRANCH  23  24
ENDBRANCH  22  23
ENDBRANCH  21  22
ENDBRANCH  19  21
ENDBRANCH  18  19
ENDBRANCH   2  18
BRANCH  12  26
ATOM     26  O   UNL d   1       3.171  -1.139   0.000  0.00  0.00    -0.328 OA
ATOM     27  C   UNL d   1       3.421  -0.362   0.000  0.00  0.00     0.181 C 
ENDBRANCH  12  26
TORSDOF 7
