REMARK  3 active torsions:
REMARK  status: ('A' for Active; 'I' for Inactive)
REMARK    1  A    between atoms: C_9  and  N_1 
REMARK    2  A    between atoms: C_8  and  C_3 
REMARK    3  A    between atoms: C_17  and  C_9 
ROOT
ATOM      1  N   UNL d   1       6.534  -2.548   0.000  0.00  0.00    -0.269 N 
ATOM      2  N   UNL d   1       6.928  -3.826   0.000  0.00  0.00    -0.204 NA
ATOM      3  C   UNL d   1       6.268  -3.331   0.000  0.00  0.00     0.174 A 
ATOM      4  C   UNL d   1       7.359  -2.561   0.000  0.00  0.00     0.185 A 
ATOM      5  C   UNL d   1       7.606  -3.354   0.000  0.00  0.00     0.199 A 
ATOM      6  N   UNL d   1       7.922  -1.957   0.000  0.00  0.00    -0.224 NA
ATOM      7  N   UNL d   1       8.403  -3.537   0.000  0.00  0.00    -0.223 NA
ATOM      8  C   UNL d   1       8.729  -2.149   0.000  0.00  0.00     0.101 A 
ATOM      9  C   UNL d   1       8.967  -2.942   0.000  0.00  0.00     0.101 A 
ATOM     10  C   UNL d   1       9.297  -1.544   0.000  0.00  0.00     0.021 A 
ATOM     11  C   UNL d   1       9.764  -3.125   0.000  0.00  0.00     0.021 A 
ATOM     12  C   UNL d   1      10.094  -1.737   0.000  0.00  0.00     0.002 A 
ATOM     13  C   UNL d   1      10.328  -2.529   0.000  0.00  0.00     0.002 A 
ENDROOT
BRANCH   1  14
ATOM     14  C   UNL d   1       6.067  -1.874   0.000  0.00  0.00     0.108 C 
BRANCH  14  15
ATOM     15  C   UNL d   1       6.424  -1.132   0.000  0.00  0.00     0.118 A 
ATOM     16  O   UNL d   1       6.035  -0.403   0.000  0.00  0.00    -0.304 OA
ATOM     17  C   UNL d   1       6.603   0.192   0.000  0.00  0.00     0.123 A 
ATOM     18  C   UNL d   1       7.345  -0.165   0.000  0.00  0.00     0.029 A 
ATOM     19  C   UNL d   1       7.235  -0.981   0.000  0.00  0.00     0.028 A 
ENDBRANCH  14  15
ENDBRANCH   1  14
BRANCH   3  20
ATOM     20  C   UNL d   1       5.485  -3.579   0.000  0.00  0.00     0.135 A 
ATOM     21  O   UNL d   1       4.830  -3.065   0.000  0.00  0.00    -0.302 OA
ATOM     22  C   UNL d   1       4.096  -3.579   0.000  0.00  0.00     0.123 A 
ATOM     23  C   UNL d   1       4.344  -4.399   0.000  0.00  0.00     0.029 A 
ATOM     24  C   UNL d   1       5.223  -4.399   0.000  0.00  0.00     0.030 A 
ENDBRANCH   3  20
TORSDOF 3
