REMARK  6 active torsions:
REMARK  status: ('A' for Active; 'I' for Inactive)
REMARK    1  A    between atoms: C_11  and  N_4 
REMARK    2  A    between atoms: C_19  and  C_7 
REMARK    3  A    between atoms: C_17  and  C_11 
REMARK    4  A    between atoms: O_21  and  C_16 
REMARK    5  A    between atoms: C_20  and  C_17 
REMARK    6  A    between atoms: C_25  and  C_19 
ROOT
ATOM      1  C   UNL d   1       4.013  -1.570   0.000  0.00  0.00     0.137 A 
ATOM      2  C   UNL d   1       4.017  -2.397   0.000  0.00  0.00     0.192 A 
ATOM      3  C   UNL d   1       4.723  -1.151   0.000  0.00  0.00     0.272 A 
ATOM      4  N   UNL d   1       5.438  -1.558   0.000  0.00  0.00    -0.258 N 
ATOM      5  N   UNL d   1       4.728  -2.804   0.000  0.00  0.00    -0.204 NA
ATOM      6  C   UNL d   1       3.294  -1.163   0.000  0.00  0.00     0.205 A 
ATOM      7  C   UNL d   1       5.446  -2.385   0.000  0.00  0.00     0.152 A 
ATOM      8  C   UNL d   1       2.592  -1.575   0.000  0.00  0.00     0.062 A 
ATOM      9  O   UNL d   1       3.307  -2.808   0.000  0.00  0.00    -0.289 OA
ATOM     10  C   UNL d   1       2.592  -2.397   0.000  0.00  0.00     0.107 A 
ATOM     11  C   UNL d   1       1.874  -2.817   0.000  0.00  0.00     0.049 A 
ATOM     12  C   UNL d   1       1.874  -1.163   0.000  0.00  0.00     0.007 A 
ATOM     13  O   UNL d   1       4.715  -0.328   0.000  0.00  0.00    -0.266 OA
ATOM     14  O   UNL d   1       3.294  -0.341   0.000  0.00  0.00    -0.286 OA
ATOM     15  C   UNL d   1       1.163  -2.405   0.000  0.00  0.00     0.096 A 
ATOM     16  C   UNL d   1       1.163  -1.583   0.000  0.00  0.00     0.024 A 
ENDROOT
BRANCH   4  17
ATOM     17  C   UNL d   1       6.148  -1.138   0.000  0.00  0.00     0.084 C 
BRANCH  17  18
ATOM     18  C   UNL d   1       6.144  -0.303   0.000  0.00  0.00     0.019 C 
BRANCH  18  19
ATOM     19  C   UNL d   1       6.859   0.112   0.000  0.00  0.00     0.002 A 
ATOM     20  C   UNL d   1       6.846   0.943   0.000  0.00  0.00     0.000 A 
ATOM     21  C   UNL d   1       7.565   1.367   0.000  0.00  0.00     0.000 A 
ATOM     22  C   UNL d   1       8.288   0.960   0.000  0.00  0.00     0.000 A 
ATOM     23  C   UNL d   1       8.292   0.125   0.000  0.00  0.00     0.000 A 
ATOM     24  C   UNL d   1       7.577  -0.291   0.000  0.00  0.00     0.000 A 
ENDBRANCH  18  19
ENDBRANCH  17  18
ENDBRANCH   4  17
BRANCH   7  25
ATOM     25  C   UNL d   1       6.161  -2.796   0.000  0.00  0.00     0.038 C 
BRANCH  25  26
ATOM     26  C   UNL d   1       6.169  -3.618   0.000  0.00  0.00     0.003 C 
ATOM     27  C   UNL d   1       6.883  -4.017   0.000  0.00  0.00     0.000 C 
ENDBRANCH  25  26
ENDBRANCH   7  25
BRANCH  15  28
ATOM     28  O   UNL d   1       0.453  -2.808   0.000  0.00  0.00    -0.328 OA
ATOM     29  C   UNL d   1       0.453  -3.631   0.000  0.00  0.00     0.181 C 
ENDBRANCH  15  28
TORSDOF 6
