REMARK  4 active torsions:
REMARK  status: ('A' for Active; 'I' for Inactive)
REMARK    1  A    between atoms: S_3  and  N_1 
REMARK    2  A    between atoms: C_9  and  S_3 
REMARK    3  A    between atoms: C_10  and  N_5 
REMARK    4  A    between atoms: C_15  and  C_10 
ROOT
ATOM      1  N   UNL d   1       3.131  -0.879   0.000  0.00  0.00    -0.195 N 
ATOM      2  C   UNL d   1       3.934  -0.740   0.000  0.00  0.00     0.193 A 
ATOM      3  C   UNL d   1       4.462  -1.373   0.000  0.00  0.00     0.185 A 
ATOM      4  N   UNL d   1       3.997  -2.045   0.000  0.00  0.00    -0.269 N 
ATOM      5  C   UNL d   1       3.232  -1.766   0.000  0.00  0.00     0.179 A 
ATOM      6  N   UNL d   1       4.213   0.034   0.000  0.00  0.00    -0.223 NA
ATOM      7  N   UNL d   1       5.273  -1.230   0.000  0.00  0.00    -0.224 NA
ATOM      8  C   UNL d   1       5.024   0.173   0.000  0.00  0.00     0.101 A 
ATOM      9  C   UNL d   1       5.552  -0.456   0.000  0.00  0.00     0.101 A 
ATOM     10  C   UNL d   1       6.363  -0.308   0.000  0.00  0.00     0.021 A 
ATOM     11  C   UNL d   1       5.299   0.946   0.000  0.00  0.00     0.021 A 
ATOM     12  C   UNL d   1       6.110   1.086   0.000  0.00  0.00     0.002 A 
ATOM     13  C   UNL d   1       6.634   0.456   0.000  0.00  0.00     0.002 A 
ENDROOT
BRANCH   1  14
ATOM     14  S   UNL d   1       2.586  -0.169   0.000  0.00  0.00     0.274 S 
ATOM     15  O   UNL d   1       1.711  -0.334   0.000  0.00  0.00    -0.200 OA
ATOM     16  O   UNL d   1       2.083  -0.841   0.000  0.00  0.00    -0.200 OA
BRANCH  14  17
ATOM     17  C   UNL d   1       2.717   0.642   0.000  0.00  0.00     0.104 A 
ATOM     18  C   UNL d   1       2.070   1.166   0.000  0.00  0.00     0.013 A 
ATOM     19  C   UNL d   1       2.210   1.986   0.000  0.00  0.00     0.001 A 
ATOM     20  C   UNL d   1       2.983   2.277   0.000  0.00  0.00     0.000 A 
ATOM     21  C   UNL d   1       3.625   1.745   0.000  0.00  0.00     0.001 A 
ATOM     22  C   UNL d   1       3.118   3.089   0.000  0.00  0.00     0.000 C 
ATOM     23  C   UNL d   1       3.490   0.934   0.000  0.00  0.00     0.013 A 
ENDBRANCH  14  17
ENDBRANCH   1  14
BRANCH   4  24
ATOM     24  C   UNL d   1       4.251  -2.831   0.000  0.00  0.00     0.108 C 
BRANCH  24  25
ATOM     25  C   UNL d   1       5.062  -3.009   0.000  0.00  0.00     0.118 A 
ATOM     26  O   UNL d   1       5.392  -3.769   0.000  0.00  0.00    -0.304 OA
ATOM     27  C   UNL d   1       6.228  -3.693   0.000  0.00  0.00     0.123 A 
ATOM     28  C   UNL d   1       6.406  -2.882   0.000  0.00  0.00     0.029 A 
ATOM     29  C   UNL d   1       5.683  -2.463   0.000  0.00  0.00     0.028 A 
ENDBRANCH  24  25
ENDBRANCH   4  24
TORSDOF 4
