REMARK  7 active torsions:
REMARK  status: ('A' for Active; 'I' for Inactive)
REMARK    1  A    between atoms: C_4  and  C_1 
REMARK    2  A    between atoms: N_5  and  C_3 
REMARK    3  A    between atoms: C_9  and  C_4 
REMARK       I    between atoms: C_7  and  N_5 
REMARK    4  A    between atoms: C_10  and  C_7 
REMARK       I    between atoms: N_14  and  C_9 
REMARK    5  A    between atoms: C_20  and  N_14 
REMARK    6  A    between atoms: C_21  and  C_20 
REMARK    7  A    between atoms: O_29  and  C_22 
ROOT
ATOM      1  C   UNL d   1       4.597  -1.856   0.000  0.00  0.00     0.144 C 
ATOM      2  C   UNL d   1       3.779  -1.756   0.000  0.00  0.00     0.107 C 
ATOM      3  N   UNL d   1       2.966  -1.664   0.000  0.00  0.00    -0.191 NA
ENDROOT
BRANCH   1   4
ATOM      4  C   UNL d   1       4.931  -2.620   0.000  0.00  0.00     0.097 A 
ATOM      5  N   UNL d   1       5.723  -2.853   0.000  0.00  0.00    -0.226 NA
ATOM      6  C   UNL d   1       5.748  -3.679   0.000  0.00  0.00     0.166 A 
ATOM      7  C   UNL d   1       4.972  -3.959   0.000  0.00  0.00     0.037 A 
ATOM      8  C   UNL d   1       4.459  -3.308   0.000  0.00  0.00     0.021 A 
ATOM      9  C   UNL d   1       4.660  -4.722   0.000  0.00  0.00     0.003 A 
ATOM     10  C   UNL d   1       3.646  -3.421   0.000  0.00  0.00     0.002 A 
ATOM     11  C   UNL d   1       3.333  -4.184   0.000  0.00  0.00     0.000 A 
ATOM     12  C   UNL d   1       3.846  -4.835   0.000  0.00  0.00     0.000 A 
BRANCH   6  13
ATOM     13  N   UNL d   1       6.399  -4.171   0.000  0.00  0.00    -0.189 NA
ATOM     14  C   UNL d   1       6.424  -5.006   0.000  0.00  0.00     0.286 C 
ATOM     15  O   UNL d   1       5.711  -5.419   0.000  0.00  0.00    -0.265 OA
BRANCH  14  16
ATOM     16  C   UNL d   1       7.137  -5.419   0.000  0.00  0.00     0.087 A 
ATOM     17  S   UNL d   1       7.137  -6.245   0.000  0.00  0.00    -0.082 SA
ATOM     18  C   UNL d   1       7.926  -6.495   0.000  0.00  0.00     0.036 A 
ATOM     19  C   UNL d   1       8.410  -5.823   0.000  0.00  0.00     0.008 A 
ATOM     20  C   UNL d   1       7.922  -5.160   0.000  0.00  0.00     0.012 A 
ENDBRANCH  14  16
ENDBRANCH   6  13
ENDBRANCH   1   4
BRANCH   1  21
ATOM     21  C   UNL d   1       5.093  -1.193   0.000  0.00  0.00     0.290 C 
ATOM     22  N   UNL d   1       4.772  -0.438   0.000  0.00  0.00    -0.206 NA
ATOM     23  O   UNL d   1       5.911  -1.289   0.000  0.00  0.00    -0.264 OA
BRANCH  22  24
ATOM     24  C   UNL d   1       3.946  -0.342   0.000  0.00  0.00     0.102 C 
BRANCH  24  25
ATOM     25  C   UNL d   1       3.433   0.309   0.000  0.00  0.00     0.019 A 
ATOM     26  C   UNL d   1       2.620   0.183   0.000  0.00  0.00     0.004 A 
ATOM     27  C   UNL d   1       2.107   0.822   0.000  0.00  0.00     0.024 A 
ATOM     28  C   UNL d   1       2.407   1.598   0.000  0.00  0.00     0.094 A 
ATOM     29  C   UNL d   1       3.220   1.723   0.000  0.00  0.00     0.024 A 
ATOM     30  C   UNL d   1       3.733   1.072   0.000  0.00  0.00     0.004 A 
BRANCH  28  31
ATOM     31  O   UNL d   1       1.894   2.240   0.000  0.00  0.00    -0.328 OA
ATOM     32  C   UNL d   1       1.076   2.123   0.000  0.00  0.00     0.181 C 
ENDBRANCH  28  31
ENDBRANCH  24  25
ENDBRANCH  22  24
ENDBRANCH   1  21
TORSDOF 7
