REMARK  8 active torsions:
REMARK  status: ('A' for Active; 'I' for Inactive)
REMARK    1  A    between atoms: C_5  and  C_1 
REMARK    2  A    between atoms: N_6  and  C_2 
REMARK    3  A    between atoms: C_7  and  C_5 
REMARK    4  A    between atoms: C_8  and  C_5 
REMARK    5  A    between atoms: O_12  and  C_7 
REMARK    6  A    between atoms: C_14  and  O_12 
REMARK    7  A    between atoms: C_19  and  C_14 
REMARK    8  A    between atoms: C_20  and  C_19 
ROOT
ATOM      1  C   UNL d   1       2.646  -0.667   0.000  0.00  0.00     0.122 A 
ATOM      2  C   UNL d   1       2.655  -1.489   0.000  0.00  0.00     0.166 A 
ATOM      3  N   UNL d   1       1.938  -1.904   0.000  0.00  0.00    -0.225 NA
ATOM      4  N   UNL d   1       1.929  -0.256   0.000  0.00  0.00    -0.241 NA
ATOM      5  C   UNL d   1       1.225  -1.497   0.000  0.00  0.00     0.101 A 
ATOM      6  C   UNL d   1       1.220  -0.671   0.000  0.00  0.00     0.099 A 
ATOM      7  C   UNL d   1       0.516  -1.912   0.000  0.00  0.00     0.021 A 
ATOM      8  C   UNL d   1       0.507  -0.264   0.000  0.00  0.00     0.021 A 
ATOM      9  C   UNL d   1      -0.210  -0.671   0.000  0.00  0.00     0.002 A 
ATOM     10  C   UNL d   1      -0.201  -1.501   0.000  0.00  0.00     0.002 A 
ENDROOT
BRANCH   1  11
ATOM     11  C   UNL d   1       3.364  -0.243   0.000  0.00  0.00     0.105 C 
BRANCH  11  12
ATOM     12  C   UNL d   1       3.359   0.579   0.000  0.00  0.00     0.303 C 
ATOM     13  O   UNL d   1       2.646   0.990   0.000  0.00  0.00    -0.259 OA
BRANCH  12  14
ATOM     14  O   UNL d   1       4.076   0.994   0.000  0.00  0.00    -0.271 OA
BRANCH  14  15
ATOM     15  C   UNL d   1       4.479   1.707   0.000  0.00  0.00     0.126 C 
BRANCH  15  16
ATOM     16  C   UNL d   1       5.297   1.711   0.000  0.00  0.00     0.025 C 
ATOM     17  C   UNL d   1       5.704   1.002   0.000  0.00  0.00     0.002 C 
BRANCH  16  18
ATOM     18  C   UNL d   1       5.704   2.428   0.000  0.00  0.00     0.002 C 
ATOM     19  C   UNL d   1       5.288   3.141   0.000  0.00  0.00     0.000 C 
ENDBRANCH  16  18
ENDBRANCH  15  16
ENDBRANCH  14  15
ENDBRANCH  12  14
ENDBRANCH  11  12
BRANCH  11  20
ATOM     20  C   UNL d   1       4.089  -0.654   0.000  0.00  0.00     0.129 C 
ATOM     21  N   UNL d   1       4.932  -0.205   0.000  0.00  0.00    -0.146 N 
ENDBRANCH  11  20
ENDBRANCH   1  11
BRANCH   2  22
ATOM     22  N   UNL d   1       3.372  -1.904   0.000  0.00  0.00    -0.288 N 
ATOM     23  C   UNL d   1       4.081  -1.485   0.000  0.00  0.00     0.082 A 
ATOM     24  C   UNL d   1       4.798  -1.904   0.000  0.00  0.00     0.019 A 
ATOM     25  C   UNL d   1       4.798  -2.734   0.000  0.00  0.00     0.003 A 
ATOM     26  C   UNL d   1       4.081  -3.145   0.000  0.00  0.00     0.019 A 
ATOM     27  C   UNL d   1       3.372  -2.734   0.000  0.00  0.00     0.082 A 
ENDBRANCH   2  22
TORSDOF 8
