REMARK  4 active torsions:
REMARK  status: ('A' for Active; 'I' for Inactive)
REMARK    1  A    between atoms: C_2  and  C_1 
REMARK    2  A    between atoms: C_13  and  N_5 
REMARK    3  A    between atoms: C_16  and  C_13 
REMARK    4  A    between atoms: C_17  and  C_16 
ROOT
ATOM      1  C   UNL d   1       4.495  -4.579   0.000  0.00  0.00     0.112 A 
ATOM      2  C   UNL d   1       4.921  -5.283   0.000  0.00  0.00     0.176 A 
ATOM      3  N   UNL d   1       5.730  -5.096   0.000  0.00  0.00    -0.285 N 
ATOM      4  C   UNL d   1       5.042  -3.957   0.000  0.00  0.00     0.219 A 
ATOM      5  C   UNL d   1       5.796  -4.278   0.000  0.00  0.00     0.124 A 
ATOM      6  O   UNL d   1       4.858  -3.144   0.000  0.00  0.00    -0.285 OA
ATOM      7  N   UNL d   1       4.591  -6.047   0.000  0.00  0.00    -0.128 N 
ENDROOT
BRANCH   1   8
ATOM      8  C   UNL d   1       3.670  -4.533   0.000  0.00  0.00     0.169 A 
ATOM      9  N   UNL d   1       3.182  -3.866   0.000  0.00  0.00    -0.225 NA
ATOM     10  C   UNL d   1       2.402  -4.120   0.000  0.00  0.00     0.101 A 
ATOM     11  C   UNL d   1       1.689  -3.707   0.000  0.00  0.00     0.021 A 
ATOM     12  C   UNL d   1       2.402  -4.946   0.000  0.00  0.00     0.101 A 
ATOM     13  C   UNL d   1       0.968  -4.120   0.000  0.00  0.00     0.002 A 
ATOM     14  C   UNL d   1       0.968  -4.946   0.000  0.00  0.00     0.002 A 
ATOM     15  C   UNL d   1       1.689  -5.359   0.000  0.00  0.00     0.021 A 
ATOM     16  N   UNL d   1       3.182  -5.196   0.000  0.00  0.00    -0.225 NA
ENDBRANCH   1   8
BRANCH   3  17
ATOM     17  C   UNL d   1       6.355  -5.642   0.000  0.00  0.00     0.082 C 
BRANCH  17  18
ATOM     18  C   UNL d   1       7.122  -5.371   0.000  0.00  0.00     0.019 C 
BRANCH  18  19
ATOM     19  C   UNL d   1       7.748  -5.909   0.000  0.00  0.00     0.002 C 
ATOM     20  C   UNL d   1       8.519  -5.634   0.000  0.00  0.00     0.000 C 
ENDBRANCH  18  19
ENDBRANCH  17  18
ENDBRANCH   3  17
TORSDOF 4
