REMARK  7 active torsions:
REMARK  status: ('A' for Active; 'I' for Inactive)
REMARK    1  A    between atoms: C_7  and  C_1 
REMARK    2  A    between atoms: C_11  and  N_2 
REMARK    3  A    between atoms: C_10  and  C_5 
REMARK    4  A    between atoms: C_6  and  C_7 
REMARK    5  A    between atoms: C_18  and  C_11 
REMARK    6  A    between atoms: O_20  and  C_15 
REMARK    7  A    between atoms: N_19  and  C_18 
ROOT
ATOM      1  C   UNL d   1       6.903  -4.179   0.000  0.00  0.00     0.101 A 
ATOM      2  N   UNL d   1       5.568  -4.179   0.000  0.00  0.00    -0.269 N 
ATOM      3  C   UNL d   1       6.646  -4.966   0.000  0.00  0.00     0.256 A 
ATOM      4  C   UNL d   1       5.824  -4.966   0.000  0.00  0.00     0.304 A 
ATOM      5  C   UNL d   1       6.233  -3.699   0.000  0.00  0.00     0.075 A 
ATOM      6  O   UNL d   1       5.339  -5.640   0.000  0.00  0.00    -0.263 OA
ATOM      7  O   UNL d   1       7.132  -5.640   0.000  0.00  0.00    -0.281 OA
ENDROOT
BRANCH   1   8
ATOM      8  C   UNL d   1       7.689  -3.928   0.000  0.00  0.00     0.223 C 
ATOM      9  O   UNL d   1       7.864  -3.119   0.000  0.00  0.00    -0.284 OA
BRANCH   8  10
ATOM     10  C   UNL d   1       8.305  -4.476   0.000  0.00  0.00     0.139 A 
ATOM     11  O   UNL d   1       9.114  -4.301   0.000  0.00  0.00    -0.304 OA
ATOM     12  C   UNL d   1       9.523  -5.015   0.000  0.00  0.00     0.100 A 
ATOM     13  C   UNL d   1      10.332  -5.181   0.000  0.00  0.00     0.025 A 
ATOM     14  C   UNL d   1       8.979  -5.626   0.000  0.00  0.00     0.025 A 
ATOM     15  C   UNL d   1      10.588  -5.959   0.000  0.00  0.00     0.002 A 
ATOM     16  C   UNL d   1      10.035  -6.570   0.000  0.00  0.00     0.000 A 
ATOM     17  C   UNL d   1       9.235  -6.408   0.000  0.00  0.00     0.002 A 
ATOM     18  C   UNL d   1       8.224  -5.289   0.000  0.00  0.00     0.030 A 
ENDBRANCH   8  10
ENDBRANCH   1   8
BRANCH   5  19
ATOM     19  C   UNL d   1       6.242  -2.863   0.000  0.00  0.00     0.039 A 
ATOM     20  C   UNL d   1       5.527  -2.445   0.000  0.00  0.00     0.096 A 
ATOM     21  C   UNL d   1       5.532  -1.622   0.000  0.00  0.00     0.024 A 
ATOM     22  C   UNL d   1       6.260  -1.204   0.000  0.00  0.00     0.002 A 
ATOM     23  C   UNL d   1       6.975  -1.631   0.000  0.00  0.00     0.000 A 
ATOM     24  C   UNL d   1       6.961  -2.458   0.000  0.00  0.00     0.003 A 
BRANCH  20  25
ATOM     25  O   UNL d   1       4.813  -2.858   0.000  0.00  0.00    -0.328 OA
ATOM     26  C   UNL d   1       4.098  -2.440   0.000  0.00  0.00     0.181 C 
ENDBRANCH  20  25
ENDBRANCH   5  19
BRANCH   2  27
ATOM     27  C   UNL d   1       4.777  -3.928   0.000  0.00  0.00     0.102 C 
BRANCH  27  28
ATOM     28  C   UNL d   1       4.166  -4.480   0.000  0.00  0.00     0.100 C 
BRANCH  28  29
ATOM     29  N   UNL d   1       3.375  -4.224   0.000  0.00  0.00    -0.299 N 
ATOM     30  C   UNL d   1       3.209  -3.415   0.000  0.00  0.00     0.100 C 
ATOM     31  C   UNL d   1       2.768  -4.777   0.000  0.00  0.00     0.100 C 
ENDBRANCH  28  29
ENDBRANCH  27  28
ENDBRANCH   2  27
TORSDOF 7
