REMARK  6 active torsions:
REMARK  status: ('A' for Active; 'I' for Inactive)
REMARK    1  A    between atoms: N_3  and  C_1 
REMARK    2  A    between atoms: C_5  and  C_2 
REMARK    3  A    between atoms: C_7  and  C_5 
REMARK    4  A    between atoms: C_8  and  C_5 
REMARK    5  A    between atoms: O_15  and  C_7 
REMARK    6  A    between atoms: C_19  and  O_15 
ROOT
ATOM      1  C   UNL d   1       3.723  -2.111   0.000  0.00  0.00     0.166 A 
ATOM      2  C   UNL d   1       3.723  -1.286   0.000  0.00  0.00     0.122 A 
ATOM      3  N   UNL d   1       3.007  -2.530   0.000  0.00  0.00    -0.225 NA
ATOM      4  N   UNL d   1       3.003  -0.879   0.000  0.00  0.00    -0.241 NA
ATOM      5  C   UNL d   1       2.291  -2.115   0.000  0.00  0.00     0.101 A 
ATOM      6  C   UNL d   1       2.291  -1.294   0.000  0.00  0.00     0.099 A 
ATOM      7  C   UNL d   1       1.587  -2.530   0.000  0.00  0.00     0.021 A 
ATOM      8  C   UNL d   1       1.575  -0.884   0.000  0.00  0.00     0.021 A 
ATOM      9  C   UNL d   1       0.867  -1.298   0.000  0.00  0.00     0.002 A 
ATOM     10  C   UNL d   1       0.867  -2.123   0.000  0.00  0.00     0.002 A 
ENDROOT
BRANCH   2  11
ATOM     11  C   UNL d   1       4.439  -0.867   0.000  0.00  0.00     0.105 C 
BRANCH  11  12
ATOM     12  C   UNL d   1       4.435  -0.042   0.000  0.00  0.00     0.303 C 
ATOM     13  O   UNL d   1       3.719   0.364   0.000  0.00  0.00    -0.259 OA
BRANCH  12  14
ATOM     14  O   UNL d   1       5.143   0.373   0.000  0.00  0.00    -0.273 OA
BRANCH  14  15
ATOM     15  C   UNL d   1       5.545   1.089   0.000  0.00  0.00     0.103 A 
ATOM     16  C   UNL d   1       6.370   1.089   0.000  0.00  0.00     0.025 A 
ATOM     17  C   UNL d   1       6.776   1.805   0.000  0.00  0.00     0.002 A 
ATOM     18  C   UNL d   1       6.362   2.509   0.000  0.00  0.00     0.000 A 
ATOM     19  C   UNL d   1       5.545   2.509   0.000  0.00  0.00     0.002 A 
ATOM     20  C   UNL d   1       5.130   1.792   0.000  0.00  0.00     0.025 A 
ENDBRANCH  14  15
ENDBRANCH  12  14
ENDBRANCH  11  12
BRANCH  11  21
ATOM     21  C   UNL d   1       5.164  -1.273   0.000  0.00  0.00     0.129 C 
ATOM     22  N   UNL d   1       6.006  -0.829   0.000  0.00  0.00    -0.146 N 
ENDBRANCH  11  21
ENDBRANCH   2  11
BRANCH   1  23
ATOM     23  N   UNL d   1       4.439  -2.525   0.000  0.00  0.00    -0.284 N 
ATOM     24  C   UNL d   1       4.439  -3.355   0.000  0.00  0.00     0.106 A 
ATOM     25  C   UNL d   1       5.155  -3.761   0.000  0.00  0.00     0.118 A 
ATOM     26  C   UNL d   1       5.151  -4.590   0.000  0.00  0.00     0.028 C 
ATOM     27  O   UNL d   1       5.872  -3.355   0.000  0.00  0.00    -0.304 OA
ATOM     28  C   UNL d   1       5.872  -2.525   0.000  0.00  0.00     0.118 A 
ATOM     29  C   UNL d   1       5.155  -2.102   0.000  0.00  0.00     0.106 A 
ATOM     30  C   UNL d   1       6.588  -2.102   0.000  0.00  0.00     0.028 C 
ENDBRANCH   1  23
TORSDOF 6
