REMARK  10 active torsions:
REMARK  status: ('A' for Active; 'I' for Inactive)
REMARK    1  A    between atoms: C_5  and  C_1 
REMARK    2  A    between atoms: N_6  and  C_2 
REMARK    3  A    between atoms: C_7  and  C_5 
REMARK    4  A    between atoms: C_8  and  C_5 
REMARK    5  A    between atoms: O_13  and  C_7 
REMARK    6  A    between atoms: C_20  and  N_12 
REMARK    7  A    between atoms: C_19  and  O_13 
REMARK    8  A    between atoms: C_23  and  C_19 
REMARK    9  A    between atoms: C_24  and  C_23 
REMARK   10  A    between atoms: C_25  and  C_23 
ROOT
ATOM      1  C   UNL d   1       3.349  -1.282   0.000  0.00  0.00     0.122 A 
ATOM      2  C   UNL d   1       3.357  -2.104   0.000  0.00  0.00     0.166 A 
ATOM      3  N   UNL d   1       2.643  -2.509   0.000  0.00  0.00    -0.225 NA
ATOM      4  N   UNL d   1       2.635  -0.869   0.000  0.00  0.00    -0.241 NA
ATOM      5  C   UNL d   1       1.933  -2.109   0.000  0.00  0.00     0.101 A 
ATOM      6  C   UNL d   1       1.929  -1.282   0.000  0.00  0.00     0.099 A 
ATOM      7  C   UNL d   1       1.219  -2.522   0.000  0.00  0.00     0.021 A 
ATOM      8  C   UNL d   1       1.219  -0.877   0.000  0.00  0.00     0.021 A 
ATOM      9  C   UNL d   1       0.505  -2.109   0.000  0.00  0.00     0.002 A 
ATOM     10  C   UNL d   1       0.505  -1.290   0.000  0.00  0.00     0.002 A 
ENDROOT
BRANCH   1  11
ATOM     11  C   UNL d   1       4.063  -0.856   0.000  0.00  0.00     0.105 C 
BRANCH  11  12
ATOM     12  C   UNL d   1       4.063  -0.029   0.000  0.00  0.00     0.303 C 
ATOM     13  O   UNL d   1       3.349   0.363   0.000  0.00  0.00    -0.259 OA
BRANCH  12  14
ATOM     14  O   UNL d   1       4.772   0.372   0.000  0.00  0.00    -0.271 OA
BRANCH  14  15
ATOM     15  C   UNL d   1       5.173   1.085   0.000  0.00  0.00     0.126 C 
BRANCH  15  16
ATOM     16  C   UNL d   1       5.987   1.085   0.000  0.00  0.00     0.025 C 
BRANCH  16  17
ATOM     17  C   UNL d   1       6.392   0.384   0.000  0.00  0.00     0.002 C 
ATOM     18  C   UNL d   1       7.219   0.384   0.000  0.00  0.00     0.000 C 
ENDBRANCH  16  17
BRANCH  16  19
ATOM     19  C   UNL d   1       6.392   1.800   0.000  0.00  0.00     0.002 C 
ATOM     20  C   UNL d   1       5.987   2.514   0.000  0.00  0.00     0.000 C 
ENDBRANCH  16  19
ENDBRANCH  15  16
ENDBRANCH  14  15
ENDBRANCH  12  14
ENDBRANCH  11  12
BRANCH  11  21
ATOM     21  C   UNL d   1       4.785  -1.269   0.000  0.00  0.00     0.129 C 
ATOM     22  N   UNL d   1       5.628  -0.827   0.000  0.00  0.00    -0.146 N 
ENDBRANCH  11  21
ENDBRANCH   1  11
BRANCH   2  23
ATOM     23  N   UNL d   1       4.071  -2.509   0.000  0.00  0.00    -0.285 N 
ATOM     24  C   UNL d   1       4.777  -2.096   0.000  0.00  0.00     0.101 A 
ATOM     25  C   UNL d   1       5.491  -2.509   0.000  0.00  0.00     0.100 A 
ATOM     26  N   UNL d   1       5.491  -3.336   0.000  0.00  0.00    -0.300 N 
ATOM     27  C   UNL d   1       4.777  -3.749   0.000  0.00  0.00     0.100 A 
ATOM     28  C   UNL d   1       4.071  -3.336   0.000  0.00  0.00     0.101 A 
BRANCH  26  29
ATOM     29  C   UNL d   1       6.213  -3.749   0.000  0.00  0.00     0.080 C 
ATOM     30  C   UNL d   1       6.205  -4.576   0.000  0.00  0.00     0.021 C 
ENDBRANCH  26  29
ENDBRANCH   2  23
TORSDOF 10
