REMARK  4 active torsions:
REMARK  status: ('A' for Active; 'I' for Inactive)
REMARK    1  A    between atoms: N_5  and  C_1 
REMARK    2  A    between atoms: S_2  and  N_5 
REMARK    3  A    between atoms: C_7  and  S_2 
REMARK    4  A    between atoms: N_10  and  C_3 
ROOT
ATOM      1  C   UNL d   1       1.767  -2.017   0.000  0.00  0.00     0.146 A 
ATOM      2  C   UNL d   1       1.779  -1.192   0.000  0.00  0.00     0.105 A 
ATOM      3  C   UNL d   1       1.067  -0.779   0.000  0.00  0.00     0.208 A 
ATOM      4  C   UNL d   1       1.050  -2.429   0.000  0.00  0.00     0.215 A 
ATOM      5  C   UNL d   1       0.354  -1.179   0.000  0.00  0.00     0.043 A 
ATOM      6  C   UNL d   1       0.342  -2.004   0.000  0.00  0.00     0.044 A 
ATOM      7  O   UNL d   1       1.079   0.046   0.000  0.00  0.00    -0.285 OA
ATOM      8  O   UNL d   1       1.054  -3.254   0.000  0.00  0.00    -0.285 OA
ATOM      9  C   UNL d   1      -0.358  -0.767   0.000  0.00  0.00     0.003 A 
ATOM     10  C   UNL d   1      -0.371  -2.404   0.000  0.00  0.00     0.003 A 
ATOM     11  C   UNL d   1      -1.075  -1.175   0.000  0.00  0.00     0.000 A 
ATOM     12  C   UNL d   1      -1.083  -1.992   0.000  0.00  0.00     0.000 A 
ENDROOT
BRANCH   1  13
ATOM     13  N   UNL d   1       2.479  -2.442   0.000  0.00  0.00    -0.154 NA
BRANCH  13  14
ATOM     14  S   UNL d   1       2.475  -3.267   0.000  0.00  0.00     0.291 S 
ATOM     15  O   UNL d   1       1.650  -3.263   0.000  0.00  0.00    -0.198 OA
ATOM     16  O   UNL d   1       2.467  -4.092   0.000  0.00  0.00    -0.198 OA
BRANCH  14  17
ATOM     17  C   UNL d   1       3.300  -3.267   0.000  0.00  0.00     0.135 A 
ATOM     18  S   UNL d   1       3.879  -3.850   0.000  0.00  0.00    -0.073 SA
ATOM     19  C   UNL d   1       4.617  -3.475   0.000  0.00  0.00     0.036 A 
ATOM     20  C   UNL d   1       4.492  -2.663   0.000  0.00  0.00     0.008 A 
ATOM     21  C   UNL d   1       3.675  -2.529   0.000  0.00  0.00     0.020 A 
ENDBRANCH  14  17
ENDBRANCH  13  14
ENDBRANCH   1  13
BRANCH   2  22
ATOM     22  N   UNL d   1       2.500  -0.792   0.000  0.00  0.00    -0.201 NA
ATOM     23  C   UNL d   1       3.117  -1.017   0.000  0.00  0.00     0.082 A 
ATOM     24  C   UNL d   1       4.025  -0.537   0.000  0.00  0.00     0.136 A 
ATOM     25  O   UNL d   1       4.504  -1.288   0.000  0.00  0.00    -0.301 OA
ATOM     26  C   UNL d   1       3.892  -1.012   0.000  0.00  0.00     0.136 A 
ATOM     27  C   UNL d   1       2.904  -1.500   0.000  0.00  0.00     0.082 A 
ENDBRANCH   2  22
TORSDOF 4
