REMARK  4 active torsions:
REMARK  status: ('A' for Active; 'I' for Inactive)
REMARK    1  A    between atoms: C_2  and  C_1 
REMARK    2  A    between atoms: C_11  and  N_5 
REMARK    3  A    between atoms: C_14  and  C_11 
REMARK    4  A    between atoms: C_17  and  C_14 
ROOT
ATOM      1  C   UNL d   1       5.857  -3.306   0.000  0.00  0.00     0.112 A 
ATOM      2  C   UNL d   1       6.232  -4.031   0.000  0.00  0.00     0.176 A 
ATOM      3  N   UNL d   1       7.053  -3.893   0.000  0.00  0.00    -0.285 N 
ATOM      4  C   UNL d   1       6.432  -2.718   0.000  0.00  0.00     0.219 A 
ATOM      5  C   UNL d   1       7.166  -3.089   0.000  0.00  0.00     0.124 A 
ATOM      6  O   UNL d   1       6.307  -1.905   0.000  0.00  0.00    -0.285 OA
ATOM      7  N   UNL d   1       5.865  -4.781   0.000  0.00  0.00    -0.128 N 
ENDROOT
BRANCH   1   8
ATOM      8  C   UNL d   1       5.032  -3.218   0.000  0.00  0.00     0.169 A 
ATOM      9  N   UNL d   1       4.552  -2.551   0.000  0.00  0.00    -0.225 NA
ATOM     10  C   UNL d   1       3.768  -2.805   0.000  0.00  0.00     0.101 A 
ATOM     11  C   UNL d   1       3.056  -2.393   0.000  0.00  0.00     0.021 A 
ATOM     12  C   UNL d   1       3.768  -3.631   0.000  0.00  0.00     0.101 A 
ATOM     13  C   UNL d   1       2.339  -2.805   0.000  0.00  0.00     0.002 A 
ATOM     14  C   UNL d   1       2.339  -3.631   0.000  0.00  0.00     0.002 A 
ATOM     15  C   UNL d   1       3.056  -4.044   0.000  0.00  0.00     0.021 A 
ATOM     16  N   UNL d   1       4.552  -3.881   0.000  0.00  0.00    -0.225 NA
ENDBRANCH   1   8
BRANCH   3  17
ATOM     17  C   UNL d   1       7.645  -4.469   0.000  0.00  0.00     0.082 C 
BRANCH  17  18
ATOM     18  C   UNL d   1       7.445  -5.269   0.000  0.00  0.00     0.019 C 
BRANCH  18  19
ATOM     19  C   UNL d   1       8.033  -5.844   0.000  0.00  0.00     0.002 C 
ATOM     20  C   UNL d   1       7.833  -6.645   0.000  0.00  0.00     0.000 C 
ATOM     21  C   UNL d   1       8.829  -5.619   0.000  0.00  0.00     0.000 C 
ENDBRANCH  18  19
ENDBRANCH  17  18
ENDBRANCH   3  17
TORSDOF 4
