REMARK  3 active torsions:
REMARK  status: ('A' for Active; 'I' for Inactive)
REMARK    1  A    between atoms: C_5  and  N_1 
REMARK    2  A    between atoms: C_13  and  C_6 
REMARK    3  A    between atoms: O_24  and  C_19 
ROOT
ATOM      1  N   UNL d   1       3.664  -2.218   0.000  0.00  0.00    -0.256 N 
ATOM      2  C   UNL d   1       2.385  -1.811   0.000  0.00  0.00     0.083 A 
ATOM      3  C   UNL d   1       2.393  -2.634   0.000  0.00  0.00     0.161 A 
ATOM      4  C   UNL d   1       3.182  -2.891   0.000  0.00  0.00     0.289 A 
ATOM      5  C   UNL d   1       3.170  -1.550   0.000  0.00  0.00     0.075 A 
ATOM      6  C   UNL d   1       1.670  -1.400   0.000  0.00  0.00     0.201 A 
ATOM      7  O   UNL d   1       1.674  -3.053   0.000  0.00  0.00    -0.302 OA
ATOM      8  C   UNL d   1       0.960  -1.819   0.000  0.00  0.00     0.063 A 
ATOM      9  C   UNL d   1       0.964  -2.642   0.000  0.00  0.00     0.103 A 
ATOM     10  O   UNL d   1       3.440  -3.668   0.000  0.00  0.00    -0.264 OA
ATOM     11  O   UNL d   1       1.662  -0.578   0.000  0.00  0.00    -0.286 OA
ATOM     12  C   UNL d   1       0.241  -1.408   0.000  0.00  0.00     0.017 A 
ATOM     13  C   UNL d   1       0.241  -3.058   0.000  0.00  0.00     0.026 A 
ATOM     14  C   UNL d   1      -0.469  -1.819   0.000  0.00  0.00     0.058 A 
ATOM     15  C   UNL d   1      -0.469  -2.646   0.000  0.00  0.00     0.013 A 
ATOM     16 CL   UNL d   1      -1.180  -1.413   0.000  0.00  0.00    -0.082 Cl
ENDROOT
BRANCH   5  17
ATOM     17  C   UNL d   1       3.166  -0.727   0.000  0.00  0.00     0.039 A 
ATOM     18  C   UNL d   1       3.876  -0.303   0.000  0.00  0.00     0.096 A 
ATOM     19  C   UNL d   1       3.868   0.519   0.000  0.00  0.00     0.024 A 
ATOM     20  C   UNL d   1       3.145   0.930   0.000  0.00  0.00     0.002 A 
ATOM     21  C   UNL d   1       2.434   0.507   0.000  0.00  0.00     0.000 A 
ATOM     22  C   UNL d   1       2.447  -0.324   0.000  0.00  0.00     0.003 A 
BRANCH  18  23
ATOM     23  O   UNL d   1       4.590  -0.715   0.000  0.00  0.00    -0.328 OA
ATOM     24  C   UNL d   1       5.301  -0.299   0.000  0.00  0.00     0.181 C 
ENDBRANCH  18  23
ENDBRANCH   5  17
BRANCH   1  25
ATOM     25  C   UNL d   1       4.487  -2.210   0.000  0.00  0.00     0.179 A 
ATOM     26  N   UNL d   1       4.977  -2.866   0.000  0.00  0.00    -0.108 NA
ATOM     27  O   UNL d   1       5.758  -2.605   0.000  0.00  0.00    -0.210 OA
ATOM     28  C   UNL d   1       5.749  -1.782   0.000  0.00  0.00     0.128 A 
ATOM     29  C   UNL d   1       4.964  -1.533   0.000  0.00  0.00     0.067 A 
ATOM     30  C   UNL d   1       6.410  -1.288   0.000  0.00  0.00     0.029 C 
ENDBRANCH   1  25
TORSDOF 3
