REMARK  6 active torsions:
REMARK  status: ('A' for Active; 'I' for Inactive)
REMARK    1  A    between atoms: C_6  and  C_1 
REMARK    2  A    between atoms: N_4  and  C_2 
REMARK       I    between atoms: C_8  and  N_4 
REMARK    3  A    between atoms: C_11  and  C_8 
REMARK    4  A    between atoms: O_22  and  C_10 
REMARK    5  A    between atoms: O_24  and  C_12 
REMARK    6  A    between atoms: O_23  and  C_13 
ROOT
ATOM      1  C   UNL d   1       5.354  -3.954   0.000  0.00  0.00     0.080 A 
ATOM      2  C   UNL d   1       5.354  -4.779   0.000  0.00  0.00     0.188 A 
ATOM      3  C   UNL d   1       4.638  -3.542   0.000  0.00  0.00     0.201 A 
ATOM      4  O   UNL d   1       4.638  -5.192   0.000  0.00  0.00    -0.289 OA
ATOM      5  C   UNL d   1       3.925  -3.954   0.000  0.00  0.00     0.062 A 
ATOM      6  C   UNL d   1       3.925  -4.779   0.000  0.00  0.00     0.105 A 
ATOM      7  O   UNL d   1       4.638  -2.717   0.000  0.00  0.00    -0.286 OA
ATOM      8  C   UNL d   1       3.212  -3.542   0.000  0.00  0.00     0.005 A 
ATOM      9  C   UNL d   1       3.212  -5.192   0.000  0.00  0.00     0.025 A 
ATOM     10  C   UNL d   1       2.492  -3.954   0.000  0.00  0.00     0.000 A 
ATOM     11  C   UNL d   1       2.492  -4.779   0.000  0.00  0.00     0.002 A 
ENDROOT
BRANCH   1  12
ATOM     12  C   UNL d   1       6.067  -3.542   0.000  0.00  0.00     0.011 A 
ATOM     13  C   UNL d   1       6.779  -3.954   0.000  0.00  0.00     0.027 A 
ATOM     14  C   UNL d   1       7.500  -3.542   0.000  0.00  0.00     0.118 A 
ATOM     15  C   UNL d   1       7.500  -2.712   0.000  0.00  0.00     0.138 A 
ATOM     16  C   UNL d   1       6.779  -2.300   0.000  0.00  0.00     0.118 A 
ATOM     17  C   UNL d   1       6.067  -2.712   0.000  0.00  0.00     0.027 A 
BRANCH  14  18
ATOM     18  O   UNL d   1       8.217  -3.962   0.000  0.00  0.00    -0.326 OA
ATOM     19  C   UNL d   1       8.217  -4.792   0.000  0.00  0.00     0.181 C 
ENDBRANCH  14  18
BRANCH  15  20
ATOM     20  O   UNL d   1       8.217  -2.292   0.000  0.00  0.00    -0.324 OA
ATOM     21  C   UNL d   1       8.217  -1.462   0.000  0.00  0.00     0.182 C 
ENDBRANCH  15  20
BRANCH  16  22
ATOM     22  O   UNL d   1       6.779  -1.475   0.000  0.00  0.00    -0.326 OA
ATOM     23  C   UNL d   1       7.492  -1.062   0.000  0.00  0.00     0.181 C 
ENDBRANCH  16  22
ENDBRANCH   1  12
BRANCH   2  24
ATOM     24  N   UNL d   1       6.075  -5.200   0.000  0.00  0.00    -0.182 NA
ATOM     25  C   UNL d   1       6.067  -6.029   0.000  0.00  0.00     0.304 C 
ATOM     26  O   UNL d   1       5.354  -6.442   0.000  0.00  0.00    -0.263 OA
BRANCH  25  27
ATOM     27  C   UNL d   1       6.787  -6.442   0.000  0.00  0.00     0.158 A 
ATOM     28  O   UNL d   1       7.567  -6.188   0.000  0.00  0.00    -0.300 OA
ATOM     29  C   UNL d   1       8.054  -6.854   0.000  0.00  0.00     0.123 A 
ATOM     30  C   UNL d   1       7.567  -7.525   0.000  0.00  0.00     0.029 A 
ATOM     31  C   UNL d   1       6.787  -7.267   0.000  0.00  0.00     0.032 A 
ENDBRANCH  25  27
ENDBRANCH   2  24
TORSDOF 6
