REMARK  4 active torsions:
REMARK  status: ('A' for Active; 'I' for Inactive)
REMARK    1  A    between atoms: S_3  and  N_1 
REMARK    2  A    between atoms: C_9  and  S_3 
REMARK    3  A    between atoms: C_10  and  N_5 
REMARK    4  A    between atoms: C_15  and  C_10 
ROOT
ATOM      1  N   UNL d   1       3.210  -0.955   0.000  0.00  0.00    -0.195 N 
ATOM      2  C   UNL d   1       3.995  -0.710   0.000  0.00  0.00     0.193 A 
ATOM      3  C   UNL d   1       4.477  -1.373   0.000  0.00  0.00     0.185 A 
ATOM      4  N   UNL d   1       3.995  -2.044   0.000  0.00  0.00    -0.269 N 
ATOM      5  C   UNL d   1       3.210  -1.778   0.000  0.00  0.00     0.179 A 
ATOM      6  N   UNL d   1       4.337   0.038   0.000  0.00  0.00    -0.223 NA
ATOM      7  N   UNL d   1       5.300  -1.296   0.000  0.00  0.00    -0.224 NA
ATOM      8  C   UNL d   1       5.148   0.122   0.000  0.00  0.00     0.101 A 
ATOM      9  C   UNL d   1       5.638  -0.545   0.000  0.00  0.00     0.101 A 
ATOM     10  C   UNL d   1       6.453  -0.456   0.000  0.00  0.00     0.021 A 
ATOM     11  C   UNL d   1       5.486   0.870   0.000  0.00  0.00     0.021 A 
ATOM     12  C   UNL d   1       6.782   0.300   0.000  0.00  0.00     0.002 A 
ATOM     13  C   UNL d   1       6.301   0.959   0.000  0.00  0.00     0.002 A 
ENDROOT
BRANCH   1  14
ATOM     14  S   UNL d   1       2.716  -0.207   0.000  0.00  0.00     0.274 S 
ATOM     15  O   UNL d   1       1.837  -0.308   0.000  0.00  0.00    -0.200 OA
ATOM     16  O   UNL d   1       2.171  -0.840   0.000  0.00  0.00    -0.200 OA
BRANCH  14  17
ATOM     17  C   UNL d   1       2.906   0.596   0.000  0.00  0.00     0.104 A 
ATOM     18  C   UNL d   1       2.306   1.161   0.000  0.00  0.00     0.015 A 
ATOM     19  C   UNL d   1       2.496   1.972   0.000  0.00  0.00     0.030 A 
ATOM     20  C   UNL d   1       3.286   2.204   0.000  0.00  0.00     0.140 A 
ATOM     21  C   UNL d   1       3.894   1.630   0.000  0.00  0.00     0.030 A 
ATOM     22  F   UNL d   1       3.412   3.024   0.000  0.00  0.00    -0.204 F 
ATOM     23  C   UNL d   1       3.700   0.832   0.000  0.00  0.00     0.015 A 
ENDBRANCH  14  17
ENDBRANCH   1  14
BRANCH   4  24
ATOM     24  C   UNL d   1       4.248  -2.830   0.000  0.00  0.00     0.108 C 
BRANCH  24  25
ATOM     25  C   UNL d   1       5.059  -3.007   0.000  0.00  0.00     0.118 A 
ATOM     26  O   UNL d   1       5.389  -3.767   0.000  0.00  0.00    -0.304 OA
ATOM     27  C   UNL d   1       6.225  -3.691   0.000  0.00  0.00     0.123 A 
ATOM     28  C   UNL d   1       6.402  -2.880   0.000  0.00  0.00     0.029 A 
ATOM     29  C   UNL d   1       5.680  -2.462   0.000  0.00  0.00     0.028 A 
ENDBRANCH  24  25
ENDBRANCH   4  24
TORSDOF 4
