REMARK  10 active torsions:
REMARK  status: ('A' for Active; 'I' for Inactive)
REMARK    1  A    between atoms: C_11  and  C_1 
REMARK    2  A    between atoms: C_21  and  N_5 
REMARK    3  A    between atoms: N_20  and  C_8 
REMARK    4  A    between atoms: C_9  and  C_11 
REMARK    5  A    between atoms: C_25  and  N_20 
REMARK    6  A    between atoms: C_28  and  C_21 
REMARK    7  A    between atoms: C_22  and  C_25 
REMARK    8  A    between atoms: C_26  and  C_22 
REMARK    9  A    between atoms: O_24  and  C_26 
REMARK   10  A    between atoms: C_27  and  O_24 
ROOT
ATOM      1  C   UNL d   1       5.029  -4.429   0.000  0.00  0.00     0.093 A 
ATOM      2  N   UNL d   1       3.592  -4.429   0.000  0.00  0.00    -0.258 N 
ATOM      3  N   UNL d   1       4.304  -5.679   0.000  0.00  0.00    -0.209 NA
ATOM      4  C   UNL d   1       3.587  -5.267   0.000  0.00  0.00     0.152 A 
ATOM      5  C   UNL d   1       4.304  -4.004   0.000  0.00  0.00     0.269 A 
ATOM      6  C   UNL d   1       5.029  -5.267   0.000  0.00  0.00     0.169 A 
ATOM      7  C   UNL d   1       2.875  -5.675   0.000  0.00  0.00     0.035 A 
ATOM      8  C   UNL d   1       2.875  -4.017   0.000  0.00  0.00     0.084 A 
ATOM      9  O   UNL d   1       4.304  -3.188   0.000  0.00  0.00    -0.266 OA
ATOM     10  C   UNL d   1       2.163  -4.438   0.000  0.00  0.00     0.019 A 
ATOM     11  C   UNL d   1       2.163  -5.263   0.000  0.00  0.00     0.005 A 
ATOM     12  C   UNL d   1       2.875  -6.500   0.000  0.00  0.00     0.003 C 
ENDROOT
BRANCH   1  13
ATOM     13  C   UNL d   1       5.742  -4.025   0.000  0.00  0.00     0.019 C 
BRANCH  13  14
ATOM     14  C   UNL d   1       5.742  -3.200   0.000  0.00  0.00     0.088 A 
ATOM     15  C   UNL d   1       6.412  -2.717   0.000  0.00  0.00     0.272 A 
ATOM     16  N   UNL d   1       6.162  -1.929   0.000  0.00  0.00    -0.259 N 
ATOM     17  O   UNL d   1       7.200  -2.975   0.000  0.00  0.00    -0.266 OA
ATOM     18  C   UNL d   1       5.329  -1.929   0.000  0.00  0.00     0.153 A 
ATOM     19  S   UNL d   1       5.079  -2.717   0.000  0.00  0.00    -0.053 SA
ATOM     20  S   UNL d   1       4.850  -1.267   0.000  0.00  0.00    -0.052 SA
BRANCH  16  21
ATOM     21  C   UNL d   1       6.642  -1.262   0.000  0.00  0.00     0.084 C 
BRANCH  21  22
ATOM     22  C   UNL d   1       7.467  -1.350   0.000  0.00  0.00     0.019 C 
ATOM     23  C   UNL d   1       7.804  -2.104   0.000  0.00  0.00     0.002 C 
ENDBRANCH  21  22
ENDBRANCH  16  21
ENDBRANCH  13  14
ENDBRANCH   1  13
BRANCH   6  24
ATOM     24  N   UNL d   1       5.742  -5.679   0.000  0.00  0.00    -0.225 NA
BRANCH  24  25
ATOM     25  C   UNL d   1       6.454  -5.275   0.000  0.00  0.00     0.103 C 
BRANCH  25  26
ATOM     26  C   UNL d   1       7.167  -5.688   0.000  0.00  0.00     0.047 C 
BRANCH  26  27
ATOM     27  C   UNL d   1       7.879  -5.279   0.000  0.00  0.00     0.124 C 
BRANCH  27  28
ATOM     28  O   UNL d   1       8.592  -5.692   0.000  0.00  0.00    -0.303 OA
BRANCH  28  29
ATOM     29  C   UNL d   1       9.312  -5.279   0.000  0.00  0.00     0.123 C 
ATOM     30  C   UNL d   1       9.312  -4.454   0.000  0.00  0.00     0.029 C 
ENDBRANCH  28  29
ENDBRANCH  27  28
ENDBRANCH  26  27
ENDBRANCH  25  26
ENDBRANCH  24  25
ENDBRANCH   6  24
TORSDOF 10
