REMARK  10 active torsions:
REMARK  status: ('A' for Active; 'I' for Inactive)
REMARK    1  A    between atoms: C_5  and  C_1 
REMARK    2  A    between atoms: N_6  and  C_2 
REMARK    3  A    between atoms: C_7  and  C_5 
REMARK    4  A    between atoms: C_8  and  C_5 
REMARK    5  A    between atoms: O_18  and  C_7 
REMARK    6  A    between atoms: C_22  and  O_18 
REMARK    7  A    between atoms: C_23  and  C_22 
REMARK    8  A    between atoms: C_26  and  C_23 
REMARK    9  A    between atoms: C_24  and  C_25 
REMARK   10  A    between atoms: C_25  and  C_26 
ROOT
ATOM      1  C   UNL d   1       0.281  -1.024   0.000  0.00  0.00     0.122 A 
ATOM      2  C   UNL d   1       0.289  -1.851   0.000  0.00  0.00     0.166 A 
ATOM      3  N   UNL d   1      -0.428  -2.258   0.000  0.00  0.00    -0.225 NA
ATOM      4  N   UNL d   1      -0.436  -0.609   0.000  0.00  0.00    -0.241 NA
ATOM      5  C   UNL d   1      -1.141  -1.855   0.000  0.00  0.00     0.101 A 
ATOM      6  C   UNL d   1      -1.146  -1.024   0.000  0.00  0.00     0.099 A 
ATOM      7  C   UNL d   1      -1.859  -0.617   0.000  0.00  0.00     0.021 A 
ATOM      8  C   UNL d   1      -1.859  -2.270   0.000  0.00  0.00     0.021 A 
ATOM      9  C   UNL d   1      -2.576  -1.855   0.000  0.00  0.00     0.002 A 
ATOM     10  C   UNL d   1      -2.576  -1.032   0.000  0.00  0.00     0.002 A 
ENDROOT
BRANCH   1  11
ATOM     11  C   UNL d   1       0.999  -0.596   0.000  0.00  0.00     0.105 C 
BRANCH  11  12
ATOM     12  C   UNL d   1       0.999   0.227   0.000  0.00  0.00     0.303 C 
ATOM     13  O   UNL d   1       0.281   0.638   0.000  0.00  0.00    -0.259 OA
BRANCH  12  14
ATOM     14  O   UNL d   1       1.712   0.638   0.000  0.00  0.00    -0.271 OA
BRANCH  14  15
ATOM     15  C   UNL d   1       1.700   1.469   0.000  0.00  0.00     0.126 C 
BRANCH  15  16
ATOM     16  C   UNL d   1       2.409   1.884   0.000  0.00  0.00     0.027 C 
BRANCH  16  17
ATOM     17  C   UNL d   1       3.122   1.473   0.000  0.00  0.00     0.002 C 
BRANCH  17  18
ATOM     18  C   UNL d   1       3.831   1.888   0.000  0.00  0.00     0.000 C 
BRANCH  18  19
ATOM     19  C   UNL d   1       4.549   1.481   0.000  0.00  0.00     0.000 C 
ATOM     20  C   UNL d   1       4.549   0.663   0.000  0.00  0.00     0.000 C 
ENDBRANCH  18  19
ENDBRANCH  17  18
ENDBRANCH  16  17
ENDBRANCH  15  16
ENDBRANCH  14  15
ENDBRANCH  12  14
ENDBRANCH  11  12
BRANCH  11  21
ATOM     21  C   UNL d   1       1.729  -1.011   0.000  0.00  0.00     0.129 C 
ATOM     22  N   UNL d   1       2.572  -0.567   0.000  0.00  0.00    -0.146 N 
ENDBRANCH  11  21
ENDBRANCH   1  11
BRANCH   2  23
ATOM     23  N   UNL d   1       1.007  -2.258   0.000  0.00  0.00    -0.285 N 
ATOM     24  C   UNL d   1       1.007  -3.088   0.000  0.00  0.00     0.101 A 
ATOM     25  C   UNL d   1       1.716  -3.504   0.000  0.00  0.00     0.100 A 
ATOM     26  N   UNL d   1       2.434  -3.088   0.000  0.00  0.00    -0.299 N 
ATOM     27  C   UNL d   1       2.434  -2.258   0.000  0.00  0.00     0.100 A 
ATOM     28  C   UNL d   1       3.160  -3.504   0.000  0.00  0.00     0.100 C 
ATOM     29  C   UNL d   1       1.716  -1.842   0.000  0.00  0.00     0.101 A 
ENDBRANCH   2  23
TORSDOF 10
