REMARK  5 active torsions:
REMARK  status: ('A' for Active; 'I' for Inactive)
REMARK    1  A    between atoms: C_6  and  C_1 
REMARK    2  A    between atoms: C_14  and  N_3 
REMARK    3  A    between atoms: O_9  and  C_6 
REMARK    4  A    between atoms: C_15  and  O_9 
REMARK    5  A    between atoms: C_16  and  C_14 
ROOT
ATOM      1  C   UNL d   1       2.554   0.021   0.000  0.00  0.00     0.120 A 
ATOM      2  C   UNL d   1       3.254  -0.417   0.000  0.00  0.00     0.177 A 
ATOM      3  N   UNL d   1       3.050  -1.216   0.000  0.00  0.00    -0.273 N 
ATOM      4  C   UNL d   1       2.229  -1.275   0.000  0.00  0.00     0.167 A 
ATOM      5  C   UNL d   1       1.925  -0.512   0.000  0.00  0.00     0.124 A 
ATOM      6  N   UNL d   1       1.729  -1.925   0.000  0.00  0.00    -0.225 NA
ATOM      7  N   UNL d   1       1.112  -0.400   0.000  0.00  0.00    -0.241 NA
ATOM      8  C   UNL d   1       0.916  -1.812   0.000  0.00  0.00     0.101 A 
ATOM      9  C   UNL d   1       0.604  -1.050   0.000  0.00  0.00     0.099 A 
ATOM     10  N   UNL d   1       4.024  -0.117   0.000  0.00  0.00    -0.128 N 
ATOM     11  C   UNL d   1       0.417  -2.462   0.000  0.00  0.00     0.021 A 
ATOM     12  C   UNL d   1      -0.208  -0.942   0.000  0.00  0.00     0.021 A 
ATOM     13  C   UNL d   1      -0.408  -2.350   0.000  0.00  0.00     0.002 A 
ATOM     14  C   UNL d   1      -0.708  -1.591   0.000  0.00  0.00     0.002 A 
ENDROOT
BRANCH   1  15
ATOM     15  C   UNL d   1       2.504   0.846   0.000  0.00  0.00     0.300 C 
ATOM     16  O   UNL d   1       1.766   1.208   0.000  0.00  0.00    -0.259 OA
BRANCH  15  17
ATOM     17  O   UNL d   1       3.191   1.308   0.000  0.00  0.00    -0.303 OA
BRANCH  17  18
ATOM     18  C   UNL d   1       3.129   2.120   0.000  0.00  0.00     0.102 C 
ATOM     19  C   UNL d   1       2.304   2.070   0.000  0.00  0.00     0.030 C 
ATOM     20  C   UNL d   1       3.954   2.183   0.000  0.00  0.00     0.030 C 
ATOM     21  C   UNL d   1       3.074   2.958   0.000  0.00  0.00     0.030 C 
ENDBRANCH  17  18
ENDBRANCH  15  17
ENDBRANCH   1  15
BRANCH   3  22
ATOM     22  C   UNL d   1       3.574  -1.850   0.000  0.00  0.00     0.083 C 
BRANCH  22  23
ATOM     23  C   UNL d   1       4.387  -1.704   0.000  0.00  0.00     0.019 C 
ATOM     24  C   UNL d   1       4.916  -2.341   0.000  0.00  0.00     0.002 C 
ENDBRANCH  22  23
ENDBRANCH   3  22
TORSDOF 5
