REMARK  9 active torsions:
REMARK  status: ('A' for Active; 'I' for Inactive)
REMARK    1  A    between atoms: C_5  and  C_1 
REMARK    2  A    between atoms: N_6  and  C_2 
REMARK    3  A    between atoms: C_7  and  C_5 
REMARK    4  A    between atoms: C_8  and  C_5 
REMARK    5  A    between atoms: O_13  and  C_7 
REMARK    6  A    between atoms: C_17  and  N_12 
REMARK    7  A    between atoms: C_20  and  O_13 
REMARK    8  A    between atoms: C_21  and  C_17 
REMARK    9  A    between atoms: C_24  and  C_20 
ROOT
ATOM      1  C   UNL d   1       3.789  -1.366   0.000  0.00  0.00     0.117 A 
ATOM      2  C   UNL d   1       3.534  -2.147   0.000  0.00  0.00     0.145 A 
ATOM      3  N   UNL d   1       2.724  -2.323   0.000  0.00  0.00    -0.230 NA
ATOM      4  N   UNL d   1       3.233  -0.752   0.000  0.00  0.00    -0.241 NA
ATOM      5  C   UNL d   1       2.168  -1.709   0.000  0.00  0.00     0.100 A 
ATOM      6  C   UNL d   1       2.431  -0.919   0.000  0.00  0.00     0.099 A 
ATOM      7  C   UNL d   1       1.358  -1.880   0.000  0.00  0.00     0.021 A 
ATOM      8  C   UNL d   1       1.880  -0.313   0.000  0.00  0.00     0.021 A 
ATOM      9  C   UNL d   1       0.815  -1.266   0.000  0.00  0.00     0.002 A 
ATOM     10  C   UNL d   1       1.069  -0.476   0.000  0.00  0.00     0.002 A 
ENDROOT
BRANCH   2  11
ATOM     11  N   UNL d   1       4.202  -2.636   0.000  0.00  0.00    -0.189 NA
ATOM     12  C   UNL d   1       4.629  -3.150   0.000  0.00  0.00     0.076 A 
ATOM     13  C   UNL d   1       5.665  -3.187   0.000  0.00  0.00     0.093 A 
ATOM     14  N   UNL d   1       5.702  -4.077   0.000  0.00  0.00    -0.301 N 
ATOM     15  C   UNL d   1       5.305  -3.538   0.000  0.00  0.00     0.093 A 
ATOM     16  C   UNL d   1       4.202  -3.463   0.000  0.00  0.00     0.076 A 
BRANCH  14  17
ATOM     17  C   UNL d   1       5.970  -4.862   0.000  0.00  0.00     0.080 C 
BRANCH  17  18
ATOM     18  C   UNL d   1       6.780  -5.017   0.000  0.00  0.00     0.018 A 
ATOM     19  C   UNL d   1       7.047  -5.794   0.000  0.00  0.00     0.002 A 
ATOM     20  C   UNL d   1       7.858  -5.944   0.000  0.00  0.00     0.000 A 
ATOM     21  C   UNL d   1       8.397  -5.318   0.000  0.00  0.00     0.000 A 
ATOM     22  C   UNL d   1       8.121  -4.541   0.000  0.00  0.00     0.000 A 
ATOM     23  C   UNL d   1       7.311  -4.391   0.000  0.00  0.00     0.002 A 
ENDBRANCH  17  18
ENDBRANCH  14  17
ENDBRANCH   2  11
BRANCH   1  24
ATOM     24  C   UNL d   1       4.616  -1.366   0.000  0.00  0.00     0.104 C 
BRANCH  24  25
ATOM     25  C   UNL d   1       5.105  -0.689   0.000  0.00  0.00     0.303 C 
ATOM     26  O   UNL d   1       4.766   0.063   0.000  0.00  0.00    -0.259 OA
BRANCH  25  27
ATOM     27  O   UNL d   1       5.928  -0.777   0.000  0.00  0.00    -0.271 OA
BRANCH  27  28
ATOM     28  C   UNL d   1       6.266  -1.529   0.000  0.00  0.00     0.126 C 
BRANCH  28  29
ATOM     29  C   UNL d   1       7.085  -1.617   0.000  0.00  0.00     0.025 C 
ATOM     30  C   UNL d   1       7.569  -0.953   0.000  0.00  0.00     0.002 C 
ATOM     31  C   UNL d   1       7.419  -2.373   0.000  0.00  0.00     0.002 C 
ENDBRANCH  28  29
ENDBRANCH  27  28
ENDBRANCH  25  27
ENDBRANCH  24  25
BRANCH  24  32
ATOM     32  C   UNL d   1       4.875  -2.147   0.000  0.00  0.00     0.129 C 
ATOM     33  N   UNL d   1       5.665  -2.406   0.000  0.00  0.00    -0.146 N 
ENDBRANCH  24  32
ENDBRANCH   1  24
TORSDOF 9
