REMARK  6 active torsions:
REMARK  status: ('A' for Active; 'I' for Inactive)
REMARK    1  A    between atoms: C_4  and  C_1 
REMARK    2  A    between atoms: N_7  and  C_2 
REMARK    3  A    between atoms: C_6  and  C_4 
REMARK    4  A    between atoms: C_8  and  C_4 
REMARK    5  A    between atoms: O_13  and  C_6 
REMARK    6  A    between atoms: C_19  and  O_13 
ROOT
ATOM      1  C   UNL d   1       0.281  -1.023   0.000  0.00  0.00     0.122 A 
ATOM      2  C   UNL d   1       0.289  -1.849   0.000  0.00  0.00     0.166 A 
ATOM      3  N   UNL d   1      -0.428  -2.265   0.000  0.00  0.00    -0.225 NA
ATOM      4  N   UNL d   1      -0.436  -0.608   0.000  0.00  0.00    -0.241 NA
ATOM      5  C   UNL d   1      -1.145  -1.854   0.000  0.00  0.00     0.101 A 
ATOM      6  C   UNL d   1      -1.145  -1.023   0.000  0.00  0.00     0.099 A 
ATOM      7  C   UNL d   1      -1.858  -2.269   0.000  0.00  0.00     0.021 A 
ATOM      8  C   UNL d   1      -1.862  -0.617   0.000  0.00  0.00     0.021 A 
ATOM      9  C   UNL d   1      -2.575  -1.032   0.000  0.00  0.00     0.002 A 
ATOM     10  C   UNL d   1      -2.575  -1.854   0.000  0.00  0.00     0.002 A 
ENDROOT
BRANCH   1  11
ATOM     11  C   UNL d   1       0.998  -0.596   0.000  0.00  0.00     0.105 C 
BRANCH  11  12
ATOM     12  C   UNL d   1       0.998   0.227   0.000  0.00  0.00     0.303 C 
ATOM     13  O   UNL d   1       0.281   0.637   0.000  0.00  0.00    -0.259 OA
BRANCH  12  14
ATOM     14  O   UNL d   1       1.711   0.642   0.000  0.00  0.00    -0.273 OA
BRANCH  14  15
ATOM     15  C   UNL d   1       2.114   1.359   0.000  0.00  0.00     0.103 A 
ATOM     16  C   UNL d   1       2.936   1.359   0.000  0.00  0.00     0.025 A 
ATOM     17  C   UNL d   1       3.338   2.072   0.000  0.00  0.00     0.002 A 
ATOM     18  C   UNL d   1       2.932   2.789   0.000  0.00  0.00     0.000 A 
ATOM     19  C   UNL d   1       2.105   2.776   0.000  0.00  0.00     0.002 A 
ATOM     20  C   UNL d   1       1.698   2.063   0.000  0.00  0.00     0.025 A 
ENDBRANCH  14  15
ENDBRANCH  12  14
ENDBRANCH  11  12
BRANCH  11  21
ATOM     21  C   UNL d   1       1.728  -1.006   0.000  0.00  0.00     0.129 C 
ATOM     22  N   UNL d   1       2.571  -0.558   0.000  0.00  0.00    -0.146 N 
ENDBRANCH  11  21
ENDBRANCH   1  11
BRANCH   2  23
ATOM     23  N   UNL d   1       1.006  -2.256   0.000  0.00  0.00    -0.285 N 
ATOM     24  C   UNL d   1       1.006  -3.087   0.000  0.00  0.00     0.101 A 
ATOM     25  C   UNL d   1       1.715  -3.502   0.000  0.00  0.00     0.100 A 
ATOM     26  N   UNL d   1       2.432  -3.087   0.000  0.00  0.00    -0.299 N 
ATOM     27  C   UNL d   1       2.432  -2.256   0.000  0.00  0.00     0.100 A 
ATOM     28  C   UNL d   1       3.158  -3.502   0.000  0.00  0.00     0.100 C 
ATOM     29  C   UNL d   1       1.715  -1.841   0.000  0.00  0.00     0.101 A 
ENDBRANCH   2  23
TORSDOF 6
