REMARK  8 active torsions:
REMARK  status: ('A' for Active; 'I' for Inactive)
REMARK    1  A    between atoms: C_5  and  C_1 
REMARK    2  A    between atoms: N_6  and  C_2 
REMARK    3  A    between atoms: C_7  and  C_5 
REMARK    4  A    between atoms: C_8  and  C_5 
REMARK    5  A    between atoms: O_13  and  C_7 
REMARK    6  A    between atoms: C_12  and  C_16 
REMARK    7  A    between atoms: C_22  and  O_13 
REMARK    8  A    between atoms: C_25  and  C_22 
ROOT
ATOM      1  C   UNL d   1       6.383  -4.407   0.000  0.00  0.00     0.296 C 
ATOM      2  O   UNL d   1       7.196  -4.565   0.000  0.00  0.00    -0.259 OA
ATOM      3  O   UNL d   1       5.845  -5.032   0.000  0.00  0.00    -0.296 OA
ATOM      4  C   UNL d   1       5.307  -5.657   0.000  0.00  0.00     0.185 C 
ENDROOT
BRANCH   1   5
ATOM      5  C   UNL d   1       6.116  -3.627   0.000  0.00  0.00     0.065 A 
ATOM      6  C   UNL d   1       6.078  -2.731   0.000  0.00  0.00     0.018 A 
ATOM      7  C   UNL d   1       5.044  -2.693   0.000  0.00  0.00     0.057 A 
ATOM      8  N   UNL d   1       4.619  -2.180   0.000  0.00  0.00    -0.192 NA
ATOM      9  C   UNL d   1       4.619  -3.006   0.000  0.00  0.00     0.057 A 
ATOM     10  C   UNL d   1       5.720  -3.081   0.000  0.00  0.00     0.018 A 
BRANCH   8  11
ATOM     11  C   UNL d   1       3.952  -1.693   0.000  0.00  0.00     0.145 A 
ATOM     12  C   UNL d   1       4.206  -0.913   0.000  0.00  0.00     0.117 A 
ATOM     13  N   UNL d   1       3.652  -0.300   0.000  0.00  0.00    -0.241 NA
ATOM     14  C   UNL d   1       2.852  -0.467   0.000  0.00  0.00     0.099 A 
ATOM     15  C   UNL d   1       2.589  -1.255   0.000  0.00  0.00     0.100 A 
ATOM     16  C   UNL d   1       2.301   0.138   0.000  0.00  0.00     0.021 A 
ATOM     17  C   UNL d   1       1.780  -1.426   0.000  0.00  0.00     0.021 A 
ATOM     18  N   UNL d   1       3.143  -1.868   0.000  0.00  0.00    -0.230 NA
ATOM     19  C   UNL d   1       1.238  -0.813   0.000  0.00  0.00     0.002 A 
ATOM     20  C   UNL d   1       1.492  -0.025   0.000  0.00  0.00     0.002 A 
BRANCH  12  21
ATOM     21  C   UNL d   1       5.032  -0.913   0.000  0.00  0.00     0.104 C 
BRANCH  21  22
ATOM     22  C   UNL d   1       5.520  -0.238   0.000  0.00  0.00     0.303 C 
ATOM     23  O   UNL d   1       5.182   0.513   0.000  0.00  0.00    -0.259 OA
BRANCH  22  24
ATOM     24  O   UNL d   1       6.341  -0.325   0.000  0.00  0.00    -0.271 OA
BRANCH  24  25
ATOM     25  C   UNL d   1       6.678  -1.076   0.000  0.00  0.00     0.126 C 
BRANCH  25  26
ATOM     26  C   UNL d   1       7.496  -1.163   0.000  0.00  0.00     0.025 C 
ATOM     27  C   UNL d   1       7.979  -0.500   0.000  0.00  0.00     0.002 C 
ATOM     28  C   UNL d   1       7.829  -1.918   0.000  0.00  0.00     0.002 C 
ENDBRANCH  25  26
ENDBRANCH  24  25
ENDBRANCH  22  24
ENDBRANCH  21  22
BRANCH  21  29
ATOM     29  C   UNL d   1       5.290  -1.693   0.000  0.00  0.00     0.129 C 
ATOM     30  N   UNL d   1       6.078  -1.951   0.000  0.00  0.00    -0.146 N 
ENDBRANCH  21  29
ENDBRANCH  12  21
ENDBRANCH   8  11
ENDBRANCH   1   5
TORSDOF 8
