REMARK  3 active torsions:
REMARK  status: ('A' for Active; 'I' for Inactive)
REMARK    1  A    between atoms: S_5  and  C_3 
REMARK    2  A    between atoms: C_12  and  S_5 
REMARK    3  A    between atoms: C_23  and  N_6 
ROOT
ATOM      1  C   UNL d   1       3.432  -3.060   0.000  0.00  0.00     0.155 A 
ATOM      2  C   UNL d   1       3.432  -2.244   0.000  0.00  0.00     0.092 A 
ATOM      3  C   UNL d   1       4.846  -2.248   0.000  0.00  0.00     0.124 A 
ATOM      4  N   UNL d   1       2.720  -3.468   0.000  0.00  0.00    -0.210 NA
ATOM      5  N   UNL d   1       4.125  -3.472   0.000  0.00  0.00    -0.273 N 
ATOM      6  C   UNL d   1       4.846  -3.074   0.000  0.00  0.00     0.181 A 
ATOM      7  C   UNL d   1       2.724  -1.827   0.000  0.00  0.00     0.269 A 
ATOM      8  N   UNL d   1       2.017  -2.235   0.000  0.00  0.00    -0.258 N 
ATOM      9  C   UNL d   1       4.139  -1.836   0.000  0.00  0.00     0.022 A 
ATOM     10  C   UNL d   1       2.017  -3.060   0.000  0.00  0.00     0.152 A 
ATOM     11  N   UNL d   1       5.562  -3.500   0.000  0.00  0.00    -0.128 N 
ATOM     12  C   UNL d   1       1.306  -1.827   0.000  0.00  0.00     0.084 A 
ATOM     13  O   UNL d   1       2.724  -0.993   0.000  0.00  0.00    -0.266 OA
ATOM     14  C   UNL d   1       1.306  -3.468   0.000  0.00  0.00     0.038 A 
ATOM     15  C   UNL d   1       0.603  -2.235   0.000  0.00  0.00     0.019 A 
ATOM     16  C   UNL d   1       0.603  -3.060   0.000  0.00  0.00     0.005 A 
ENDROOT
BRANCH   3  17
ATOM     17  S   UNL d   1       5.576  -1.841   0.000  0.00  0.00     0.213 S 
ATOM     18  O   UNL d   1       5.997  -2.561   0.000  0.00  0.00    -0.217 OA
ATOM     19  O   UNL d   1       5.159  -1.120   0.000  0.00  0.00    -0.217 OA
BRANCH  17  20
ATOM     20  C   UNL d   1       6.297  -1.419   0.000  0.00  0.00     0.088 A 
ATOM     21  C   UNL d   1       7.017  -1.827   0.000  0.00  0.00     0.014 A 
ATOM     22  C   UNL d   1       7.729  -1.405   0.000  0.00  0.00     0.030 A 
ATOM     23  C   UNL d   1       7.729  -0.576   0.000  0.00  0.00     0.140 A 
ATOM     24  C   UNL d   1       6.995  -0.168   0.000  0.00  0.00     0.030 A 
ATOM     25  F   UNL d   1       8.445  -0.150   0.000  0.00  0.00    -0.204 F 
ATOM     26  C   UNL d   1       6.283  -0.589   0.000  0.00  0.00     0.014 A 
ENDBRANCH  17  20
ENDBRANCH   3  17
BRANCH   5  27
ATOM     27  C   UNL d   1       4.125  -4.311   0.000  0.00  0.00     0.083 C 
ATOM     28  C   UNL d   1       3.391  -4.719   0.000  0.00  0.00     0.021 C 
ENDBRANCH   5  27
TORSDOF 3
