REMARK  6 active torsions:
REMARK  status: ('A' for Active; 'I' for Inactive)
REMARK    1  A    between atoms: N_5  and  C_1 
REMARK    2  A    between atoms: N_14  and  C_3 
REMARK    3  A    between atoms: N_9  and  C_20 
REMARK    4  A    between atoms: C_22  and  N_14 
REMARK    5  A    between atoms: C_20  and  C_21 
REMARK    6  A    between atoms: C_21  and  C_22 
ROOT
ATOM      1  C   UNL d   1       3.540  -3.236   0.000  0.00  0.00     0.200 A 
ATOM      2  C   UNL d   1       3.540  -4.065   0.000  0.00  0.00     0.288 A 
ATOM      3  C   UNL d   1       2.828  -2.815   0.000  0.00  0.00     0.109 A 
ATOM      4  N   UNL d   1       2.828  -4.477   0.000  0.00  0.00    -0.270 N 
ATOM      5  C   UNL d   1       2.116  -3.236   0.000  0.00  0.00     0.036 A 
ATOM      6  C   UNL d   1       2.111  -4.061   0.000  0.00  0.00     0.069 A 
ATOM      7  O   UNL d   1       4.252  -4.477   0.000  0.00  0.00    -0.265 OA
ATOM      8  C   UNL d   1       2.824  -5.302   0.000  0.00  0.00     0.102 C 
ATOM      9  C   UNL d   1       1.399  -2.824   0.000  0.00  0.00     0.003 A 
ATOM     10  C   UNL d   1       1.399  -4.477   0.000  0.00  0.00     0.018 A 
ATOM     11  C   UNL d   1       0.687  -3.236   0.000  0.00  0.00     0.000 A 
ATOM     12  C   UNL d   1       0.687  -4.065   0.000  0.00  0.00     0.002 A 
ENDROOT
BRANCH   3  13
ATOM     13  N   UNL d   1       2.828  -1.991   0.000  0.00  0.00    -0.242 NA
BRANCH  13  14
ATOM     14  C   UNL d   1       2.116  -1.578   0.000  0.00  0.00     0.101 C 
BRANCH  14  15
ATOM     15  C   UNL d   1       1.399  -1.991   0.000  0.00  0.00     0.040 C 
BRANCH  15  16
ATOM     16  C   UNL d   1       0.687  -1.578   0.000  0.00  0.00     0.083 C 
BRANCH  16  17
ATOM     17  N   UNL d   1      -0.033  -1.991   0.000  0.00  0.00    -0.285 N 
ATOM     18  C   UNL d   1      -0.783  -1.653   0.000  0.00  0.00     0.183 A 
ATOM     19  N   UNL d   1      -1.333  -2.266   0.000  0.00  0.00    -0.222 NA
ATOM     20  C   UNL d   1      -0.920  -2.978   0.000  0.00  0.00     0.120 A 
ATOM     21  C   UNL d   1      -0.121  -2.811   0.000  0.00  0.00     0.102 A 
ENDBRANCH  16  17
ENDBRANCH  15  16
ENDBRANCH  14  15
ENDBRANCH  13  14
ENDBRANCH   3  13
BRANCH   1  22
ATOM     22  N   UNL d   1       4.260  -2.828   0.000  0.00  0.00    -0.107 N 
ATOM     23  O   UNL d   1       4.973  -3.240   0.000  0.00  0.00    -0.531 OA
ATOM     24  O   UNL d   1       4.260  -1.999   0.000  0.00  0.00    -0.531 OA
ENDBRANCH   1  22
TORSDOF 6
