REMARK  5 active torsions:
REMARK  status: ('A' for Active; 'I' for Inactive)
REMARK    1  A    between atoms: C_9  and  N_1 
REMARK    2  A    between atoms: C_8  and  C_3 
REMARK       I    between atoms: N_12  and  C_8 
REMARK    3  A    between atoms: C_21  and  C_9 
REMARK    4  A    between atoms: C_20  and  N_12 
REMARK    5  A    between atoms: C_13  and  C_20 
ROOT
ATOM      1  N   UNL d   1       6.230  -4.263   0.000  0.00  0.00    -0.273 N 
ATOM      2  C   UNL d   1       6.718  -3.607   0.000  0.00  0.00     0.177 A 
ATOM      3  C   UNL d   1       6.230  -2.931   0.000  0.00  0.00     0.115 A 
ATOM      4  C   UNL d   1       5.449  -4.013   0.000  0.00  0.00     0.167 A 
ATOM      5  C   UNL d   1       5.449  -3.186   0.000  0.00  0.00     0.123 A 
ATOM      6  N   UNL d   1       4.726  -4.426   0.000  0.00  0.00    -0.225 NA
ATOM      7  N   UNL d   1       4.726  -2.772   0.000  0.00  0.00    -0.241 NA
ATOM      8  C   UNL d   1       4.013  -4.013   0.000  0.00  0.00     0.101 A 
ATOM      9  C   UNL d   1       4.013  -3.186   0.000  0.00  0.00     0.099 A 
ATOM     10  N   UNL d   1       7.545  -3.607   0.000  0.00  0.00    -0.128 N 
ATOM     11  C   UNL d   1       3.299  -2.772   0.000  0.00  0.00     0.021 A 
ATOM     12  C   UNL d   1       3.299  -4.426   0.000  0.00  0.00     0.021 A 
ATOM     13  C   UNL d   1       2.584  -3.186   0.000  0.00  0.00     0.002 A 
ATOM     14  C   UNL d   1       2.584  -4.013   0.000  0.00  0.00     0.002 A 
ENDROOT
BRANCH   3  15
ATOM     15  C   UNL d   1       6.488  -2.142   0.000  0.00  0.00     0.284 C 
ATOM     16  N   UNL d   1       7.294  -1.971   0.000  0.00  0.00    -0.204 NA
ATOM     17  O   UNL d   1       5.929  -1.528   0.000  0.00  0.00    -0.265 OA
BRANCH  16  18
ATOM     18  C   UNL d   1       7.545  -1.177   0.000  0.00  0.00     0.127 C 
BRANCH  18  19
ATOM     19  C   UNL d   1       8.355  -1.002   0.000  0.00  0.00     0.119 A 
ATOM     20  O   UNL d   1       8.969  -1.557   0.000  0.00  0.00    -0.304 OA
ATOM     21  C   UNL d   1       9.674  -1.140   0.000  0.00  0.00     0.123 A 
ATOM     22  C   UNL d   1       9.495  -0.326   0.000  0.00  0.00     0.029 A 
ATOM     23  C   UNL d   1       8.685  -0.251   0.000  0.00  0.00     0.028 A 
ENDBRANCH  18  19
ENDBRANCH  16  18
ENDBRANCH   3  15
BRANCH   1  24
ATOM     24  C   UNL d   1       6.488  -5.061   0.000  0.00  0.00     0.083 C 
BRANCH  24  25
ATOM     25  C   UNL d   1       7.294  -5.236   0.000  0.00  0.00     0.018 A 
ATOM     26  C   UNL d   1       7.545  -6.017   0.000  0.00  0.00     0.002 A 
ATOM     27  C   UNL d   1       8.355  -6.192   0.000  0.00  0.00     0.000 A 
ATOM     28  C   UNL d   1       8.910  -5.587   0.000  0.00  0.00     0.000 A 
ATOM     29  C   UNL d   1       8.655  -4.797   0.000  0.00  0.00     0.000 A 
ATOM     30  C   UNL d   1       7.845  -4.622   0.000  0.00  0.00     0.002 A 
ENDBRANCH  24  25
ENDBRANCH   1  24
TORSDOF 5
