REMARK  4 active torsions:
REMARK  status: ('A' for Active; 'I' for Inactive)
REMARK    1  A    between atoms: S_2  and  C_1 
REMARK    2  A    between atoms: C_10  and  S_2 
REMARK    3  A    between atoms: N_7  and  C_5 
REMARK    4  A    between atoms: C_11  and  N_7 
ROOT
ATOM      1  C   UNL d   1       0.838  -1.319   0.000  0.00  0.00     0.187 A 
ATOM      2  N   UNL d   1       1.659  -1.319   0.000  0.00  0.00    -0.208 NA
ATOM      3  C   UNL d   1       0.576  -2.102   0.000  0.00  0.00     0.118 A 
ATOM      4  C   UNL d   1       1.907  -2.102   0.000  0.00  0.00     0.196 A 
ATOM      5  S   UNL d   1       1.248  -2.579   0.000  0.00  0.00    -0.035 SA
ATOM      6 CL   UNL d   1      -0.199  -2.355   0.000  0.00  0.00    -0.073 Cl
ENDROOT
BRANCH   1   7
ATOM      7  S   UNL d   1       0.352  -0.651   0.000  0.00  0.00     0.228 S 
ATOM      8  O   UNL d   1       1.045  -0.211   0.000  0.00  0.00    -0.216 OA
ATOM      9  O   UNL d   1      -0.336  -1.099   0.000  0.00  0.00    -0.216 OA
BRANCH   7  10
ATOM     10  C   UNL d   1      -0.062   0.062   0.000  0.00  0.00     0.089 A 
ATOM     11  C   UNL d   1       0.352   0.784   0.000  0.00  0.00     0.011 A 
ATOM     12  C   UNL d   1      -0.070   1.501   0.000  0.00  0.00     0.001 A 
ATOM     13  C   UNL d   1      -0.896   1.501   0.000  0.00  0.00     0.000 A 
ATOM     14  C   UNL d   1      -1.306   0.771   0.000  0.00  0.00     0.001 A 
ATOM     15  C   UNL d   1      -0.891   0.058   0.000  0.00  0.00     0.011 A 
ENDBRANCH   7  10
ENDBRANCH   1   7
BRANCH   4  16
ATOM     16  N   UNL d   1       2.691  -2.355   0.000  0.00  0.00    -0.221 NA
BRANCH  16  17
ATOM     17  C   UNL d   1       2.861  -3.159   0.000  0.00  0.00     0.087 A 
ATOM     18  C   UNL d   1       3.636  -3.408   0.000  0.00  0.00     0.061 A 
ATOM     19  C   UNL d   1       3.811  -4.209   0.000  0.00  0.00     0.197 A 
ATOM     20  O   UNL d   1       4.594  -4.457   0.000  0.00  0.00    -0.286 OA
ATOM     21  C   UNL d   1       3.201  -4.764   0.000  0.00  0.00     0.042 A 
ATOM     22  C   UNL d   1       2.417  -4.507   0.000  0.00  0.00     0.005 A 
ATOM     23  C   UNL d   1       2.243  -3.707   0.000  0.00  0.00     0.019 A 
ENDBRANCH  16  17
ENDBRANCH   4  16
TORSDOF 4
