REMARK  5 active torsions:
REMARK  status: ('A' for Active; 'I' for Inactive)
REMARK    1  A    between atoms: C_2  and  S_1 
REMARK    2  A    between atoms: N_4  and  S_1 
REMARK    3  A    between atoms: C_11  and  N_4 
REMARK    4  A    between atoms: O_14  and  C_5 
REMARK    5  A    between atoms: O_15  and  C_7 
ROOT
ATOM      1  C   UNL d   1       4.526  -1.946   0.000  0.00  0.00     0.129 A 
ATOM      2  C   UNL d   1       4.526  -2.772   0.000  0.00  0.00     0.040 A 
ATOM      3  C   UNL d   1       3.812  -1.541   0.000  0.00  0.00     0.107 A 
ATOM      4  C   UNL d   1       3.098  -1.946   0.000  0.00  0.00     0.034 A 
ATOM      5  C   UNL d   1       3.812  -3.186   0.000  0.00  0.00     0.101 A 
ATOM      6  C   UNL d   1       3.098  -2.772   0.000  0.00  0.00     0.059 A 
ATOM      7 BR   UNL d   1       2.384  -3.194   0.000  0.00  0.00    -0.047 Br
ENDROOT
BRANCH   1   8
ATOM      8  S   UNL d   1       5.240  -1.541   0.000  0.00  0.00     0.287 S 
ATOM      9  O   UNL d   1       5.653  -2.246   0.000  0.00  0.00    -0.198 OA
ATOM     10  O   UNL d   1       4.827  -0.827   0.000  0.00  0.00    -0.198 OA
BRANCH   8  11
ATOM     11  N   UNL d   1       5.954  -1.127   0.000  0.00  0.00    -0.157 NA
BRANCH  11  12
ATOM     12  C   UNL d   1       6.668  -1.541   0.000  0.00  0.00     0.113 A 
ATOM     13  C   UNL d   1       6.668  -2.359   0.000  0.00  0.00     0.119 A 
ATOM     14  N   UNL d   1       7.382  -2.772   0.000  0.00  0.00    -0.241 NA
ATOM     15  C   UNL d   1       8.104  -2.359   0.000  0.00  0.00     0.099 A 
ATOM     16  C   UNL d   1       8.096  -1.532   0.000  0.00  0.00     0.022 A 
ATOM     17  C   UNL d   1       7.382  -1.119   0.000  0.00  0.00     0.023 A 
ENDBRANCH  11  12
ENDBRANCH   8  11
ENDBRANCH   1   8
BRANCH   3  18
ATOM     18  O   UNL d   1       3.812  -0.714   0.000  0.00  0.00    -0.327 OA
ATOM     19  C   UNL d   1       4.526  -0.301   0.000  0.00  0.00     0.181 C 
ENDBRANCH   3  18
BRANCH   5  20
ATOM     20  O   UNL d   1       3.812  -4.013   0.000  0.00  0.00    -0.328 OA
ATOM     21  C   UNL d   1       3.098  -4.426   0.000  0.00  0.00     0.181 C 
ENDBRANCH   5  20
TORSDOF 5
