REMARK  5 active torsions:
REMARK  status: ('A' for Active; 'I' for Inactive)
REMARK    1  A    between atoms: C_2  and  S_1 
REMARK    2  A    between atoms: N_3  and  S_1 
REMARK    3  A    between atoms: C_10  and  N_3 
REMARK    4  A    between atoms: C_9  and  C_5 
REMARK    5  A    between atoms: O_14  and  C_8 
ROOT
ATOM      1  C   UNL d   1       4.517  -1.942   0.000  0.00  0.00     0.127 A 
ATOM      2  C   UNL d   1       4.517  -2.767   0.000  0.00  0.00     0.011 A 
ATOM      3  C   UNL d   1       3.804  -3.179   0.000  0.00  0.00    -0.022 A 
ATOM      4  C   UNL d   1       3.804  -1.538   0.000  0.00  0.00     0.106 A 
ATOM      5  C   UNL d   1       3.092  -2.767   0.000  0.00  0.00    -0.002 A 
ATOM      6  C   UNL d   1       3.092  -1.942   0.000  0.00  0.00     0.025 A 
ENDROOT
BRANCH   1   7
ATOM      7  S   UNL d   1       5.229  -1.538   0.000  0.00  0.00     0.287 S 
ATOM      8  O   UNL d   1       4.817  -0.825   0.000  0.00  0.00    -0.198 OA
ATOM      9  O   UNL d   1       5.642  -2.242   0.000  0.00  0.00    -0.198 OA
BRANCH   7  10
ATOM     10  N   UNL d   1       5.942  -1.125   0.000  0.00  0.00    -0.157 NA
BRANCH  10  11
ATOM     11  C   UNL d   1       6.654  -1.538   0.000  0.00  0.00     0.113 A 
ATOM     12  C   UNL d   1       6.654  -2.354   0.000  0.00  0.00     0.119 A 
ATOM     13  N   UNL d   1       7.367  -2.767   0.000  0.00  0.00    -0.241 NA
ATOM     14  C   UNL d   1       8.088  -2.354   0.000  0.00  0.00     0.099 A 
ATOM     15  C   UNL d   1       8.079  -1.529   0.000  0.00  0.00     0.022 A 
ATOM     16  C   UNL d   1       7.367  -1.117   0.000  0.00  0.00     0.023 A 
ENDBRANCH  10  11
ENDBRANCH   7  10
ENDBRANCH   1   7
BRANCH   4  17
ATOM     17  O   UNL d   1       3.804  -0.713   0.000  0.00  0.00    -0.327 OA
ATOM     18  C   UNL d   1       4.517  -0.300   0.000  0.00  0.00     0.181 C 
ENDBRANCH   4  17
BRANCH   3  19
ATOM     19  C   UNL d   1       3.804  -4.004   0.000  0.00  0.00     0.019 C 
ATOM     20  C   UNL d   1       3.804  -4.829   0.000  0.00  0.00     0.004 C 
ATOM     21  C   UNL d   1       4.629  -4.004   0.000  0.00  0.00     0.004 C 
ATOM     22  C   UNL d   1       2.979  -4.004   0.000  0.00  0.00     0.004 C 
ENDBRANCH   3  19
TORSDOF 5
