REMARK  5 active torsions:
REMARK  status: ('A' for Active; 'I' for Inactive)
REMARK    1  A    between atoms: N_6  and  S_1 
REMARK    2  A    between atoms: C_11  and  S_1 
REMARK    3  A    between atoms: N_2  and  C_16 
REMARK       I    between atoms: C_9  and  N_8 
REMARK    4  A    between atoms: C_10  and  C_9 
REMARK    5  A    between atoms: C_16  and  C_10 
ROOT
ATOM      1  N   UNL d   1       2.850  -2.779   0.000  0.00  0.00    -0.226 N 
ATOM      2  N   UNL d   1       1.204  -2.779   0.000  0.00  0.00    -0.269 N 
ATOM      3  C   UNL d   1       0.379  -2.788   0.000  0.00  0.00     0.267 C 
ATOM      4  C   UNL d   1       2.438  -3.492   0.000  0.00  0.00     0.111 A 
ATOM      5  C   UNL d   1       2.438  -2.050   0.000  0.00  0.00     0.111 A 
ATOM      6  C   UNL d   1       1.613  -3.492   0.000  0.00  0.00     0.103 A 
ATOM      7  C   UNL d   1       1.613  -2.050   0.000  0.00  0.00     0.103 A 
ATOM      8  O   UNL d   1      -0.037  -2.075   0.000  0.00  0.00    -0.267 OA
ENDROOT
BRANCH   3   9
ATOM      9  C   UNL d   1      -0.025  -3.504   0.000  0.00  0.00     0.082 C 
BRANCH   9  10
ATOM     10  C   UNL d   1      -0.850  -3.504   0.000  0.00  0.00     0.105 C 
BRANCH  10  11
ATOM     11  N   UNL d   1      -1.258  -4.225   0.000  0.00  0.00    -0.228 N 
ATOM     12  N   UNL d   1      -0.925  -4.979   0.000  0.00  0.00    -0.165 NA
ATOM     13  C   UNL d   1      -1.533  -5.537   0.000  0.00  0.00     0.103 A 
ATOM     14  C   UNL d   1      -1.446  -6.362   0.000  0.00  0.00     0.022 C 
ATOM     15  C   UNL d   1      -2.250  -5.129   0.000  0.00  0.00     0.037 A 
ATOM     16  C   UNL d   1      -2.083  -4.317   0.000  0.00  0.00     0.084 A 
ATOM     17  C   UNL d   1      -3.000  -5.467   0.000  0.00  0.00     0.003 C 
ATOM     18  C   UNL d   1      -2.646  -3.712   0.000  0.00  0.00     0.021 C 
ENDBRANCH  10  11
ENDBRANCH   9  10
ENDBRANCH   3   9
BRANCH   1  19
ATOM     19  S   UNL d   1       3.679  -2.779   0.000  0.00  0.00     0.271 S 
ATOM     20  O   UNL d   1       3.679  -3.612   0.000  0.00  0.00    -0.200 OA
ATOM     21  O   UNL d   1       3.679  -1.954   0.000  0.00  0.00    -0.200 OA
BRANCH  19  22
ATOM     22  C   UNL d   1       4.513  -2.779   0.000  0.00  0.00     0.104 A 
ATOM     23  C   UNL d   1       4.917  -2.067   0.000  0.00  0.00     0.014 A 
ATOM     24  C   UNL d   1       5.742  -2.062   0.000  0.00  0.00     0.012 A 
ATOM     25  C   UNL d   1       6.162  -2.779   0.000  0.00  0.00     0.058 A 
ATOM     26  C   UNL d   1       5.750  -3.504   0.000  0.00  0.00     0.012 A 
ATOM     27 CL   UNL d   1       6.987  -2.779   0.000  0.00  0.00    -0.082 Cl
ATOM     28  C   UNL d   1       4.917  -3.504   0.000  0.00  0.00     0.014 A 
ENDBRANCH  19  22
ENDBRANCH   1  19
TORSDOF 5
