REMARK  2 active torsions:
REMARK  status: ('A' for Active; 'I' for Inactive)
REMARK    1  A    between atoms: S_2  and  N_1 
REMARK    2  A    between atoms: N_6  and  S_2 
ROOT
ATOM      1  N   UNL d   1      12.596 -17.894   0.000  0.00  0.00    -0.199 N 
ATOM      2  C   UNL d   1      13.094 -17.242   0.000  0.00  0.00     0.095 A 
ATOM      3  C   UNL d   1      13.078 -18.580   0.000  0.00  0.00     0.194 A 
ATOM      4  N   UNL d   1      13.867 -18.330   0.000  0.00  0.00    -0.223 NA
ATOM      5  C   UNL d   1      13.876 -17.508   0.000  0.00  0.00     0.100 A 
ATOM      6  C   UNL d   1      12.928 -16.436   0.000  0.00  0.00     0.020 A 
ATOM      7  C   UNL d   1      14.491 -16.959   0.000  0.00  0.00     0.021 A 
ATOM      8  C   UNL d   1      13.543 -15.887   0.000  0.00  0.00     0.002 A 
ATOM      9  C   UNL d   1      14.329 -16.149   0.000  0.00  0.00     0.002 A 
ATOM     10  C   UNL d   1      13.377 -15.077   0.000  0.00  0.00     0.000 C 
ATOM     11  C   UNL d   1      14.948 -15.600   0.000  0.00  0.00     0.000 C 
ENDROOT
BRANCH   1  12
ATOM     12  S   UNL d   1      11.781 -17.882   0.000  0.00  0.00     0.339 S 
ATOM     13  O   UNL d   1      11.785 -17.059   0.000  0.00  0.00    -0.181 OA
ATOM     14  O   UNL d   1      11.773 -18.704   0.000  0.00  0.00    -0.181 OA
BRANCH  12  15
ATOM     15  N   UNL d   1      10.958 -17.882   0.000  0.00  0.00    -0.212 N 
ATOM     16  C   UNL d   1      10.547 -17.167   0.000  0.00  0.00     0.120 A 
ATOM     17  C   UNL d   1       9.728 -17.167   0.000  0.00  0.00     0.142 A 
ATOM     18  O   UNL d   1       9.313 -17.869   0.000  0.00  0.00    -0.300 OA
ATOM     19  C   UNL d   1       9.716 -18.588   0.000  0.00  0.00     0.142 A 
ATOM     20  C   UNL d   1      10.547 -18.592   0.000  0.00  0.00     0.120 A 
ENDBRANCH  12  15
ENDBRANCH   1  12
TORSDOF 2
