REMARK  4 active torsions:
REMARK  status: ('A' for Active; 'I' for Inactive)
REMARK       I    between atoms: N_2  and  C_1 
REMARK       I    between atoms: N_3  and  C_1 
REMARK    1  A    between atoms: C_7  and  N_3 
REMARK    2  A    between atoms: C_8  and  C_12 
REMARK    3  A    between atoms: C_17  and  C_8 
REMARK    4  A    between atoms: O_18  and  C_9 
ROOT
ATOM      1  C   UNL d   1      -0.475  -0.662   0.000  0.00  0.00     0.354 C 
ATOM      2  N   UNL d   1       0.242  -0.254   0.000  0.00  0.00    -0.256 N 
ATOM      3  N   UNL d   1      -1.183  -0.242   0.000  0.00  0.00    -0.192 NA
ATOM      4  O   UNL d   1      -0.483  -1.488   0.000  0.00  0.00    -0.244 OA
ATOM      5  C   UNL d   1       0.954  -0.679   0.000  0.00  0.00     0.085 A 
ATOM      6  C   UNL d   1       0.254   0.571   0.000  0.00  0.00     0.085 A 
ATOM      7  C   UNL d   1       1.679  -0.267   0.000  0.00  0.00     0.019 A 
ATOM      8  C   UNL d   1       0.967   0.971   0.000  0.00  0.00     0.019 A 
ATOM      9  C   UNL d   1       1.679   0.550   0.000  0.00  0.00     0.003 A 
ENDROOT
BRANCH   3  10
ATOM     10  C   UNL d   1      -1.908  -0.650   0.000  0.00  0.00     0.086 A 
ATOM     11  C   UNL d   1      -2.612  -0.229   0.000  0.00  0.00     0.021 A 
ATOM     12  C   UNL d   1      -3.333  -0.629   0.000  0.00  0.00     0.026 A 
ATOM     13  C   UNL d   1      -3.337  -1.454   0.000  0.00  0.00     0.094 A 
ATOM     14  C   UNL d   1      -2.621  -1.879   0.000  0.00  0.00     0.026 A 
ATOM     15  C   UNL d   1      -1.908  -1.467   0.000  0.00  0.00     0.021 A 
BRANCH  13  16
ATOM     16  O   UNL d   1      -4.058  -1.867   0.000  0.00  0.00    -0.328 OA
ATOM     17  C   UNL d   1      -4.062  -2.692   0.000  0.00  0.00     0.181 C 
ENDBRANCH  13  16
ENDBRANCH   3  10
BRANCH   9  18
ATOM     18  C   UNL d   1       2.400   0.958   0.000  0.00  0.00     0.000 C 
BRANCH  18  19
ATOM     19  C   UNL d   1       3.112   0.550   0.000  0.00  0.00     0.000 A 
ATOM     20  C   UNL d   1       3.825   0.963   0.000  0.00  0.00     0.000 A 
ATOM     21  C   UNL d   1       4.542   0.550   0.000  0.00  0.00     0.000 A 
ATOM     22  C   UNL d   1       4.542  -0.279   0.000  0.00  0.00     0.000 A 
ATOM     23  C   UNL d   1       3.825  -0.692   0.000  0.00  0.00     0.000 A 
ATOM     24  C   UNL d   1       3.112  -0.279   0.000  0.00  0.00     0.000 A 
ENDBRANCH  18  19
ENDBRANCH   9  18
TORSDOF 4
