REMARK  4 active torsions:
REMARK  status: ('A' for Active; 'I' for Inactive)
REMARK    1  A    between atoms: N_7  and  C_1 
REMARK    2  A    between atoms: S_3  and  N_7 
REMARK    3  A    between atoms: N_8  and  S_3 
REMARK    4  A    between atoms: C_12  and  N_5 
ROOT
ATOM      1  C   UNL d   1       6.290  -3.425   0.000  0.00  0.00     0.170 A 
ATOM      2  C   UNL d   1       6.977  -3.783   0.000  0.00  0.00     0.299 A 
ATOM      3  N   UNL d   1       7.126  -2.532   0.000  0.00  0.00    -0.238 N 
ATOM      4  N   UNL d   1       7.537  -3.178   0.000  0.00  0.00    -0.209 N 
ATOM      5  C   UNL d   1       6.290  -2.692   0.000  0.00  0.00     0.105 A 
ATOM      6  O   UNL d   1       7.126  -4.606   0.000  0.00  0.00    -0.263 OA
ATOM      7  C   UNL d   1       7.463  -1.758   0.000  0.00  0.00     0.120 C 
ATOM      8  C   UNL d   1       6.014  -2.029   0.000  0.00  0.00     0.022 C 
ENDROOT
BRANCH   1   9
ATOM      9  N   UNL d   1       5.549  -3.808   0.000  0.00  0.00    -0.137 NA
BRANCH   9  10
ATOM     10  S   UNL d   1       4.833  -3.363   0.000  0.00  0.00     0.351 S 
ATOM     11  O   UNL d   1       5.236  -2.622   0.000  0.00  0.00    -0.180 OA
ATOM     12  O   UNL d   1       4.438  -4.100   0.000  0.00  0.00    -0.180 OA
BRANCH  10  13
ATOM     13  N   UNL d   1       4.079  -3.013   0.000  0.00  0.00    -0.215 N 
ATOM     14  C   UNL d   1       4.005  -2.174   0.000  0.00  0.00     0.093 A 
ATOM     15  C   UNL d   1       3.248  -1.828   0.000  0.00  0.00     0.020 A 
ATOM     16  C   UNL d   1       2.561  -2.309   0.000  0.00  0.00     0.003 A 
ATOM     17  C   UNL d   1       2.635  -3.141   0.000  0.00  0.00     0.020 A 
ATOM     18  C   UNL d   1       3.400  -3.499   0.000  0.00  0.00     0.093 A 
ENDBRANCH  10  13
ENDBRANCH   9  10
ENDBRANCH   1   9
BRANCH   4  19
ATOM     19  C   UNL d   1       8.385  -3.178   0.000  0.00  0.00     0.085 A 
ATOM     20  C   UNL d   1       8.772  -3.906   0.000  0.00  0.00     0.019 A 
ATOM     21  C   UNL d   1       9.600  -3.915   0.000  0.00  0.00     0.002 A 
ATOM     22  C   UNL d   1      10.007  -3.203   0.000  0.00  0.00     0.000 A 
ATOM     23  C   UNL d   1       9.595  -2.523   0.000  0.00  0.00     0.002 A 
ATOM     24  C   UNL d   1       8.772  -2.523   0.000  0.00  0.00     0.019 A 
ENDBRANCH   4  19
TORSDOF 4
