REMARK  3 active torsions:
REMARK  status: ('A' for Active; 'I' for Inactive)
REMARK    1  A    between atoms: C_2  and  S_1 
REMARK    2  A    between atoms: N_3  and  S_1 
REMARK    3  A    between atoms: C_8  and  N_3 
ROOT
ATOM      1  S   UNL d   1       6.412  -2.575   0.000  0.00  0.00     0.327 S 
ATOM      2  O   UNL d   1       6.412  -3.404   0.000  0.00  0.00    -0.186 OA
ATOM      3  O   UNL d   1       6.412  -1.750   0.000  0.00  0.00    -0.186 OA
ENDROOT
BRANCH   1   4
ATOM      4  C   UNL d   1       5.588  -2.575   0.000  0.00  0.00     0.116 A 
ATOM      5  C   UNL d   1       5.175  -1.863   0.000  0.00  0.00     0.013 A 
ATOM      6  C   UNL d   1       4.342  -1.863   0.000  0.00  0.00     0.001 A 
ATOM      7  C   UNL d   1       5.579  -1.142   0.000  0.00  0.00     0.001 A 
ATOM      8  C   UNL d   1       3.929  -1.150   0.000  0.00  0.00     0.000 A 
ATOM      9  C   UNL d   1       3.929  -2.575   0.000  0.00  0.00     0.000 A 
ATOM     10  C   UNL d   1       4.342  -0.438   0.000  0.00  0.00     0.000 A 
ATOM     11  C   UNL d   1       5.167  -0.429   0.000  0.00  0.00     0.000 A 
ATOM     12  C   UNL d   1       4.342  -3.292   0.000  0.00  0.00     0.001 A 
ATOM     13  C   UNL d   1       5.175  -3.292   0.000  0.00  0.00     0.014 A 
ENDBRANCH   1   4
BRANCH   1  14
ATOM     14  N   UNL d   1       7.237  -2.575   0.000  0.00  0.00    -0.318 NA
BRANCH  14  15
ATOM     15  C   UNL d   1       8.062  -2.575   0.000  0.00  0.00     0.141 A 
ATOM     16  C   UNL d   1       8.475  -3.279   0.000  0.00  0.00     0.028 A 
ATOM     17  C   UNL d   1       9.292  -3.279   0.000  0.00  0.00     0.101 A 
ATOM     18  C   UNL d   1       9.287  -4.104   0.000  0.00  0.00     0.029 C 
ATOM     19  C   UNL d   1       9.875  -3.867   0.000  0.00  0.00     0.029 C 
ATOM     20  N   UNL d   1       9.704  -2.567   0.000  0.00  0.00    -0.295 NA
ATOM     21  C   UNL d   1       9.292  -1.854   0.000  0.00  0.00     0.101 A 
ATOM     22  C   UNL d   1       8.467  -1.854   0.000  0.00  0.00     0.028 A 
ATOM     23  C   UNL d   1       9.287  -1.029   0.000  0.00  0.00     0.029 C 
ATOM     24  C   UNL d   1       9.875  -1.267   0.000  0.00  0.00     0.029 C 
ENDBRANCH  14  15
ENDBRANCH   1  14
TORSDOF 3
