REMARK  6 active torsions:
REMARK  status: ('A' for Active; 'I' for Inactive)
REMARK    1  A    between atoms: S_2  and  C_1 
REMARK    2  A    between atoms: C_9  and  S_2 
REMARK    3  A    between atoms: N_10  and  C_6 
REMARK    4  A    between atoms: C_13  and  N_10 
REMARK    5  A    between atoms: N_12  and  C_14 
REMARK    6  A    between atoms: C_14  and  C_13 
ROOT
ATOM      1  C   UNL d   1      -0.361  -4.583   0.000  0.00  0.00     0.187 A 
ATOM      2  N   UNL d   1       0.460  -4.583   0.000  0.00  0.00    -0.208 NA
ATOM      3  C   UNL d   1      -0.618  -5.367   0.000  0.00  0.00     0.118 A 
ATOM      4  S   UNL d   1       0.050  -5.848   0.000  0.00  0.00    -0.035 SA
ATOM      5  C   UNL d   1       0.713  -5.367   0.000  0.00  0.00     0.196 A 
ATOM      6 CL   UNL d   1      -1.402  -5.624   0.000  0.00  0.00    -0.073 Cl
ENDROOT
BRANCH   1   7
ATOM      7  S   UNL d   1      -0.846  -3.920   0.000  0.00  0.00     0.228 S 
ATOM      8  O   UNL d   1      -1.539  -4.359   0.000  0.00  0.00    -0.216 OA
ATOM      9  O   UNL d   1      -0.158  -3.476   0.000  0.00  0.00    -0.216 OA
BRANCH   7  10
ATOM     10  C   UNL d   1      -1.265  -3.202   0.000  0.00  0.00     0.089 A 
ATOM     11  C   UNL d   1      -2.086  -3.210   0.000  0.00  0.00     0.011 A 
ATOM     12  C   UNL d   1      -2.509  -2.493   0.000  0.00  0.00     0.001 A 
ATOM     13  C   UNL d   1      -2.099  -1.771   0.000  0.00  0.00     0.000 A 
ATOM     14  C   UNL d   1      -1.265  -1.767   0.000  0.00  0.00     0.001 A 
ATOM     15  C   UNL d   1      -0.846  -2.480   0.000  0.00  0.00     0.011 A 
ENDBRANCH   7  10
ENDBRANCH   1   7
BRANCH   5  16
ATOM     16  N   UNL d   1       1.493  -5.624   0.000  0.00  0.00    -0.218 NA
BRANCH  16  17
ATOM     17  C   UNL d   1       2.095  -5.069   0.000  0.00  0.00     0.120 C 
BRANCH  17  18
ATOM     18  C   UNL d   1       2.878  -5.317   0.000  0.00  0.00     0.101 C 
BRANCH  18  19
ATOM     19  N   UNL d   1       3.463  -4.732   0.000  0.00  0.00    -0.299 N 
ATOM     20  C   UNL d   1       3.239  -3.944   0.000  0.00  0.00     0.100 C 
ATOM     21  C   UNL d   1       4.255  -4.940   0.000  0.00  0.00     0.100 C 
ENDBRANCH  18  19
ENDBRANCH  17  18
ENDBRANCH  16  17
ENDBRANCH   5  16
TORSDOF 6
