REMARK  4 active torsions:
REMARK  status: ('A' for Active; 'I' for Inactive)
REMARK    1  A    between atoms: S_2  and  N_1 
REMARK    2  A    between atoms: N_6  and  S_2 
REMARK    3  A    between atoms: C_10  and  C_3 
REMARK    4  A    between atoms: C_14  and  C_10 
ROOT
ATOM      1  N   UNL d   1      12.609 -17.913   0.000  0.00  0.00    -0.201 N 
ATOM      2  C   UNL d   1      13.091 -18.599   0.000  0.00  0.00     0.158 A 
ATOM      3  N   UNL d   1      13.882 -18.350   0.000  0.00  0.00    -0.226 NA
ATOM      4  C   UNL d   1      13.108 -17.260   0.000  0.00  0.00     0.095 A 
ATOM      5  C   UNL d   1      13.890 -17.526   0.000  0.00  0.00     0.100 A 
ATOM      6  C   UNL d   1      12.942 -16.453   0.000  0.00  0.00     0.020 A 
ATOM      7  C   UNL d   1      14.506 -16.977   0.000  0.00  0.00     0.021 A 
ATOM      8  C   UNL d   1      13.557 -15.904   0.000  0.00  0.00     0.002 A 
ATOM      9  C   UNL d   1      14.344 -16.166   0.000  0.00  0.00     0.002 A 
ENDROOT
BRANCH   1  10
ATOM     10  S   UNL d   1      11.793 -17.900   0.000  0.00  0.00     0.338 S 
ATOM     11  O   UNL d   1      11.798 -17.077   0.000  0.00  0.00    -0.181 OA
ATOM     12  O   UNL d   1      11.785 -18.724   0.000  0.00  0.00    -0.181 OA
BRANCH  10  13
ATOM     13  N   UNL d   1      10.970 -17.900   0.000  0.00  0.00    -0.212 N 
ATOM     14  C   UNL d   1      10.558 -18.612   0.000  0.00  0.00     0.120 A 
ATOM     15  C   UNL d   1       9.726 -18.608   0.000  0.00  0.00     0.142 A 
ATOM     16  O   UNL d   1       9.322 -17.888   0.000  0.00  0.00    -0.300 OA
ATOM     17  C   UNL d   1       9.739 -17.185   0.000  0.00  0.00     0.142 A 
ATOM     18  C   UNL d   1      10.558 -17.185   0.000  0.00  0.00     0.120 A 
ENDBRANCH  10  13
ENDBRANCH   1  10
BRANCH   2  19
ATOM     19  C   UNL d   1      12.821 -19.381   0.000  0.00  0.00     0.038 C 
BRANCH  19  20
ATOM     20  C   UNL d   1      13.366 -19.997   0.000  0.00  0.00     0.003 A 
ATOM     21  C   UNL d   1      13.096 -20.779   0.000  0.00  0.00     0.000 A 
ATOM     22  C   UNL d   1      13.640 -21.395   0.000  0.00  0.00     0.000 A 
ATOM     23  C   UNL d   1      14.443 -21.241   0.000  0.00  0.00     0.000 A 
ATOM     24  C   UNL d   1      14.714 -20.455   0.000  0.00  0.00     0.000 A 
ATOM     25  C   UNL d   1      14.169 -19.835   0.000  0.00  0.00     0.000 A 
ENDBRANCH  19  20
ENDBRANCH   2  19
TORSDOF 4
