REMARK  5 active torsions:
REMARK  status: ('A' for Active; 'I' for Inactive)
REMARK    1  A    between atoms: N_6  and  S_1 
REMARK    2  A    between atoms: C_16  and  S_1 
REMARK    3  A    between atoms: N_2  and  C_15 
REMARK       I    between atoms: C_9  and  N_8 
REMARK    4  A    between atoms: C_10  and  C_9 
REMARK    5  A    between atoms: C_15  and  C_10 
ROOT
ATOM      1  N   UNL d   1       2.849  -2.778   0.000  0.00  0.00    -0.226 N 
ATOM      2  N   UNL d   1       1.204  -2.778   0.000  0.00  0.00    -0.269 N 
ATOM      3  C   UNL d   1       0.379  -2.787   0.000  0.00  0.00     0.267 C 
ATOM      4  C   UNL d   1       2.437  -2.049   0.000  0.00  0.00     0.111 A 
ATOM      5  C   UNL d   1       2.437  -3.491   0.000  0.00  0.00     0.111 A 
ATOM      6  C   UNL d   1       1.612  -3.491   0.000  0.00  0.00     0.103 A 
ATOM      7  C   UNL d   1       1.612  -2.049   0.000  0.00  0.00     0.103 A 
ATOM      8  O   UNL d   1      -0.037  -2.074   0.000  0.00  0.00    -0.267 OA
ENDROOT
BRANCH   3   9
ATOM      9  C   UNL d   1      -0.025  -3.503   0.000  0.00  0.00     0.082 C 
BRANCH   9  10
ATOM     10  C   UNL d   1      -0.850  -3.503   0.000  0.00  0.00     0.105 C 
BRANCH  10  11
ATOM     11  N   UNL d   1      -1.258  -4.224   0.000  0.00  0.00    -0.228 N 
ATOM     12  N   UNL d   1      -0.925  -4.978   0.000  0.00  0.00    -0.165 NA
ATOM     13  C   UNL d   1      -1.533  -5.536   0.000  0.00  0.00     0.103 A 
ATOM     14  C   UNL d   1      -1.445  -6.361   0.000  0.00  0.00     0.022 C 
ATOM     15  C   UNL d   1      -2.249  -5.128   0.000  0.00  0.00     0.037 A 
ATOM     16  C   UNL d   1      -2.083  -4.316   0.000  0.00  0.00     0.084 A 
ATOM     17  C   UNL d   1      -2.999  -5.465   0.000  0.00  0.00     0.003 C 
ATOM     18  C   UNL d   1      -2.645  -3.712   0.000  0.00  0.00     0.021 C 
ENDBRANCH  10  11
ENDBRANCH   9  10
ENDBRANCH   3   9
BRANCH   1  19
ATOM     19  S   UNL d   1       3.678  -2.778   0.000  0.00  0.00     0.271 S 
ATOM     20  O   UNL d   1       3.678  -3.611   0.000  0.00  0.00    -0.200 OA
ATOM     21  O   UNL d   1       3.678  -1.954   0.000  0.00  0.00    -0.200 OA
BRANCH  19  22
ATOM     22  C   UNL d   1       4.511  -2.778   0.000  0.00  0.00     0.104 A 
ATOM     23  C   UNL d   1       4.915  -3.503   0.000  0.00  0.00     0.013 A 
ATOM     24  C   UNL d   1       5.748  -3.503   0.000  0.00  0.00     0.001 A 
ATOM     25  C   UNL d   1       6.161  -2.778   0.000  0.00  0.00     0.000 A 
ATOM     26  C   UNL d   1       5.740  -2.062   0.000  0.00  0.00     0.001 A 
ATOM     27  C   UNL d   1       4.915  -2.066   0.000  0.00  0.00     0.013 A 
ENDBRANCH  19  22
ENDBRANCH   1  19
TORSDOF 5
