REMARK  7 active torsions:
REMARK  status: ('A' for Active; 'I' for Inactive)
REMARK    1  A    between atoms: C_2  and  S_1 
REMARK    2  A    between atoms: N_11  and  S_1 
REMARK    3  A    between atoms: O_14  and  C_4 
REMARK    4  A    between atoms: N_10  and  C_15 
REMARK    5  A    between atoms: C_19  and  N_11 
REMARK    6  A    between atoms: C_15  and  C_16 
REMARK    7  A    between atoms: C_16  and  C_19 
ROOT
ATOM      1  S   UNL d   1       4.307  -1.323   0.000  0.00  0.00     0.287 S 
ATOM      2  O   UNL d   1       4.307  -0.502   0.000  0.00  0.00    -0.198 OA
ATOM      3  O   UNL d   1       4.307  -2.151   0.000  0.00  0.00    -0.198 OA
ENDROOT
BRANCH   1   4
ATOM      4  C   UNL d   1       3.486  -1.323   0.000  0.00  0.00     0.128 A 
ATOM      5  C   UNL d   1       3.076  -2.044   0.000  0.00  0.00     0.026 A 
ATOM      6  C   UNL d   1       2.243  -2.044   0.000  0.00  0.00     0.059 A 
ATOM      7 CL   UNL d   1       1.841  -2.753   0.000  0.00  0.00    -0.082 Cl
ATOM      8  C   UNL d   1       1.832  -1.323   0.000  0.00  0.00     0.013 A 
ATOM      9  C   UNL d   1       2.243  -0.614   0.000  0.00  0.00     0.026 A 
ATOM     10  C   UNL d   1       1.012  -1.323   0.000  0.00  0.00     0.001 C 
ATOM     11  C   UNL d   1       3.076  -0.614   0.000  0.00  0.00     0.106 A 
BRANCH  11  12
ATOM     12  O   UNL d   1       3.486   0.100   0.000  0.00  0.00    -0.327 OA
ATOM     13  C   UNL d   1       4.307   0.095   0.000  0.00  0.00     0.181 C 
ENDBRANCH  11  12
ENDBRANCH   1   4
BRANCH   1  14
ATOM     14  N   UNL d   1       5.136  -1.323   0.000  0.00  0.00    -0.157 NA
BRANCH  14  15
ATOM     15  C   UNL d   1       5.547  -2.044   0.000  0.00  0.00     0.114 C 
BRANCH  15  16
ATOM     16  C   UNL d   1       6.372  -2.044   0.000  0.00  0.00     0.041 C 
BRANCH  16  17
ATOM     17  C   UNL d   1       6.782  -2.753   0.000  0.00  0.00     0.082 C 
BRANCH  17  18
ATOM     18  N   UNL d   1       7.603  -2.753   0.000  0.00  0.00    -0.299 N 
ATOM     19  C   UNL d   1       8.022  -3.474   0.000  0.00  0.00     0.107 A 
ATOM     20  C   UNL d   1       8.842  -3.474   0.000  0.00  0.00     0.142 A 
ATOM     21  O   UNL d   1       9.257  -2.765   0.000  0.00  0.00    -0.300 OA
ATOM     22  C   UNL d   1       8.847  -2.044   0.000  0.00  0.00     0.142 A 
ATOM     23  C   UNL d   1       8.013  -2.044   0.000  0.00  0.00     0.107 A 
ENDBRANCH  17  18
ENDBRANCH  16  17
ENDBRANCH  15  16
ENDBRANCH  14  15
ENDBRANCH   1  14
TORSDOF 7
