REMARK  6 active torsions:
REMARK  status: ('A' for Active; 'I' for Inactive)
REMARK    1  A    between atoms: C_2  and  S_1 
REMARK    2  A    between atoms: N_3  and  S_1 
REMARK    3  A    between atoms: C_9  and  N_3 
REMARK    4  A    between atoms: C_13  and  C_7 
REMARK    5  A    between atoms: O_14  and  C_8 
REMARK    6  A    between atoms: C_20  and  O_14 
ROOT
ATOM      1  C   UNL d   1       4.526  -1.946   0.000  0.00  0.00     0.128 A 
ATOM      2  C   UNL d   1       4.526  -2.772   0.000  0.00  0.00     0.015 A 
ATOM      3  C   UNL d   1       3.812  -3.186   0.000  0.00  0.00     0.001 A 
ATOM      4  C   UNL d   1       3.812  -1.541   0.000  0.00  0.00     0.112 A 
ATOM      5  C   UNL d   1       3.098  -2.772   0.000  0.00  0.00     0.002 A 
ATOM      6  C   UNL d   1       3.098  -1.946   0.000  0.00  0.00     0.025 A 
ENDROOT
BRANCH   1   7
ATOM      7  S   UNL d   1       5.240  -1.541   0.000  0.00  0.00     0.287 S 
ATOM      8  O   UNL d   1       5.653  -2.246   0.000  0.00  0.00    -0.198 OA
ATOM      9  O   UNL d   1       4.827  -0.827   0.000  0.00  0.00    -0.198 OA
BRANCH   7  10
ATOM     10  N   UNL d   1       5.954  -1.127   0.000  0.00  0.00    -0.157 NA
BRANCH  10  11
ATOM     11  C   UNL d   1       6.668  -1.541   0.000  0.00  0.00     0.113 A 
ATOM     12  C   UNL d   1       6.668  -2.359   0.000  0.00  0.00     0.119 A 
ATOM     13  N   UNL d   1       7.382  -2.772   0.000  0.00  0.00    -0.241 NA
ATOM     14  C   UNL d   1       8.104  -2.359   0.000  0.00  0.00     0.099 A 
ATOM     15  C   UNL d   1       8.096  -1.532   0.000  0.00  0.00     0.022 A 
ATOM     16  C   UNL d   1       7.382  -1.119   0.000  0.00  0.00     0.023 A 
ENDBRANCH  10  11
ENDBRANCH   7  10
ENDBRANCH   1   7
BRANCH   4  17
ATOM     17  O   UNL d   1       3.812  -0.714   0.000  0.00  0.00    -0.304 OA
BRANCH  17  18
ATOM     18  C   UNL d   1       4.526  -0.301   0.000  0.00  0.00     0.123 C 
ATOM     19  C   UNL d   1       4.526   0.526   0.000  0.00  0.00     0.029 C 
ENDBRANCH  17  18
ENDBRANCH   4  17
BRANCH   3  20
ATOM     20  C   UNL d   1       3.812  -4.013   0.000  0.00  0.00     0.000 C 
ATOM     21  C   UNL d   1       3.098  -4.426   0.000  0.00  0.00     0.000 C 
ATOM     22  C   UNL d   1       4.534  -4.426   0.000  0.00  0.00     0.000 C 
ENDBRANCH   3  20
TORSDOF 6
