REMARK  3 active torsions:
REMARK  status: ('A' for Active; 'I' for Inactive)
REMARK    1  A    between atoms: C_9  and  N_1 
REMARK       I    between atoms: C_8  and  N_2 
REMARK    2  A    between atoms: C_3  and  C_9 
REMARK    3  A    between atoms: C_13  and  C_8 
ROOT
ATOM      1  N   UNL d   1       5.176  -4.777   0.000  0.00  0.00    -0.194 N 
ATOM      2  C   UNL d   1       6.456  -4.391   0.000  0.00  0.00     0.055 A 
ATOM      3  N   UNL d   1       5.658  -5.463   0.000  0.00  0.00    -0.163 NA
ATOM      4  C   UNL d   1       5.675  -4.129   0.000  0.00  0.00     0.089 A 
ATOM      5  C   UNL d   1       4.354  -4.773   0.000  0.00  0.00     0.286 C 
ATOM      6  C   UNL d   1       6.447  -5.213   0.000  0.00  0.00     0.104 A 
ATOM      7  O   UNL d   1       3.955  -4.042   0.000  0.00  0.00    -0.265 OA
ATOM      8  C   UNL d   1       5.425  -3.340   0.000  0.00  0.00     0.021 C 
ATOM      9  C   UNL d   1       7.108  -5.712   0.000  0.00  0.00     0.023 C 
ENDROOT
BRANCH   2  10
ATOM     10  C   UNL d   1       7.133  -3.905   0.000  0.00  0.00     0.089 C 
BRANCH  10  11
ATOM     11  N   UNL d   1       7.054  -3.082   0.000  0.00  0.00    -0.240 N 
ATOM     12  C   UNL d   1       7.669  -2.542   0.000  0.00  0.00     0.267 A 
ATOM     13  C   UNL d   1       7.332  -1.786   0.000  0.00  0.00     0.061 A 
ATOM     14  O   UNL d   1       8.475  -2.721   0.000  0.00  0.00    -0.267 OA
ATOM     15  C   UNL d   1       7.677  -1.039   0.000  0.00  0.00     0.005 A 
ATOM     16  C   UNL d   1       6.518  -1.861   0.000  0.00  0.00     0.061 A 
ATOM     17  C   UNL d   1       7.203  -0.366   0.000  0.00  0.00     0.000 A 
ATOM     18  C   UNL d   1       6.381  -0.440   0.000  0.00  0.00     0.000 A 
ATOM     19  C   UNL d   1       6.036  -1.188   0.000  0.00  0.00     0.005 A 
ATOM     20  C   UNL d   1       6.335  -2.667   0.000  0.00  0.00     0.267 A 
ATOM     21  O   UNL d   1       5.575  -2.995   0.000  0.00  0.00    -0.267 OA
ENDBRANCH  10  11
ENDBRANCH   2  10
BRANCH   5  22
ATOM     22  C   UNL d   1       3.938  -5.484   0.000  0.00  0.00     0.087 A 
ATOM     23  S   UNL d   1       3.116  -5.562   0.000  0.00  0.00    -0.082 SA
ATOM     24  C   UNL d   1       2.941  -6.368   0.000  0.00  0.00     0.036 A 
ATOM     25  C   UNL d   1       3.643  -6.784   0.000  0.00  0.00     0.008 A 
ATOM     26  C   UNL d   1       4.266  -6.236   0.000  0.00  0.00     0.012 A 
ENDBRANCH   5  22
TORSDOF 3
