REMARK  4 active torsions:
REMARK  status: ('A' for Active; 'I' for Inactive)
REMARK    1  A    between atoms: N_5  and  C_1 
REMARK    2  A    between atoms: C_9  and  C_2 
REMARK       I    between atoms: C_6  and  N_5 
REMARK    3  A    between atoms: C_8  and  C_6 
REMARK    4  A    between atoms: N_10  and  C_9 
ROOT
ATOM      1  C   UNL d   1       1.609  -4.307   0.000  0.00  0.00     0.115 A 
ATOM      2  C   UNL d   1       1.197  -3.596   0.000  0.00  0.00     0.042 A 
ATOM      3  S   UNL d   1       1.052  -4.926   0.000  0.00  0.00    -0.068 SA
ATOM      4  C   UNL d   1       0.391  -3.770   0.000  0.00  0.00     0.009 A 
ATOM      5  C   UNL d   1       0.312  -4.593   0.000  0.00  0.00     0.031 A 
ATOM      6  C   UNL d   1      -0.233  -3.230   0.000  0.00  0.00     0.001 C 
ATOM      7  C   UNL d   1      -0.399  -5.018   0.000  0.00  0.00     0.007 C 
ENDROOT
BRANCH   1   8
ATOM      8  N   UNL d   1       2.436  -4.307   0.000  0.00  0.00    -0.201 NA
ATOM      9  C   UNL d   1       2.848  -3.596   0.000  0.00  0.00     0.282 C 
ATOM     10  O   UNL d   1       2.436  -2.885   0.000  0.00  0.00    -0.265 OA
BRANCH   9  11
ATOM     11  C   UNL d   1       3.671  -3.596   0.000  0.00  0.00     0.085 A 
ATOM     12  C   UNL d   1       4.082  -4.307   0.000  0.00  0.00     0.145 A 
ATOM     13  F   UNL d   1       3.658  -5.026   0.000  0.00  0.00    -0.204 F 
ATOM     14  C   UNL d   1       4.905  -4.307   0.000  0.00  0.00     0.030 A 
ATOM     15  C   UNL d   1       5.317  -3.596   0.000  0.00  0.00     0.002 A 
ATOM     16  C   UNL d   1       4.905  -2.881   0.000  0.00  0.00     0.000 A 
ATOM     17  C   UNL d   1       4.082  -2.881   0.000  0.00  0.00     0.007 A 
ENDBRANCH   9  11
ENDBRANCH   1   8
BRANCH   2  18
ATOM     18  C   UNL d   1       1.534  -2.835   0.000  0.00  0.00     0.082 C 
BRANCH  18  19
ATOM     19  N   UNL d   1       1.052  -2.170   0.000  0.00  0.00    -0.302 N 
ATOM     20  C   UNL d   1       0.229  -2.257   0.000  0.00  0.00     0.080 A 
ATOM     21  C   UNL d   1      -0.258  -1.588   0.000  0.00  0.00     0.019 A 
ATOM     22  C   UNL d   1       0.079  -0.836   0.000  0.00  0.00     0.003 A 
ATOM     23  C   UNL d   1       0.902  -0.748   0.000  0.00  0.00     0.019 A 
ATOM     24  C   UNL d   1       1.388  -1.413   0.000  0.00  0.00     0.080 A 
ENDBRANCH  18  19
ENDBRANCH   2  18
TORSDOF 4
