REMARK  3 active torsions:
REMARK  status: ('A' for Active; 'I' for Inactive)
REMARK    1  A    between atoms: C_9  and  C_4 
REMARK    2  A    between atoms: C_10  and  C_7 
REMARK    3  A    between atoms: C_13  and  C_10 
ROOT
ATOM      1  C   UNL d   1      -0.038   0.031   0.000  0.00  0.00     0.179 A 
ATOM      2  N   UNL d   1       0.220   0.821   0.000  0.00  0.00    -0.282 N 
ATOM      3  N   UNL d   1       0.622  -0.457   0.000  0.00  0.00    -0.221 NA
ATOM      4  C   UNL d   1       1.299   0.031   0.000  0.00  0.00     0.101 A 
ATOM      5  S   UNL d   1      -0.863   0.031   0.000  0.00  0.00    -0.048 SA
ATOM      6  C   UNL d   1       1.045   0.811   0.000  0.00  0.00     0.101 A 
ATOM      7  C   UNL d   1      -1.113   0.821   0.000  0.00  0.00     0.050 A 
ATOM      8  C   UNL d   1      -0.450   1.296   0.000  0.00  0.00     0.089 A 
ENDROOT
BRANCH   7   9
ATOM      9  C   UNL d   1      -1.904   1.069   0.000  0.00  0.00     0.008 C 
BRANCH   9  10
ATOM     10  C   UNL d   1      -2.512   0.522   0.000  0.00  0.00     0.001 A 
ATOM     11  C   UNL d   1      -2.337  -0.292   0.000  0.00  0.00     0.002 A 
ATOM     12  C   UNL d   1      -2.955  -0.845   0.000  0.00  0.00     0.030 A 
ATOM     13  C   UNL d   1      -3.739  -0.591   0.000  0.00  0.00     0.140 A 
ATOM     14  C   UNL d   1      -3.914   0.216   0.000  0.00  0.00     0.030 A 
ATOM     15  F   UNL d   1      -4.361  -1.127   0.000  0.00  0.00    -0.204 F 
ATOM     16  C   UNL d   1      -3.299   0.770   0.000  0.00  0.00     0.002 A 
ENDBRANCH   9  10
ENDBRANCH   7   9
BRANCH   4  17
ATOM     17  C   UNL d   1       2.076  -0.230   0.000  0.00  0.00     0.019 A 
ATOM     18  C   UNL d   1       2.684   0.320   0.000  0.00  0.00     0.004 A 
ATOM     19  C   UNL d   1       3.474   0.069   0.000  0.00  0.00     0.030 A 
ATOM     20  C   UNL d   1       3.643  -0.742   0.000  0.00  0.00     0.140 A 
ATOM     21  C   UNL d   1       3.035  -1.292   0.000  0.00  0.00     0.030 A 
ATOM     22  F   UNL d   1       4.354  -1.155   0.000  0.00  0.00    -0.204 F 
ATOM     23  C   UNL d   1       2.251  -1.041   0.000  0.00  0.00     0.004 A 
ENDBRANCH   4  17
TORSDOF 3
