REMARK  6 active torsions:
REMARK  status: ('A' for Active; 'I' for Inactive)
REMARK    1  A    between atoms: C_4  and  C_1 
REMARK    2  A    between atoms: C_13  and  N_3 
REMARK    3  A    between atoms: C_11  and  N_5 
REMARK    4  A    between atoms: C_16  and  C_13 
REMARK    5  A    between atoms: O_14  and  C_16 
REMARK    6  A    between atoms: C_15  and  O_14 
ROOT
ATOM      1  C   UNL d   1       0.329 -15.369   0.000  0.00  0.00     0.149 A 
ATOM      2  N   UNL d   1      -0.162 -14.703   0.000  0.00  0.00    -0.227 NA
ATOM      3  N   UNL d   1      -0.158 -16.051   0.000  0.00  0.00    -0.287 N 
ATOM      4  C   UNL d   1      -0.949 -15.793   0.000  0.00  0.00     0.083 A 
ATOM      5  C   UNL d   1      -0.957 -14.965   0.000  0.00  0.00     0.099 A 
ATOM      6  C   UNL d   1      -1.668 -16.213   0.000  0.00  0.00     0.019 A 
ATOM      7  C   UNL d   1      -1.668 -14.553   0.000  0.00  0.00     0.021 A 
ATOM      8  C   UNL d   1      -2.384 -15.793   0.000  0.00  0.00     0.002 A 
ATOM      9  C   UNL d   1      -2.384 -14.965   0.000  0.00  0.00     0.002 A 
ENDROOT
BRANCH   1  10
ATOM     10  C   UNL d   1       1.153 -15.369   0.000  0.00  0.00     0.057 A 
ATOM     11  C   UNL d   1       1.639 -16.030   0.000  0.00  0.00     0.081 A 
ATOM     12  N   UNL d   1       2.426 -15.768   0.000  0.00  0.00    -0.298 N 
ATOM     13  C   UNL d   1       2.421 -14.944   0.000  0.00  0.00     0.261 A 
ATOM     14  C   UNL d   1       1.635 -14.695   0.000  0.00  0.00     0.065 A 
ATOM     15  O   UNL d   1       3.083 -14.458   0.000  0.00  0.00    -0.267 OA
BRANCH  12  16
ATOM     16  C   UNL d   1       3.095 -16.251   0.000  0.00  0.00     0.071 C 
ATOM     17  C   UNL d   1       3.844 -15.905   0.000  0.00  0.00     0.023 C 
ATOM     18  C   UNL d   1       3.674 -16.829   0.000  0.00  0.00     0.023 C 
ATOM     19  C   UNL d   1       3.012 -17.066   0.000  0.00  0.00     0.023 C 
ENDBRANCH  12  16
ENDBRANCH   1  10
BRANCH   3  20
ATOM     20  C   UNL d   1       0.100 -16.829   0.000  0.00  0.00     0.108 C 
BRANCH  20  21
ATOM     21  C   UNL d   1      -0.449 -17.449   0.000  0.00  0.00     0.142 C 
BRANCH  21  22
ATOM     22  O   UNL d   1      -0.196 -18.227   0.000  0.00  0.00    -0.304 OA
BRANCH  22  23
ATOM     23  C   UNL d   1       0.616 -18.389   0.000  0.00  0.00     0.100 A 
ATOM     24  C   UNL d   1       0.865 -19.176   0.000  0.00  0.00     0.025 A 
ATOM     25  C   UNL d   1       1.677 -19.338   0.000  0.00  0.00     0.002 A 
ATOM     26  C   UNL d   1       2.226 -18.726   0.000  0.00  0.00     0.000 A 
ATOM     27  C   UNL d   1       1.960 -17.940   0.000  0.00  0.00     0.002 A 
ATOM     28  C   UNL d   1       1.153 -17.778   0.000  0.00  0.00     0.025 A 
ENDBRANCH  22  23
ENDBRANCH  21  22
ENDBRANCH  20  21
ENDBRANCH   3  20
TORSDOF 6
