REMARK  4 active torsions:
REMARK  status: ('A' for Active; 'I' for Inactive)
REMARK    1  A    between atoms: C_4  and  C_1 
REMARK    2  A    between atoms: C_12  and  N_2 
REMARK    3  A    between atoms: C_11  and  N_5 
REMARK    4  A    between atoms: C_14  and  C_12 
ROOT
ATOM      1  C   UNL d   1       0.329 -15.370   0.000  0.00  0.00     0.149 A 
ATOM      2  N   UNL d   1      -0.158 -16.053   0.000  0.00  0.00    -0.289 N 
ATOM      3  N   UNL d   1      -0.162 -14.704   0.000  0.00  0.00    -0.227 NA
ATOM      4  C   UNL d   1      -0.949 -15.795   0.000  0.00  0.00     0.083 A 
ATOM      5  C   UNL d   1      -0.957 -14.967   0.000  0.00  0.00     0.099 A 
ATOM      6  C   UNL d   1      -1.669 -16.215   0.000  0.00  0.00     0.019 A 
ATOM      7  C   UNL d   1      -1.669 -14.555   0.000  0.00  0.00     0.021 A 
ATOM      8  C   UNL d   1      -2.384 -15.795   0.000  0.00  0.00     0.002 A 
ATOM      9  C   UNL d   1      -2.384 -14.967   0.000  0.00  0.00     0.002 A 
ENDROOT
BRANCH   1  10
ATOM     10  C   UNL d   1       1.153 -15.370   0.000  0.00  0.00     0.057 A 
ATOM     11  C   UNL d   1       1.639 -16.032   0.000  0.00  0.00     0.081 A 
ATOM     12  N   UNL d   1       2.426 -15.770   0.000  0.00  0.00    -0.298 N 
ATOM     13  C   UNL d   1       2.422 -14.946   0.000  0.00  0.00     0.261 A 
ATOM     14  C   UNL d   1       1.635 -14.696   0.000  0.00  0.00     0.065 A 
ATOM     15  O   UNL d   1       3.083 -14.459   0.000  0.00  0.00    -0.267 OA
BRANCH  12  16
ATOM     16  C   UNL d   1       3.096 -16.252   0.000  0.00  0.00     0.071 C 
ATOM     17  C   UNL d   1       3.674 -16.831   0.000  0.00  0.00     0.023 C 
ATOM     18  C   UNL d   1       3.013 -17.068   0.000  0.00  0.00     0.023 C 
ATOM     19  C   UNL d   1       3.845 -15.907   0.000  0.00  0.00     0.023 C 
ENDBRANCH  12  16
ENDBRANCH   1  10
BRANCH   2  20
ATOM     20  C   UNL d   1       0.100 -16.831   0.000  0.00  0.00     0.082 C 
BRANCH  20  21
ATOM     21  C   UNL d   1      -0.449 -17.451   0.000  0.00  0.00     0.018 A 
ATOM     22  C   UNL d   1      -1.257 -17.280   0.000  0.00  0.00     0.002 A 
ATOM     23  C   UNL d   1      -1.806 -17.892   0.000  0.00  0.00     0.000 A 
ATOM     24  C   UNL d   1      -1.548 -18.674   0.000  0.00  0.00     0.000 A 
ATOM     25  C   UNL d   1      -0.737 -18.840   0.000  0.00  0.00     0.000 A 
ATOM     26  C   UNL d   1      -0.196 -18.229   0.000  0.00  0.00     0.002 A 
ENDBRANCH  20  21
ENDBRANCH   2  20
TORSDOF 4
