REMARK  3 active torsions:
REMARK  status: ('A' for Active; 'I' for Inactive)
REMARK    1  A    between atoms: C_2  and  C_1 
REMARK       I    between atoms: N_5  and  C_2 
REMARK    2  A    between atoms: C_10  and  N_5 
REMARK    3  A    between atoms: O_16  and  C_11 
ROOT
ATOM      1  C   UNL d   1       7.396  -3.636   0.000  0.00  0.00     0.281 C 
ATOM      2  N   UNL d   1       8.108  -4.048   0.000  0.00  0.00    -0.208 NA
ATOM      3  O   UNL d   1       7.396  -2.811   0.000  0.00  0.00    -0.265 OA
ENDROOT
BRANCH   1   4
ATOM      4  C   UNL d   1       6.676  -4.040   0.000  0.00  0.00     0.083 A 
ATOM      5  C   UNL d   1       5.960  -3.623   0.000  0.00  0.00     0.009 A 
ATOM      6  C   UNL d   1       5.239  -4.040   0.000  0.00  0.00     0.023 A 
ATOM      7  C   UNL d   1       4.527  -3.627   0.000  0.00  0.00     0.002 A 
ATOM      8  C   UNL d   1       5.239  -4.877   0.000  0.00  0.00     0.100 A 
ATOM      9  C   UNL d   1       3.815  -4.048   0.000  0.00  0.00     0.000 A 
ATOM     10  C   UNL d   1       3.815  -4.873   0.000  0.00  0.00     0.002 A 
ATOM     11  C   UNL d   1       4.527  -5.285   0.000  0.00  0.00     0.025 A 
ATOM     12  O   UNL d   1       5.951  -5.289   0.000  0.00  0.00    -0.305 OA
ATOM     13  C   UNL d   1       6.676  -4.877   0.000  0.00  0.00     0.127 A 
ENDBRANCH   1   4
BRANCH   2  14
ATOM     14  C   UNL d   1       8.825  -3.636   0.000  0.00  0.00     0.085 A 
ATOM     15  C   UNL d   1       9.537  -4.052   0.000  0.00  0.00     0.021 A 
ATOM     16  C   UNL d   1      10.249  -3.640   0.000  0.00  0.00     0.026 A 
ATOM     17  C   UNL d   1      10.249  -2.824   0.000  0.00  0.00     0.094 A 
ATOM     18  C   UNL d   1       9.537  -2.403   0.000  0.00  0.00     0.026 A 
ATOM     19  C   UNL d   1       8.825  -2.824   0.000  0.00  0.00     0.021 A 
BRANCH  17  20
ATOM     20  O   UNL d   1      10.961  -2.403   0.000  0.00  0.00    -0.328 OA
ATOM     21  C   UNL d   1      10.961  -1.587   0.000  0.00  0.00     0.181 C 
ENDBRANCH  17  20
ENDBRANCH   2  14
TORSDOF 3
