REMARK  4 active torsions:
REMARK  status: ('A' for Active; 'I' for Inactive)
REMARK    1  A    between atoms: C_8  and  C_1 
REMARK    2  A    between atoms: N_5  and  C_2 
REMARK       I    between atoms: C_6  and  N_5 
REMARK    3  A    between atoms: C_10  and  C_6 
REMARK    4  A    between atoms: N_9  and  C_8 
ROOT
ATOM      1  C   UNL d   1       1.080  -3.583   0.000  0.00  0.00     0.042 A 
ATOM      2  C   UNL d   1       0.630  -4.272   0.000  0.00  0.00     0.115 A 
ATOM      3  S   UNL d   1      -0.163  -4.046   0.000  0.00  0.00    -0.068 SA
ATOM      4  C   UNL d   1       0.567  -2.945   0.000  0.00  0.00     0.009 A 
ATOM      5  C   UNL d   1      -0.200  -3.233   0.000  0.00  0.00     0.031 A 
ATOM      6  C   UNL d   1       0.793  -2.144   0.000  0.00  0.00     0.001 C 
ATOM      7  C   UNL d   1      -0.901  -2.791   0.000  0.00  0.00     0.007 C 
ENDROOT
BRANCH   2   8
ATOM      8  N   UNL d   1       0.913  -5.048   0.000  0.00  0.00    -0.201 NA
ATOM      9  C   UNL d   1       0.380  -5.681   0.000  0.00  0.00     0.282 C 
ATOM     10  O   UNL d   1       0.667  -6.449   0.000  0.00  0.00    -0.265 OA
BRANCH   9  11
ATOM     11  C   UNL d   1      -0.434  -5.536   0.000  0.00  0.00     0.085 A 
ATOM     12  C   UNL d   1      -0.959  -6.174   0.000  0.00  0.00     0.145 A 
ATOM     13  F   UNL d   1      -0.747  -6.971   0.000  0.00  0.00    -0.204 F 
ATOM     14  C   UNL d   1      -1.773  -6.036   0.000  0.00  0.00     0.030 A 
ATOM     15  C   UNL d   1      -2.052  -5.256   0.000  0.00  0.00     0.002 A 
ATOM     16  C   UNL d   1      -1.527  -4.622   0.000  0.00  0.00     0.000 A 
ATOM     17  C   UNL d   1      -0.713  -4.768   0.000  0.00  0.00     0.007 A 
ENDBRANCH   9  11
ENDBRANCH   2   8
BRANCH   1  18
ATOM     18  C   UNL d   1       1.902  -3.458   0.000  0.00  0.00     0.082 C 
BRANCH  18  19
ATOM     19  N   UNL d   1       2.194  -2.691   0.000  0.00  0.00    -0.304 N 
ATOM     20  C   UNL d   1       3.020  -2.565   0.000  0.00  0.00     0.064 A 
ATOM     21  C   UNL d   1       3.533  -3.208   0.000  0.00  0.00     0.019 C 
ATOM     22  C   UNL d   1       3.321  -1.794   0.000  0.00  0.00     0.018 A 
ATOM     23  C   UNL d   1       2.807  -1.155   0.000  0.00  0.00     0.003 A 
ATOM     24  C   UNL d   1       1.990  -1.281   0.000  0.00  0.00     0.019 A 
ATOM     25  C   UNL d   1       1.689  -2.044   0.000  0.00  0.00     0.080 A 
ENDBRANCH  18  19
ENDBRANCH   1  18
TORSDOF 4
