REMARK  3 active torsions:
REMARK  status: ('A' for Active; 'I' for Inactive)
REMARK    1  A    between atoms: C_9  and  C_4 
REMARK    2  A    between atoms: C_10  and  C_7 
REMARK    3  A    between atoms: C_17  and  C_10 
ROOT
ATOM      1  C   UNL d   1      -0.265   0.031   0.000  0.00  0.00     0.179 A 
ATOM      2  N   UNL d   1      -0.007   0.821   0.000  0.00  0.00    -0.282 N 
ATOM      3  N   UNL d   1       0.402  -0.457   0.000  0.00  0.00    -0.221 NA
ATOM      4  C   UNL d   1       1.076   0.031   0.000  0.00  0.00     0.101 A 
ATOM      5  S   UNL d   1      -1.089   0.031   0.000  0.00  0.00    -0.048 SA
ATOM      6  C   UNL d   1       0.818   0.811   0.000  0.00  0.00     0.101 A 
ATOM      7  C   UNL d   1      -1.337   0.821   0.000  0.00  0.00     0.050 A 
ATOM      8  C   UNL d   1      -0.677   1.296   0.000  0.00  0.00     0.089 A 
ENDROOT
BRANCH   4   9
ATOM      9  C   UNL d   1       1.849  -0.230   0.000  0.00  0.00     0.019 A 
ATOM     10  C   UNL d   1       2.464   0.320   0.000  0.00  0.00     0.004 A 
ATOM     11  C   UNL d   1       3.251   0.069   0.000  0.00  0.00     0.030 A 
ATOM     12  C   UNL d   1       3.416  -0.742   0.000  0.00  0.00     0.140 A 
ATOM     13  C   UNL d   1       2.808  -1.292   0.000  0.00  0.00     0.030 A 
ATOM     14  F   UNL d   1       4.134  -1.158   0.000  0.00  0.00    -0.204 F 
ATOM     15  C   UNL d   1       2.024  -1.041   0.000  0.00  0.00     0.004 A 
ENDBRANCH   4   9
BRANCH   7  16
ATOM     16  C   UNL d   1      -2.124   1.069   0.000  0.00  0.00     0.008 C 
BRANCH  16  17
ATOM     17  C   UNL d   1      -2.739   0.522   0.000  0.00  0.00     0.001 A 
ATOM     18  C   UNL d   1      -3.522   0.770   0.000  0.00  0.00     0.000 A 
ATOM     19  C   UNL d   1      -4.141   0.216   0.000  0.00  0.00     0.000 A 
ATOM     20  C   UNL d   1      -3.966  -0.591   0.000  0.00  0.00     0.000 A 
ATOM     21  C   UNL d   1      -3.182  -0.845   0.000  0.00  0.00     0.000 A 
ATOM     22  C   UNL d   1      -2.564  -0.292   0.000  0.00  0.00     0.000 A 
ENDBRANCH  16  17
ENDBRANCH   7  16
TORSDOF 3
