REMARK  1 active torsions:
REMARK  status: ('A' for Active; 'I' for Inactive)
REMARK       I    between atoms: C_8  and  N_9 
REMARK    1  A    between atoms: N_9  and  C_10 
ROOT
ATOM      1  N   UNL d   1      -0.771  -1.729   0.000  0.00  0.00    -0.304 N 
ATOM      2  C   UNL d   1      -0.286  -1.061   0.000  0.00  0.00     0.066 A 
ATOM      3  C   UNL d   1      -0.771  -0.390   0.000  0.00  0.00     0.018 A 
ATOM      4  C   UNL d   1      -1.555  -1.472   0.000  0.00  0.00     0.064 A 
ATOM      5  C   UNL d   1      -1.555  -0.647   0.000  0.00  0.00     0.018 A 
ATOM      6  C   UNL d   1       0.535  -0.974   0.000  0.00  0.00     0.037 A 
ATOM      7  C   UNL d   1      -0.435   0.361   0.000  0.00  0.00     0.003 A 
ATOM      8  C   UNL d   1       0.871  -0.216   0.000  0.00  0.00     0.086 A 
ATOM      9  C   UNL d   1       0.377   0.448   0.000  0.00  0.00     0.019 A 
ATOM     10  C   UNL d   1      -0.518  -2.504   0.000  0.00  0.00     0.099 C 
ATOM     11  C   UNL d   1      -2.272  -1.882   0.000  0.00  0.00     0.018 A 
ATOM     12  C   UNL d   1      -2.272  -0.236   0.000  0.00  0.00     0.002 A 
ATOM     13  C   UNL d   1      -2.981  -0.647   0.000  0.00  0.00     0.000 A 
ATOM     14  C   UNL d   1      -2.981  -1.472   0.000  0.00  0.00     0.002 A 
ENDROOT
BRANCH   8  15
ATOM     15  N   UNL d   1       1.683  -0.137   0.000  0.00  0.00    -0.208 NA
ATOM     16  C   UNL d   1       2.168  -0.800   0.000  0.00  0.00     0.279 C 
ATOM     17  O   UNL d   1       2.985  -0.713   0.000  0.00  0.00    -0.265 OA
ATOM     18  C   UNL d   1       1.832  -1.546   0.000  0.00  0.00     0.068 C 
ENDBRANCH   8  15
TORSDOF 1
