REMARK  5 active torsions:
REMARK  status: ('A' for Active; 'I' for Inactive)
REMARK    1  A    between atoms: C_10  and  C_3 
REMARK    2  A    between atoms: S_11  and  C_4 
REMARK    3  A    between atoms: C_17  and  S_11 
REMARK    4  A    between atoms: C_13  and  C_17 
REMARK       I    between atoms: N_14  and  C_13 
REMARK    5  A    between atoms: C_15  and  N_14 
ROOT
ATOM      1  C   UNL d   1      -2.948   2.883   0.000  0.00  0.00     0.150 A 
ATOM      2  N   UNL d   1      -2.935   3.712   0.000  0.00  0.00    -0.285 N 
ATOM      3  C   UNL d   1      -2.249   2.469   0.000  0.00  0.00     0.056 A 
ATOM      4  C   UNL d   1      -2.223   4.100   0.000  0.00  0.00     0.096 A 
ATOM      5  N   UNL d   1      -3.664   2.482   0.000  0.00  0.00    -0.227 NA
ATOM      6  C   UNL d   1      -1.528   2.870   0.000  0.00  0.00     0.006 A 
ATOM      7  C   UNL d   1      -1.524   3.686   0.000  0.00  0.00     0.025 A 
ATOM      8  C   UNL d   1      -4.359   3.725   0.000  0.00  0.00     0.084 A 
ATOM      9  C   UNL d   1      -4.372   2.896   0.000  0.00  0.00     0.099 A 
ATOM     10  C   UNL d   1      -0.837   2.456   0.000  0.00  0.00     0.000 C 
ATOM     11  C   UNL d   1      -5.059   4.139   0.000  0.00  0.00     0.019 A 
ATOM     12  C   UNL d   1      -5.084   2.508   0.000  0.00  0.00     0.021 A 
ATOM     13  C   UNL d   1      -5.771   3.738   0.000  0.00  0.00     0.002 A 
ATOM     14  C   UNL d   1      -5.784   2.922   0.000  0.00  0.00     0.002 A 
ENDROOT
BRANCH   4  15
ATOM     15  S   UNL d   1      -2.210   4.946   0.000  0.00  0.00    -0.064 SA
BRANCH  15  16
ATOM     16  C   UNL d   1      -1.731   5.650   0.000  0.00  0.00     0.099 C 
BRANCH  16  17
ATOM     17  C   UNL d   1      -2.098   6.410   0.000  0.00  0.00     0.286 C 
ATOM     18  N   UNL d   1      -1.619   7.113   0.000  0.00  0.00    -0.208 NA
ATOM     19  O   UNL d   1      -2.948   6.479   0.000  0.00  0.00    -0.265 OA
BRANCH  18  20
ATOM     20  C   UNL d   1      -1.990   7.886   0.000  0.00  0.00     0.085 A 
ATOM     21  C   UNL d   1      -1.511   8.576   0.000  0.00  0.00     0.019 A 
ATOM     22  C   UNL d   1      -1.877   9.340   0.000  0.00  0.00     0.002 A 
ATOM     23  C   UNL d   1      -1.398  10.039   0.000  0.00  0.00     0.000 C 
ATOM     24  C   UNL d   1      -2.728   9.418   0.000  0.00  0.00     0.000 A 
ATOM     25  C   UNL d   1      -3.198   8.706   0.000  0.00  0.00     0.002 A 
ATOM     26  C   UNL d   1      -2.831   7.942   0.000  0.00  0.00     0.019 A 
ENDBRANCH  18  20
ENDBRANCH  16  17
ENDBRANCH  15  16
ENDBRANCH   4  15
BRANCH   3  27
ATOM     27  C   UNL d   1      -2.253   1.653   0.000  0.00  0.00     0.125 C 
ATOM     28  N   UNL d   1      -1.528   1.278   0.000  0.00  0.00    -0.146 N 
ENDBRANCH   3  27
TORSDOF 5
