REMARK  1 active torsions:
REMARK  status: ('A' for Active; 'I' for Inactive)
REMARK    1  A    between atoms: C_5  and  C_1 
ROOT
ATOM      1  C   UNL d   1       7.675  -3.681   0.000  0.00  0.00     0.005 A 
ATOM      2  C   UNL d   1       7.462  -2.884   0.000  0.00  0.00     0.001 A 
ATOM      3  C   UNL d   1       8.468  -3.898   0.000  0.00  0.00     0.001 A 
ATOM      4  C   UNL d   1       8.843  -2.521   0.000  0.00  0.00     0.058 A 
ATOM      5  C   UNL d   1       9.056  -3.318   0.000  0.00  0.00     0.011 A 
ATOM      6  C   UNL d   1       8.042  -2.304   0.000  0.00  0.00     0.011 A 
ATOM      7 CL   UNL d   1       9.432  -1.932   0.000  0.00  0.00    -0.082 Cl
ENDROOT
BRANCH   1   8
ATOM      8  C   UNL d   1       7.090  -4.261   0.000  0.00  0.00     0.060 A 
ATOM      9  C   UNL d   1       7.086  -5.062   0.000  0.00  0.00     0.206 A 
ATOM     10  N   UNL d   1       6.402  -5.463   0.000  0.00  0.00    -0.127 NA
ATOM     11  N   UNL d   1       7.804  -5.475   0.000  0.00  0.00    -0.125 N 
ATOM     12  N   UNL d   1       5.722  -5.058   0.000  0.00  0.00    -0.145 NA
ATOM     13  C   UNL d   1       5.722  -4.261   0.000  0.00  0.00     0.125 A 
ENDBRANCH   1   8
TORSDOF 1
