REMARK  4 active torsions:
REMARK  status: ('A' for Active; 'I' for Inactive)
REMARK    1  A    between atoms: C_7  and  C_1 
REMARK    2  A    between atoms: C_6  and  C_3 
REMARK    3  A    between atoms: O_15  and  C_8 
REMARK    4  A    between atoms: O_16  and  C_12 
ROOT
ATOM      1  C   UNL d   1       5.737  -0.204   0.000  0.00  0.00     0.042 A 
ATOM      2  C   UNL d   1       4.942  -0.417   0.000  0.00  0.00     0.098 A 
ATOM      3  C   UNL d   1       4.362   0.163   0.000  0.00  0.00     0.048 A 
ATOM      4  C   UNL d   1       5.954   0.588   0.000  0.00  0.00     0.005 A 
ATOM      5  C   UNL d   1       4.575   0.963   0.000  0.00  0.00     0.096 A 
ATOM      6  C   UNL d   1       5.375   1.175   0.000  0.00  0.00     0.024 A 
ENDROOT
BRANCH   1   7
ATOM      7  C   UNL d   1       6.317  -0.792   0.000  0.00  0.00     0.107 A 
ATOM      8  C   UNL d   1       7.742  -0.792   0.000  0.00  0.00     0.048 A 
ATOM      9  C   UNL d   1       7.737  -1.617   0.000  0.00  0.00     0.169 A 
ATOM     10  N   UNL d   1       7.029  -2.038   0.000  0.00  0.00    -0.142 NA
ATOM     11  N   UNL d   1       6.317  -1.617   0.000  0.00  0.00    -0.148 NA
BRANCH   9  12
ATOM     12  C   UNL d   1       8.454  -2.029   0.000  0.00  0.00     0.231 C 
ATOM     13  O   UNL d   1       8.454  -2.854   0.000  0.00  0.00    -0.643 OA
ATOM     14  O   UNL d   1       9.167  -1.617   0.000  0.00  0.00    -0.643 OA
ENDBRANCH   9  12
ENDBRANCH   1   7
BRANCH   2  15
ATOM     15  O   UNL d   1       4.729  -1.217   0.000  0.00  0.00    -0.328 OA
ATOM     16  C   UNL d   1       3.929  -1.429   0.000  0.00  0.00     0.181 C 
ENDBRANCH   2  15
BRANCH   5  17
ATOM     17  O   UNL d   1       3.992   1.546   0.000  0.00  0.00    -0.328 OA
ATOM     18  C   UNL d   1       4.204   2.346   0.000  0.00  0.00     0.181 C 
ENDBRANCH   5  17
TORSDOF 4
