REMARK  4 active torsions:
REMARK  status: ('A' for Active; 'I' for Inactive)
REMARK    1  A    between atoms: C_6  and  N_1 
REMARK    2  A    between atoms: C_7  and  C_6 
REMARK    3  A    between atoms: C_14  and  C_7 
REMARK    4  A    between atoms: N_10  and  C_14 
ROOT
ATOM      1  N   UNL d   1      -0.557  -4.602   0.000  0.00  0.00    -0.303 N 
ATOM      2  C   UNL d   1      -0.071  -3.933   0.000  0.00  0.00     0.064 A 
ATOM      3  C   UNL d   1      -0.557  -3.259   0.000  0.00  0.00     0.018 A 
ATOM      4  C   UNL d   1      -1.343  -4.344   0.000  0.00  0.00     0.064 A 
ATOM      5  C   UNL d   1      -1.343  -3.517   0.000  0.00  0.00     0.018 A 
ATOM      6  C   UNL d   1       0.752  -3.845   0.000  0.00  0.00     0.018 A 
ATOM      7  C   UNL d   1      -0.220  -2.507   0.000  0.00  0.00     0.002 A 
ATOM      8  C   UNL d   1      -2.058  -4.756   0.000  0.00  0.00     0.018 A 
ATOM      9  C   UNL d   1      -2.058  -3.105   0.000  0.00  0.00     0.002 A 
ATOM     10  C   UNL d   1       0.599  -2.419   0.000  0.00  0.00     0.000 A 
ATOM     11  C   UNL d   1       1.089  -3.084   0.000  0.00  0.00     0.002 A 
ATOM     12  C   UNL d   1      -2.768  -4.344   0.000  0.00  0.00     0.002 A 
ATOM     13  C   UNL d   1      -2.768  -3.517   0.000  0.00  0.00     0.000 A 
ENDROOT
BRANCH   1  14
ATOM     14  C   UNL d   1      -0.299  -5.379   0.000  0.00  0.00     0.124 C 
BRANCH  14  15
ATOM     15  C   UNL d   1       0.503  -5.554   0.000  0.00  0.00     0.232 C 
ATOM     16  O   UNL d   1       0.761  -6.335   0.000  0.00  0.00    -0.283 OA
BRANCH  15  17
ATOM     17  C   UNL d   1       1.052  -4.938   0.000  0.00  0.00     0.142 C 
BRANCH  17  18
ATOM     18  N   UNL d   1       1.862  -5.105   0.000  0.00  0.00    -0.237 NA
ATOM     19  C   UNL d   1       2.112  -5.890   0.000  0.00  0.00     0.120 C 
ENDBRANCH  17  18
ENDBRANCH  15  17
ENDBRANCH  14  15
ENDBRANCH   1  14
TORSDOF 4
