REMARK  4 active torsions:
REMARK  status: ('A' for Active; 'I' for Inactive)
REMARK    1  A    between atoms: C_6  and  C_1 
REMARK    2  A    between atoms: C_7  and  N_2 
REMARK    3  A    between atoms: C_10  and  C_7 
REMARK    4  A    between atoms: C_11  and  C_10 
ROOT
ATOM      1  C   UNL d   1      -1.587   2.451   0.000  0.00  0.00     0.148 A 
ATOM      2  N   UNL d   1      -2.075   1.774   0.000  0.00  0.00    -0.289 N 
ATOM      3  N   UNL d   1      -2.088   3.127   0.000  0.00  0.00    -0.227 NA
ATOM      4  C   UNL d   1      -2.868   2.025   0.000  0.00  0.00     0.083 A 
ATOM      5  C   UNL d   1      -2.877   2.852   0.000  0.00  0.00     0.099 A 
ATOM      6  C   UNL d   1      -3.591   1.612   0.000  0.00  0.00     0.019 A 
ATOM      7  C   UNL d   1      -3.591   3.278   0.000  0.00  0.00     0.021 A 
ATOM      8  C   UNL d   1      -4.305   2.025   0.000  0.00  0.00     0.002 A 
ATOM      9  C   UNL d   1      -4.305   2.852   0.000  0.00  0.00     0.002 A 
ENDROOT
BRANCH   2  10
ATOM     10  C   UNL d   1      -1.812   0.985   0.000  0.00  0.00     0.082 C 
BRANCH  10  11
ATOM     11  C   UNL d   1      -2.363   0.372   0.000  0.00  0.00     0.019 C 
BRANCH  11  12
ATOM     12  C   UNL d   1      -2.100  -0.405   0.000  0.00  0.00     0.002 A 
ATOM     13  C   UNL d   1      -2.639  -1.019   0.000  0.00  0.00     0.000 A 
ATOM     14  C   UNL d   1      -2.376  -1.795   0.000  0.00  0.00     0.000 A 
ATOM     15  C   UNL d   1      -1.574  -1.958   0.000  0.00  0.00     0.000 A 
ATOM     16  C   UNL d   1      -1.027  -1.340   0.000  0.00  0.00     0.000 A 
ATOM     17  C   UNL d   1      -1.298  -0.564   0.000  0.00  0.00     0.000 A 
ENDBRANCH  11  12
ENDBRANCH  10  11
ENDBRANCH   2  10
BRANCH   1  18
ATOM     18  C   UNL d   1      -0.760   2.463   0.000  0.00  0.00     0.035 A 
ATOM     19  C   UNL d   1      -0.046   2.877   0.000  0.00  0.00     0.003 A 
ATOM     20  C   UNL d   1      -0.046   2.050   0.000  0.00  0.00     0.003 A 
ENDBRANCH   1  18
TORSDOF 4
