REMARK  2 active torsions:
REMARK  status: ('A' for Active; 'I' for Inactive)
REMARK    1  A    between atoms: C_6  and  C_1 
REMARK    2  A    between atoms: C_7  and  C_5 
ROOT
ATOM      1  C   UNL d   1       6.642  -4.842   0.000  0.00  0.00     0.169 A 
ATOM      2  C   UNL d   1       6.642  -4.088   0.000  0.00  0.00     0.048 A 
ATOM      3  N   UNL d   1       5.329  -4.842   0.000  0.00  0.00    -0.148 NA
ATOM      4  N   UNL d   1       5.987  -5.225   0.000  0.00  0.00    -0.142 NA
ATOM      5  C   UNL d   1       5.329  -4.088   0.000  0.00  0.00     0.105 A 
ENDROOT
BRANCH   5   6
ATOM      6  C   UNL d   1       4.750  -3.504   0.000  0.00  0.00     0.020 A 
ATOM      7  C   UNL d   1       4.963  -2.704   0.000  0.00  0.00     0.004 A 
ATOM      8  C   UNL d   1       4.379  -2.117   0.000  0.00  0.00     0.030 A 
ATOM      9  C   UNL d   1       3.579  -2.329   0.000  0.00  0.00     0.140 A 
ATOM     10  C   UNL d   1       3.367  -3.138   0.000  0.00  0.00     0.030 A 
ATOM     11  F   UNL d   1       3.000  -1.754   0.000  0.00  0.00    -0.204 F 
ATOM     12  C   UNL d   1       3.954  -3.717   0.000  0.00  0.00     0.004 A 
ENDBRANCH   5   6
BRANCH   1  13
ATOM     13  C   UNL d   1       7.300  -5.225   0.000  0.00  0.00     0.231 C 
ATOM     14  O   UNL d   1       7.300  -5.979   0.000  0.00  0.00    -0.643 OA
ATOM     15  O   UNL d   1       7.954  -4.842   0.000  0.00  0.00    -0.643 OA
ENDBRANCH   1  13
TORSDOF 2
