REMARK  3 active torsions:
REMARK  status: ('A' for Active; 'I' for Inactive)
REMARK    1  A    between atoms: C_6  and  C_1 
REMARK    2  A    between atoms: C_7  and  C_4 
REMARK    3  A    between atoms: O_14  and  C_6 
ROOT
ATOM      1  C   UNL d   1       7.347  -5.248   0.000  0.00  0.00     0.167 A 
ATOM      2  C   UNL d   1       7.351  -4.418   0.000  0.00  0.00     0.047 A 
ATOM      3  N   UNL d   1       5.932  -5.244   0.000  0.00  0.00    -0.148 NA
ATOM      4  C   UNL d   1       5.932  -4.418   0.000  0.00  0.00     0.105 A 
ATOM      5  N   UNL d   1       6.637  -5.664   0.000  0.00  0.00    -0.143 NA
ENDROOT
BRANCH   4   6
ATOM      6  C   UNL d   1       5.352  -3.833   0.000  0.00  0.00     0.019 A 
ATOM      7  C   UNL d   1       4.556  -4.050   0.000  0.00  0.00     0.002 A 
ATOM      8  C   UNL d   1       3.976  -3.466   0.000  0.00  0.00     0.000 A 
ATOM      9  C   UNL d   1       4.340  -4.841   0.000  0.00  0.00     0.000 C 
ATOM     10  C   UNL d   1       4.192  -2.665   0.000  0.00  0.00     0.000 A 
ATOM     11  C   UNL d   1       4.989  -2.458   0.000  0.00  0.00     0.000 A 
ATOM     12  C   UNL d   1       3.608  -2.081   0.000  0.00  0.00     0.000 C 
ATOM     13  C   UNL d   1       5.568  -3.037   0.000  0.00  0.00     0.002 A 
ENDBRANCH   4   6
BRANCH   1  14
ATOM     14  C   UNL d   1       8.065  -5.659   0.000  0.00  0.00     0.316 C 
ATOM     15  O   UNL d   1       8.065  -6.481   0.000  0.00  0.00    -0.257 OA
BRANCH  14  16
ATOM     16  O   UNL d   1       8.774  -5.248   0.000  0.00  0.00    -0.294 OA
ATOM     17  C   UNL d   1       9.519  -5.672   0.000  0.00  0.00     0.185 C 
ENDBRANCH  14  16
ENDBRANCH   1  14
TORSDOF 3
