REMARK  5 active torsions:
REMARK  status: ('A' for Active; 'I' for Inactive)
REMARK    1  A    between atoms: C_6  and  C_3 
REMARK    2  A    between atoms: C_7  and  C_6 
REMARK    3  A    between atoms: C_8  and  C_7 
REMARK    4  A    between atoms: O_16  and  C_10 
REMARK    5  A    between atoms: O_17  and  C_12 
ROOT
ATOM      1  C   UNL d   1       3.453  -0.713   0.000  0.00  0.00     0.198 C 
ATOM      2  O   UNL d   1       3.507   0.113   0.000  0.00  0.00    -0.286 OA
ENDROOT
BRANCH   1   3
ATOM      3  C   UNL d   1       2.706  -1.076   0.000  0.00  0.00     0.067 C 
BRANCH   3   4
ATOM      4  C   UNL d   1       2.026  -0.613   0.000  0.00  0.00     0.107 A 
ATOM      5  O   UNL d   1       1.993   0.221   0.000  0.00  0.00    -0.273 OA
ATOM      6  C   UNL d   1       1.205   0.446   0.000  0.00  0.00     0.300 A 
ATOM      7  C   UNL d   1       0.742  -0.242   0.000  0.00  0.00     0.065 A 
ATOM      8  O   UNL d   1       0.917   1.222   0.000  0.00  0.00    -0.259 OA
ATOM      9  C   UNL d   1       1.251  -0.892   0.000  0.00  0.00     0.028 A 
ATOM     10  C   UNL d   1      -0.075  -0.354   0.000  0.00  0.00     0.005 A 
ATOM     11  C   UNL d   1       0.942  -1.664   0.000  0.00  0.00     0.002 A 
ATOM     12  C   UNL d   1       0.125  -1.776   0.000  0.00  0.00     0.000 A 
ATOM     13  C   UNL d   1      -0.384  -1.117   0.000  0.00  0.00     0.000 A 
ENDBRANCH   3   4
ENDBRANCH   1   3
BRANCH   1  14
ATOM     14  C   UNL d   1       4.132  -1.176   0.000  0.00  0.00     0.041 A 
ATOM     15  C   UNL d   1       4.870  -0.813   0.000  0.00  0.00     0.029 A 
ATOM     16  C   UNL d   1       5.558  -1.268   0.000  0.00  0.00     0.116 A 
ATOM     17  C   UNL d   1       5.504  -2.093   0.000  0.00  0.00     0.116 A 
ATOM     18  C   UNL d   1       4.758  -2.456   0.000  0.00  0.00     0.026 A 
ATOM     19  C   UNL d   1       4.078  -1.993   0.000  0.00  0.00     0.005 A 
BRANCH  16  20
ATOM     20  O   UNL d   1       6.296  -0.905   0.000  0.00  0.00    -0.326 OA
ATOM     21  C   UNL d   1       6.984  -1.368   0.000  0.00  0.00     0.181 C 
ENDBRANCH  16  20
BRANCH  17  22
ATOM     22  O   UNL d   1       6.184  -2.556   0.000  0.00  0.00    -0.326 OA
ATOM     23  C   UNL d   1       6.129  -3.382   0.000  0.00  0.00     0.181 C 
ENDBRANCH  17  22
ENDBRANCH   1  14
TORSDOF 5
