REMARK  2 active torsions:
REMARK  status: ('A' for Active; 'I' for Inactive)
REMARK    1  A    between atoms: C_6  and  C_1 
REMARK    2  A    between atoms: C_7  and  C_5 
ROOT
ATOM      1  C   UNL d   1       7.347  -5.248   0.000  0.00  0.00     0.169 A 
ATOM      2  C   UNL d   1       7.351  -4.418   0.000  0.00  0.00     0.048 A 
ATOM      3  N   UNL d   1       5.932  -5.244   0.000  0.00  0.00    -0.148 NA
ATOM      4  N   UNL d   1       6.637  -5.664   0.000  0.00  0.00    -0.142 NA
ATOM      5  C   UNL d   1       5.932  -4.418   0.000  0.00  0.00     0.105 A 
ENDROOT
BRANCH   5   6
ATOM      6  C   UNL d   1       5.352  -3.833   0.000  0.00  0.00     0.019 A 
ATOM      7  C   UNL d   1       4.556  -4.050   0.000  0.00  0.00     0.002 A 
ATOM      8  C   UNL d   1       3.976  -3.466   0.000  0.00  0.00     0.000 A 
ATOM      9  C   UNL d   1       3.146  -3.686   0.000  0.00  0.00     0.000 C 
ATOM     10  C   UNL d   1       4.192  -2.665   0.000  0.00  0.00     0.000 A 
ATOM     11  C   UNL d   1       4.989  -2.458   0.000  0.00  0.00     0.000 A 
ATOM     12  C   UNL d   1       3.608  -2.081   0.000  0.00  0.00     0.000 C 
ATOM     13  C   UNL d   1       5.568  -3.037   0.000  0.00  0.00     0.002 A 
ENDBRANCH   5   6
BRANCH   1  14
ATOM     14  C   UNL d   1       8.065  -5.659   0.000  0.00  0.00     0.231 C 
ATOM     15  O   UNL d   1       8.065  -6.481   0.000  0.00  0.00    -0.643 OA
ATOM     16  O   UNL d   1       8.774  -5.248   0.000  0.00  0.00    -0.643 OA
ENDBRANCH   1  14
TORSDOF 2
