REMARK  3 active torsions:
REMARK  status: ('A' for Active; 'I' for Inactive)
REMARK    1  A    between atoms: C_6  and  C_1 
REMARK    2  A    between atoms: C_7  and  C_5 
REMARK    3  A    between atoms: C_15  and  C_14 
ROOT
ATOM      1  C   UNL d   1       6.994  -5.198   0.000  0.00  0.00     0.169 A 
ATOM      2  C   UNL d   1       6.998  -4.412   0.000  0.00  0.00     0.048 A 
ATOM      3  N   UNL d   1       5.644  -5.189   0.000  0.00  0.00    -0.148 NA
ATOM      4  N   UNL d   1       6.310  -5.593   0.000  0.00  0.00    -0.142 NA
ATOM      5  C   UNL d   1       5.644  -4.399   0.000  0.00  0.00     0.105 A 
ENDROOT
BRANCH   5   6
ATOM      6  C   UNL d   1       5.062  -3.826   0.000  0.00  0.00     0.019 A 
ATOM      7  C   UNL d   1       5.279  -3.024   0.000  0.00  0.00     0.002 A 
ATOM      8  C   UNL d   1       4.701  -2.446   0.000  0.00  0.00     0.000 A 
ATOM      9  C   UNL d   1       3.903  -2.654   0.000  0.00  0.00     0.000 A 
ATOM     10  C   UNL d   1       3.686  -3.457   0.000  0.00  0.00     0.000 A 
ATOM     11  C   UNL d   1       4.272  -4.038   0.000  0.00  0.00     0.002 A 
BRANCH   9  12
ATOM     12  C   UNL d   1       3.304  -2.055   0.000  0.00  0.00     0.000 C 
ATOM     13  C   UNL d   1       2.489  -2.272   0.000  0.00  0.00     0.000 C 
ENDBRANCH   9  12
ENDBRANCH   5   6
BRANCH   1  14
ATOM     14  C   UNL d   1       7.674  -5.584   0.000  0.00  0.00     0.231 C 
ATOM     15  O   UNL d   1       7.674  -6.374   0.000  0.00  0.00    -0.643 OA
ATOM     16  O   UNL d   1       8.357  -5.189   0.000  0.00  0.00    -0.643 OA
ENDBRANCH   1  14
TORSDOF 3
