REMARK  3 active torsions:
REMARK  status: ('A' for Active; 'I' for Inactive)
REMARK    1  A    between atoms: C_6  and  C_1 
REMARK    2  A    between atoms: C_8  and  C_4 
REMARK    3  A    between atoms: O_17  and  C_14 
ROOT
ATOM      1  C   UNL d   1       3.067  -0.792   0.000  0.00  0.00     0.122 A 
ATOM      2  C   UNL d   1       3.067  -1.625   0.000  0.00  0.00     0.285 A 
ATOM      3  N   UNL d   1       2.354  -2.038   0.000  0.00  0.00    -0.208 NA
ATOM      4  C   UNL d   1       1.642  -1.625   0.000  0.00  0.00     0.085 A 
ATOM      5  C   UNL d   1       2.354  -0.379   0.000  0.00  0.00     0.013 A 
ATOM      6  C   UNL d   1       1.642  -0.800   0.000  0.00  0.00     0.020 A 
ATOM      7  O   UNL d   1       3.788  -2.038   0.000  0.00  0.00    -0.265 OA
ENDROOT
BRANCH   4   8
ATOM      8  C   UNL d   1       0.925  -2.038   0.000  0.00  0.00     0.018 A 
ATOM      9  C   UNL d   1       0.212  -1.617   0.000  0.00  0.00     0.004 A 
ATOM     10  C   UNL d   1      -0.500  -2.029   0.000  0.00  0.00     0.024 A 
ATOM     11  C   UNL d   1      -0.500  -2.854   0.000  0.00  0.00     0.094 A 
ATOM     12  C   UNL d   1       0.217  -3.267   0.000  0.00  0.00     0.024 A 
ATOM     13  C   UNL d   1       0.929  -2.854   0.000  0.00  0.00     0.004 A 
BRANCH  11  14
ATOM     14  O   UNL d   1      -1.221  -3.267   0.000  0.00  0.00    -0.328 OA
ATOM     15  C   UNL d   1      -1.933  -2.862   0.000  0.00  0.00     0.181 C 
ENDBRANCH  11  14
ENDBRANCH   4   8
BRANCH   1  16
ATOM     16  C   UNL d   1       3.779  -0.379   0.000  0.00  0.00     0.216 C 
ATOM     17  O   UNL d   1       3.779   0.446   0.000  0.00  0.00    -0.644 OA
ATOM     18  O   UNL d   1       4.500  -0.787   0.000  0.00  0.00    -0.644 OA
ENDBRANCH   1  16
TORSDOF 3
