REMARK  4 active torsions:
REMARK  status: ('A' for Active; 'I' for Inactive)
REMARK    1  A    between atoms: C_5  and  C_1 
REMARK    2  A    between atoms: C_9  and  C_6 
REMARK    3  A    between atoms: C_10  and  C_9 
REMARK    4  A    between atoms: C_11  and  C_10 
ROOT
ATOM      1  C   UNL d   1       6.704  -5.987   0.000  0.00  0.00     0.169 A 
ATOM      2  N   UNL d   1       6.037  -6.467   0.000  0.00  0.00    -0.142 NA
ATOM      3  C   UNL d   1       6.450  -5.200   0.000  0.00  0.00     0.048 A 
ATOM      4  N   UNL d   1       5.367  -5.987   0.000  0.00  0.00    -0.148 NA
ATOM      5  C   UNL d   1       5.625  -5.200   0.000  0.00  0.00     0.105 A 
ENDROOT
BRANCH   5   6
ATOM      6  C   UNL d   1       5.129  -4.529   0.000  0.00  0.00     0.021 C 
BRANCH   6   7
ATOM      7  C   UNL d   1       4.312  -4.617   0.000  0.00  0.00     0.002 C 
BRANCH   7   8
ATOM      8  C   UNL d   1       3.825  -3.954   0.000  0.00  0.00     0.000 C 
ATOM      9  C   UNL d   1       3.004  -4.050   0.000  0.00  0.00     0.000 C 
ENDBRANCH   7   8
ENDBRANCH   6   7
ENDBRANCH   5   6
BRANCH   1  10
ATOM     10  C   UNL d   1       7.487  -6.242   0.000  0.00  0.00     0.231 C 
ATOM     11  O   UNL d   1       7.654  -7.050   0.000  0.00  0.00    -0.643 OA
ATOM     12  O   UNL d   1       8.104  -5.692   0.000  0.00  0.00    -0.643 OA
ENDBRANCH   1  10
TORSDOF 4
