REMARK  7 active torsions:
REMARK  status: ('A' for Active; 'I' for Inactive)
REMARK    1  A    between atoms: C_12  and  N_3 
REMARK    2  A    between atoms: C_10  and  C_4 
REMARK    3  A    between atoms: C_15  and  C_12 
REMARK    4  A    between atoms: N_14  and  C_21 
REMARK    5  A    between atoms: C_22  and  N_14 
REMARK    6  A    between atoms: C_21  and  C_15 
REMARK    7  A    between atoms: C_20  and  C_22 
ROOT
ATOM      1  C   UNL d   1       1.712  -1.254   0.000  0.00  0.00     0.137 A 
ATOM      2  N   UNL d   1       1.712  -0.417   0.000  0.00  0.00    -0.259 N 
ATOM      3  N   UNL d   1       0.992  -1.667   0.000  0.00  0.00    -0.287 N 
ATOM      4  C   UNL d   1       2.429  -1.667   0.000  0.00  0.00     0.054 A 
ATOM      5  C   UNL d   1       2.429   0.008   0.000  0.00  0.00     0.266 A 
ATOM      6  C   UNL d   1       0.267  -0.425   0.000  0.00  0.00     0.084 A 
ATOM      7  C   UNL d   1       0.275  -1.254   0.000  0.00  0.00     0.082 A 
ATOM      8  C   UNL d   1       3.154  -1.250   0.000  0.00  0.00     0.009 A 
ATOM      9  C   UNL d   1       3.154  -0.412   0.000  0.00  0.00     0.061 A 
ATOM     10  O   UNL d   1       2.429   0.833   0.000  0.00  0.00    -0.267 OA
ATOM     11  C   UNL d   1      -0.446  -0.013   0.000  0.00  0.00     0.019 A 
ATOM     12  C   UNL d   1       3.866  -1.662   0.000  0.00  0.00     0.000 C 
ATOM     13  C   UNL d   1      -0.446  -1.667   0.000  0.00  0.00     0.019 A 
ATOM     14  C   UNL d   1      -1.158  -0.425   0.000  0.00  0.00     0.002 A 
ATOM     15  C   UNL d   1      -1.158  -1.254   0.000  0.00  0.00     0.002 A 
ENDROOT
BRANCH   3  16
ATOM     16  C   UNL d   1       1.000  -2.491   0.000  0.00  0.00     0.126 C 
BRANCH  16  17
ATOM     17  C   UNL d   1       0.287  -2.904   0.000  0.00  0.00     0.232 C 
ATOM     18  O   UNL d   1      -0.433  -2.500   0.000  0.00  0.00    -0.283 OA
BRANCH  17  19
ATOM     19  C   UNL d   1       0.287  -3.729   0.000  0.00  0.00     0.142 C 
BRANCH  19  20
ATOM     20  N   UNL d   1       1.004  -4.141   0.000  0.00  0.00    -0.239 NA
BRANCH  20  21
ATOM     21  C   UNL d   1       1.716  -3.729   0.000  0.00  0.00     0.099 C 
BRANCH  21  22
ATOM     22  C   UNL d   1       2.429  -4.141   0.000  0.00  0.00     0.019 A 
ATOM     23  C   UNL d   1       2.437  -4.966   0.000  0.00  0.00     0.002 A 
ATOM     24  C   UNL d   1       3.150  -5.374   0.000  0.00  0.00     0.000 A 
ATOM     25  C   UNL d   1       3.866  -4.954   0.000  0.00  0.00     0.000 A 
ATOM     26  C   UNL d   1       3.854  -4.129   0.000  0.00  0.00     0.000 A 
ATOM     27  C   UNL d   1       3.141  -3.725   0.000  0.00  0.00     0.002 A 
ENDBRANCH  21  22
ENDBRANCH  20  21
ENDBRANCH  19  20
ENDBRANCH  17  19
ENDBRANCH  16  17
ENDBRANCH   3  16
BRANCH   4  28
ATOM     28  C   UNL d   1       2.429  -2.491   0.000  0.00  0.00     0.125 C 
ATOM     29  N   UNL d   1       3.150  -2.904   0.000  0.00  0.00    -0.146 N 
ENDBRANCH   4  28
TORSDOF 7
