REMARK  3 active torsions:
REMARK  status: ('A' for Active; 'I' for Inactive)
REMARK    1  A    between atoms: C_6  and  C_1 
REMARK    2  A    between atoms: C_7  and  C_5 
REMARK    3  A    between atoms: O_15  and  C_12 
ROOT
ATOM      1  C   UNL d   1       6.842  -5.430   0.000  0.00  0.00     0.169 A 
ATOM      2  C   UNL d   1       6.842  -4.667   0.000  0.00  0.00     0.048 A 
ATOM      3  N   UNL d   1       5.530  -5.430   0.000  0.00  0.00    -0.148 NA
ATOM      4  N   UNL d   1       6.188  -5.805   0.000  0.00  0.00    -0.142 NA
ATOM      5  C   UNL d   1       5.530  -4.667   0.000  0.00  0.00     0.105 A 
ENDROOT
BRANCH   5   6
ATOM      6  C   UNL d   1       4.950  -4.088   0.000  0.00  0.00     0.020 A 
ATOM      7  C   UNL d   1       5.163  -3.288   0.000  0.00  0.00     0.004 A 
ATOM      8  C   UNL d   1       4.580  -2.704   0.000  0.00  0.00     0.024 A 
ATOM      9  C   UNL d   1       3.780  -2.917   0.000  0.00  0.00     0.094 A 
ATOM     10  C   UNL d   1       3.567  -3.717   0.000  0.00  0.00     0.024 A 
ATOM     11  C   UNL d   1       4.155  -4.301   0.000  0.00  0.00     0.004 A 
BRANCH   9  12
ATOM     12  O   UNL d   1       3.200  -2.338   0.000  0.00  0.00    -0.328 OA
ATOM     13  C   UNL d   1       2.405  -2.550   0.000  0.00  0.00     0.181 C 
ENDBRANCH   9  12
ENDBRANCH   5   6
BRANCH   1  14
ATOM     14  C   UNL d   1       7.501  -5.805   0.000  0.00  0.00     0.231 C 
ATOM     15  O   UNL d   1       7.501  -6.567   0.000  0.00  0.00    -0.643 OA
ATOM     16  O   UNL d   1       8.155  -5.430   0.000  0.00  0.00    -0.643 OA
ENDBRANCH   1  14
TORSDOF 3
