REMARK  3 active torsions:
REMARK  status: ('A' for Active; 'I' for Inactive)
REMARK    1  A    between atoms: C_10  and  C_4 
REMARK    2  A    between atoms: C_13  and  C_10 
REMARK    3  A    between atoms: C_11  and  C_13 
ROOT
ATOM      1  C   UNL d   1       4.718  -5.025   0.000  0.00  0.00     0.752 A 
ATOM      2  N   UNL d   1       4.468  -4.240   0.000  0.00  0.00    -0.056 N 
ATOM      3  N   UNL d   1       5.524  -5.191   0.000  0.00  0.00    -0.059 NA
ATOM      4  C   UNL d   1       5.823  -3.795   0.000  0.00  0.00     0.037 A 
ATOM      5  C   UNL d   1       5.017  -3.620   0.000  0.00  0.00     0.102 A 
ATOM      6  N   UNL d   1       4.057  -5.503   0.000  0.00  0.00    -0.035 NA
ATOM      7  C   UNL d   1       6.077  -4.580   0.000  0.00  0.00     0.101 A 
ATOM      8  N   UNL d   1       3.645  -4.240   0.000  0.00  0.00    -0.127 NA
ATOM      9  C   UNL d   1       3.383  -5.025   0.000  0.00  0.00     0.239 A 
ATOM     10  C   UNL d   1       4.763  -2.843   0.000  0.00  0.00     0.021 C 
ATOM     11  C   UNL d   1       6.883  -4.755   0.000  0.00  0.00     0.021 C 
ENDROOT
BRANCH   4  12
ATOM     12  C   UNL d   1       6.376  -3.192   0.000  0.00  0.00     0.009 C 
BRANCH  12  13
ATOM     13  C   UNL d   1       7.182  -3.367   0.000  0.00  0.00     0.070 C 
BRANCH  13  14
ATOM     14  C   UNL d   1       7.735  -2.756   0.000  0.00  0.00     0.211 C 
ATOM     15  O   UNL d   1       7.486  -1.970   0.000  0.00  0.00    -0.644 OA
ATOM     16  O   UNL d   1       8.541  -2.930   0.000  0.00  0.00    -0.644 OA
ENDBRANCH  13  14
ENDBRANCH  12  13
ENDBRANCH   4  12
TORSDOF 3
