REMARK  3 active torsions:
REMARK  status: ('A' for Active; 'I' for Inactive)
REMARK    1  A    between atoms: C_6  and  C_1 
REMARK    2  A    between atoms: C_7  and  C_5 
REMARK    3  A    between atoms: O_11  and  C_6 
ROOT
ATOM      1  C   UNL d   1       7.771  -4.999   0.000  0.00  0.00     0.167 A 
ATOM      2  C   UNL d   1       7.771  -4.215   0.000  0.00  0.00     0.047 A 
ATOM      3  N   UNL d   1       6.417  -4.999   0.000  0.00  0.00    -0.148 NA
ATOM      4  N   UNL d   1       7.089  -5.395   0.000  0.00  0.00    -0.143 NA
ATOM      5  C   UNL d   1       6.417  -4.207   0.000  0.00  0.00     0.105 A 
ENDROOT
BRANCH   5   6
ATOM      6  C   UNL d   1       5.829  -3.628   0.000  0.00  0.00     0.019 A 
ATOM      7  C   UNL d   1       6.055  -2.827   0.000  0.00  0.00     0.002 A 
ATOM      8  C   UNL d   1       5.471  -2.240   0.000  0.00  0.00     0.011 A 
ATOM      9  C   UNL d   1       4.667  -2.457   0.000  0.00  0.00     0.058 A 
ATOM     10  C   UNL d   1       4.458  -3.257   0.000  0.00  0.00     0.011 A 
ATOM     11 CL   UNL d   1       4.075  -1.857   0.000  0.00  0.00    -0.082 Cl
ATOM     12  C   UNL d   1       5.037  -3.836   0.000  0.00  0.00     0.002 A 
ENDBRANCH   5   6
BRANCH   1  13
ATOM     13  C   UNL d   1       8.456  -5.395   0.000  0.00  0.00     0.316 C 
ATOM     14  O   UNL d   1       8.456  -6.187   0.000  0.00  0.00    -0.257 OA
BRANCH  13  15
ATOM     15  O   UNL d   1       9.163  -4.973   0.000  0.00  0.00    -0.294 OA
ATOM     16  C   UNL d   1       9.900  -5.391   0.000  0.00  0.00     0.185 C 
ENDBRANCH  13  15
ENDBRANCH   1  13
TORSDOF 3
