REMARK  2 active torsions:
REMARK  status: ('A' for Active; 'I' for Inactive)
REMARK    1  A    between atoms: C_6  and  C_1 
REMARK    2  A    between atoms: C_7  and  C_4 
ROOT
ATOM      1  C   UNL d   1       3.337  -2.242   0.000  0.00  0.00     0.169 A 
ATOM      2  C   UNL d   1       3.342  -1.417   0.000  0.00  0.00     0.048 A 
ATOM      3  N   UNL d   1       1.917  -2.242   0.000  0.00  0.00    -0.148 NA
ATOM      4  C   UNL d   1       1.917  -1.417   0.000  0.00  0.00     0.105 A 
ATOM      5  N   UNL d   1       2.629  -2.663   0.000  0.00  0.00    -0.142 NA
ENDROOT
BRANCH   4   6
ATOM      6  C   UNL d   1       1.337  -0.829   0.000  0.00  0.00     0.019 A 
ATOM      7  C   UNL d   1       0.542  -1.042   0.000  0.00  0.00     0.002 A 
ATOM      8  C   UNL d   1      -0.037  -0.463   0.000  0.00  0.00     0.000 A 
ATOM      9  C   UNL d   1       0.329  -1.842   0.000  0.00  0.00     0.000 C 
ATOM     10  C   UNL d   1       0.175   0.338   0.000  0.00  0.00     0.000 A 
ATOM     11  C   UNL d   1       0.975   0.550   0.000  0.00  0.00     0.000 A 
ATOM     12  C   UNL d   1      -0.408   0.921   0.000  0.00  0.00     0.000 C 
ATOM     13  C   UNL d   1       1.554  -0.029   0.000  0.00  0.00     0.002 A 
ENDBRANCH   4   6
BRANCH   1  14
ATOM     14  C   UNL d   1       4.054  -2.654   0.000  0.00  0.00     0.231 C 
ATOM     15  O   UNL d   1       4.054  -3.479   0.000  0.00  0.00    -0.643 OA
ATOM     16  O   UNL d   1       4.767  -2.242   0.000  0.00  0.00    -0.643 OA
ENDBRANCH   1  14
TORSDOF 2
