REMARK  2 active torsions:
REMARK  status: ('A' for Active; 'I' for Inactive)
REMARK    1  A    between atoms: C_6  and  C_1 
REMARK    2  A    between atoms: C_7  and  C_5 
ROOT
ATOM      1  C   UNL d   1       6.652  -4.849   0.000  0.00  0.00     0.169 A 
ATOM      2  C   UNL d   1       6.652  -4.094   0.000  0.00  0.00     0.048 A 
ATOM      3  N   UNL d   1       5.338  -4.849   0.000  0.00  0.00    -0.148 NA
ATOM      4  N   UNL d   1       5.997  -5.233   0.000  0.00  0.00    -0.142 NA
ATOM      5  C   UNL d   1       5.338  -4.094   0.000  0.00  0.00     0.105 A 
ENDROOT
BRANCH   5   6
ATOM      6  C   UNL d   1       4.758  -3.510   0.000  0.00  0.00     0.019 A 
ATOM      7  C   UNL d   1       4.970  -2.708   0.000  0.00  0.00     0.002 A 
ATOM      8  C   UNL d   1       4.386  -2.120   0.000  0.00  0.00     0.000 A 
ATOM      9  C   UNL d   1       3.585  -2.333   0.000  0.00  0.00     0.000 A 
ATOM     10  C   UNL d   1       3.372  -3.143   0.000  0.00  0.00     0.000 A 
ATOM     11  C   UNL d   1       3.005  -1.757   0.000  0.00  0.00     0.000 C 
ATOM     12  C   UNL d   1       3.961  -3.723   0.000  0.00  0.00     0.002 A 
ENDBRANCH   5   6
BRANCH   1  13
ATOM     13  C   UNL d   1       7.312  -5.233   0.000  0.00  0.00     0.231 C 
ATOM     14  O   UNL d   1       7.312  -5.989   0.000  0.00  0.00    -0.643 OA
ATOM     15  O   UNL d   1       7.967  -4.849   0.000  0.00  0.00    -0.643 OA
ENDBRANCH   1  13
TORSDOF 2
