REMARK  4 active torsions:
REMARK  status: ('A' for Active; 'I' for Inactive)
REMARK    1  A    between atoms: C_6  and  C_1 
REMARK    2  A    between atoms: C_7  and  C_5 
REMARK    3  A    between atoms: O_15  and  C_12 
REMARK    4  A    between atoms: C_16  and  O_15 
ROOT
ATOM      1  C   UNL d   1       3.524  -3.562   0.000  0.00  0.00     0.020 A 
ATOM      2  C   UNL d   1       3.744  -2.755   0.000  0.00  0.00     0.004 A 
ATOM      3  C   UNL d   1       2.725  -3.769   0.000  0.00  0.00     0.004 A 
ATOM      4  C   UNL d   1       2.349  -2.387   0.000  0.00  0.00     0.100 A 
ATOM      5  C   UNL d   1       3.161  -2.172   0.000  0.00  0.00     0.025 A 
ATOM      6  C   UNL d   1       2.142  -3.186   0.000  0.00  0.00     0.025 A 
ENDROOT
BRANCH   1   7
ATOM      7  C   UNL d   1       4.107  -4.149   0.000  0.00  0.00     0.105 A 
ATOM      8  C   UNL d   1       5.468  -4.149   0.000  0.00  0.00     0.048 A 
ATOM      9  C   UNL d   1       5.463  -4.944   0.000  0.00  0.00     0.169 A 
ATOM     10  N   UNL d   1       4.783  -5.341   0.000  0.00  0.00    -0.142 NA
ATOM     11  N   UNL d   1       4.107  -4.935   0.000  0.00  0.00    -0.148 NA
BRANCH   9  12
ATOM     12  C   UNL d   1       6.152  -5.337   0.000  0.00  0.00     0.231 C 
ATOM     13  O   UNL d   1       6.152  -6.127   0.000  0.00  0.00    -0.643 OA
ATOM     14  O   UNL d   1       6.862  -4.918   0.000  0.00  0.00    -0.643 OA
ENDBRANCH   9  12
ENDBRANCH   1   7
BRANCH   4  15
ATOM     15  O   UNL d   1       1.766  -1.792   0.000  0.00  0.00    -0.305 OA
BRANCH  15  16
ATOM     16  C   UNL d   1       0.968  -2.007   0.000  0.00  0.00     0.123 C 
ATOM     17  C   UNL d   1       0.380  -1.420   0.000  0.00  0.00     0.029 C 
ENDBRANCH  15  16
ENDBRANCH   4  15
TORSDOF 4
