REMARK  5 active torsions:
REMARK  status: ('A' for Active; 'I' for Inactive)
REMARK    1  A    between atoms: N_7  and  C_1 
REMARK    2  A    between atoms: C_6  and  N_2 
REMARK    3  A    between atoms: C_11  and  C_6 
REMARK    4  A    between atoms: C_12  and  N_7 
REMARK    5  A    between atoms: C_13  and  C_12 
ROOT
ATOM      1  C   UNL d   1      -1.472  -0.888   0.000  0.00  0.00     0.735 A 
ATOM      2  N   UNL d   1      -1.952  -1.564   0.000  0.00  0.00    -0.138 N 
ATOM      3  N   UNL d   1      -1.960  -0.217   0.000  0.00  0.00    -0.059 NA
ATOM      4  C   UNL d   1      -2.740  -1.314   0.000  0.00  0.00     0.100 A 
ATOM      5  C   UNL d   1      -2.740  -0.480   0.000  0.00  0.00     0.116 A 
ATOM      6  C   UNL d   1      -3.454  -1.727   0.000  0.00  0.00     0.020 A 
ATOM      7  C   UNL d   1      -3.462  -0.075   0.000  0.00  0.00     0.021 A 
ATOM      8  C   UNL d   1      -4.167  -1.318   0.000  0.00  0.00     0.002 A 
ATOM      9  C   UNL d   1      -4.175  -0.488   0.000  0.00  0.00     0.002 A 
ENDROOT
BRANCH   1  10
ATOM     10  N   UNL d   1      -0.646  -0.880   0.000  0.00  0.00    -0.056 NA
BRANCH  10  11
ATOM     11  C   UNL d   1      -0.234  -0.167   0.000  0.00  0.00     0.163 C 
BRANCH  11  12
ATOM     12  C   UNL d   1       0.588  -0.154   0.000  0.00  0.00     0.255 C 
ATOM     13  O   UNL d   1       0.993   0.563   0.000  0.00  0.00    -0.281 OA
ENDBRANCH  11  12
ENDBRANCH  10  11
ENDBRANCH   1  10
BRANCH   2  14
ATOM     14  C   UNL d   1      -1.689  -2.344   0.000  0.00  0.00     0.098 C 
BRANCH  14  15
ATOM     15  C   UNL d   1      -2.240  -2.966   0.000  0.00  0.00     0.018 C 
ATOM     16  C   UNL d   1      -1.985  -3.745   0.000  0.00  0.00     0.002 C 
ATOM     17  C   UNL d   1      -3.049  -2.795   0.000  0.00  0.00     0.002 C 
ENDBRANCH  14  15
ENDBRANCH   2  14
TORSDOF 5
