REMARK  3 active torsions:
REMARK  status: ('A' for Active; 'I' for Inactive)
REMARK    1  A    between atoms: C_7  and  C_1 
REMARK    2  A    between atoms: C_6  and  C_3 
REMARK    3  A    between atoms: O_15  and  C_7 
ROOT
ATOM      1  C   UNL d   1       4.628  -5.337   0.000  0.00  0.00     0.167 A 
ATOM      2  C   UNL d   1       4.374  -4.549   0.000  0.00  0.00     0.047 A 
ATOM      3  C   UNL d   1       3.549  -4.549   0.000  0.00  0.00     0.105 A 
ATOM      4  N   UNL d   1       3.291  -5.337   0.000  0.00  0.00    -0.148 NA
ATOM      5  N   UNL d   1       3.962  -5.816   0.000  0.00  0.00    -0.143 NA
ENDROOT
BRANCH   3   6
ATOM      6  C   UNL d   1       3.062  -3.878   0.000  0.00  0.00     0.030 A 
ATOM      7  C   UNL d   1       2.241  -3.966   0.000  0.00  0.00     0.060 A 
ATOM      8  C   UNL d   1       1.754  -3.304   0.000  0.00  0.00     0.023 A 
ATOM      9 CL   UNL d   1       1.912  -4.724   0.000  0.00  0.00    -0.082 Cl
ATOM     10  C   UNL d   1       2.091  -2.541   0.000  0.00  0.00     0.059 A 
ATOM     11  C   UNL d   1       2.916  -2.462   0.000  0.00  0.00     0.011 A 
ATOM     12 CL   UNL d   1       1.604  -1.879   0.000  0.00  0.00    -0.082 Cl
ATOM     13  C   UNL d   1       3.399  -3.129   0.000  0.00  0.00     0.003 A 
ENDBRANCH   3   6
BRANCH   1  14
ATOM     14  C   UNL d   1       5.412  -5.591   0.000  0.00  0.00     0.316 C 
ATOM     15  O   UNL d   1       5.578  -6.399   0.000  0.00  0.00    -0.257 OA
BRANCH  14  16
ATOM     16  O   UNL d   1       6.028  -5.041   0.000  0.00  0.00    -0.294 OA
ATOM     17  C   UNL d   1       6.811  -5.291   0.000  0.00  0.00     0.185 C 
ENDBRANCH  14  16
ENDBRANCH   1  14
TORSDOF 3
