REMARK  1 active torsions:
REMARK  status: ('A' for Active; 'I' for Inactive)
REMARK    1  A    between atoms: C_9  and  C_3 
ROOT
ATOM      1  C   UNL d   1       1.044  -2.021   0.000  0.00  0.00     0.171 A 
ATOM      2  N   UNL d   1       0.330  -2.434   0.000  0.00  0.00    -0.212 N 
ATOM      3  C   UNL d   1       1.044  -1.194   0.000  0.00  0.00     0.121 A 
ATOM      4  N   UNL d   1      -0.384  -2.021   0.000  0.00  0.00    -0.162 NA
ATOM      5  N   UNL d   1       1.758  -2.430   0.000  0.00  0.00    -0.226 NA
ATOM      6  C   UNL d   1       0.330  -3.257   0.000  0.00  0.00     0.086 A 
ATOM      7  C   UNL d   1      -0.384  -1.194   0.000  0.00  0.00     0.130 A 
ATOM      8  C   UNL d   1       1.044  -3.670   0.000  0.00  0.00     0.038 A 
ATOM      9  C   UNL d   1       1.758  -3.257   0.000  0.00  0.00     0.085 A 
ATOM     10  C   UNL d   1      -0.384  -3.670   0.000  0.00  0.00     0.021 C 
ATOM     11  C   UNL d   1       2.472  -3.670   0.000  0.00  0.00     0.021 C 
ENDROOT
BRANCH   3  12
ATOM     12  C   UNL d   1       1.633  -0.614   0.000  0.00  0.00     0.215 C 
ATOM     13  O   UNL d   1       1.420   0.184   0.000  0.00  0.00    -0.644 OA
ATOM     14  O   UNL d   1       2.430  -0.831   0.000  0.00  0.00    -0.644 OA
ENDBRANCH   3  12
TORSDOF 1
