REMARK  3 active torsions:
REMARK  status: ('A' for Active; 'I' for Inactive)
REMARK    1  A    between atoms: N_6  and  C_1 
REMARK    2  A    between atoms: C_7  and  N_2 
REMARK    3  A    between atoms: C_8  and  N_6 
ROOT
ATOM      1  C   UNL d   1      -1.471  -0.887   0.000  0.00  0.00     0.735 A 
ATOM      2  N   UNL d   1      -1.950  -1.562   0.000  0.00  0.00    -0.139 N 
ATOM      3  N   UNL d   1      -1.958  -0.217   0.000  0.00  0.00    -0.059 NA
ATOM      4  C   UNL d   1      -2.737  -1.312   0.000  0.00  0.00     0.100 A 
ATOM      5  C   UNL d   1      -2.737  -0.479   0.000  0.00  0.00     0.116 A 
ATOM      6  C   UNL d   1      -3.450  -1.725   0.000  0.00  0.00     0.020 A 
ATOM      7  C   UNL d   1      -3.458  -0.075   0.000  0.00  0.00     0.021 A 
ATOM      8  C   UNL d   1      -4.162  -1.317   0.000  0.00  0.00     0.002 A 
ATOM      9  C   UNL d   1      -4.171  -0.487   0.000  0.00  0.00     0.002 A 
ENDROOT
BRANCH   1  10
ATOM     10  N   UNL d   1      -0.646  -0.879   0.000  0.00  0.00    -0.061 NA
BRANCH  10  11
ATOM     11  C   UNL d   1      -0.237  -0.167   0.000  0.00  0.00     0.100 A 
ATOM     12  C   UNL d   1      -0.658   0.537   0.000  0.00  0.00     0.020 A 
ATOM     13  C   UNL d   1      -0.258   1.258   0.000  0.00  0.00     0.002 A 
ATOM     14  C   UNL d   1       0.575   1.271   0.000  0.00  0.00     0.000 A 
ATOM     15  C   UNL d   1       0.992   0.558   0.000  0.00  0.00     0.002 A 
ATOM     16  C   UNL d   1       0.588  -0.154   0.000  0.00  0.00     0.020 A 
ENDBRANCH  10  11
ENDBRANCH   1  10
BRANCH   2  17
ATOM     17  C   UNL d   1      -1.688  -2.342   0.000  0.00  0.00     0.082 C 
ATOM     18  C   UNL d   1      -2.237  -2.962   0.000  0.00  0.00     0.020 C 
ATOM     19  C   UNL d   1      -0.883  -2.513   0.000  0.00  0.00     0.020 C 
ENDBRANCH   2  17
TORSDOF 3
