REMARK  1 active torsions:
REMARK  status: ('A' for Active; 'I' for Inactive)
REMARK    1  A    between atoms: C_2  and  C_1 
ROOT
ATOM      1  C   UNL d   1       6.956  -5.567   0.000  0.00  0.00     0.169 A 
ATOM      2  N   UNL d   1       6.295  -6.045   0.000  0.00  0.00    -0.142 NA
ATOM      3  N   UNL d   1       5.621  -5.567   0.000  0.00  0.00    -0.146 NA
ATOM      4  C   UNL d   1       6.707  -4.780   0.000  0.00  0.00     0.050 A 
ATOM      5  C   UNL d   1       5.883  -4.780   0.000  0.00  0.00     0.124 A 
ENDROOT
BRANCH   1   6
ATOM      6  C   UNL d   1       7.743  -5.821   0.000  0.00  0.00     0.231 C 
ATOM      7  O   UNL d   1       7.913  -6.628   0.000  0.00  0.00    -0.643 OA
ATOM      8  O   UNL d   1       8.354  -5.271   0.000  0.00  0.00    -0.643 OA
ENDBRANCH   1   6
TORSDOF 1
