REMARK  5 active torsions:
REMARK  status: ('A' for Active; 'I' for Inactive)
REMARK    1  A    between atoms: C_3  and  C_1 
REMARK    2  A    between atoms: C_9  and  N_2 
REMARK    3  A    between atoms: C_7  and  C_3 
REMARK    4  A    between atoms: C_8  and  C_3 
REMARK    5  A    between atoms: C_20  and  C_6 
ROOT
ATOM      1  C   UNL d   1       5.480  -6.372   0.000  0.00  0.00     0.103 A 
ATOM      2  N   UNL d   1       5.847  -7.111   0.000  0.00  0.00    -0.269 N 
ATOM      3  S   UNL d   1       4.658  -6.485   0.000  0.00  0.00    -0.064 SA
ATOM      4  C   UNL d   1       5.255  -7.686   0.000  0.00  0.00     0.271 A 
ATOM      5  C   UNL d   1       4.521  -7.306   0.000  0.00  0.00     0.087 A 
ATOM      6  O   UNL d   1       5.371  -8.508   0.000  0.00  0.00    -0.266 OA
ENDROOT
BRANCH   2   7
ATOM      7  C   UNL d   1       6.431  -7.694   0.000  0.00  0.00     0.068 A 
ATOM      8  C   UNL d   1       6.210  -8.487   0.000  0.00  0.00     0.020 A 
ATOM      9  C   UNL d   1       6.793  -9.070   0.000  0.00  0.00     0.031 A 
ATOM     10  C   UNL d   1       7.586  -8.850   0.000  0.00  0.00     0.140 A 
ATOM     11  C   UNL d   1       7.799  -8.057   0.000  0.00  0.00     0.031 A 
ATOM     12  F   UNL d   1       8.174  -9.438   0.000  0.00  0.00    -0.204 F 
ATOM     13  C   UNL d   1       7.219  -7.473   0.000  0.00  0.00     0.020 A 
ENDBRANCH   2   7
BRANCH   1  14
ATOM     14  C   UNL d   1       5.859  -5.634   0.000  0.00  0.00     0.103 C 
BRANCH  14  15
ATOM     15  C   UNL d   1       6.685  -5.605   0.000  0.00  0.00     0.300 C 
ATOM     16  O   UNL d   1       7.131  -6.306   0.000  0.00  0.00    -0.264 OA
ATOM     17  N   UNL d   1       7.073  -4.871   0.000  0.00  0.00    -0.102 N 
ENDBRANCH  14  15
BRANCH  14  18
ATOM     18  C   UNL d   1       5.421  -4.942   0.000  0.00  0.00     0.129 C 
ATOM     19  N   UNL d   1       5.805  -4.208   0.000  0.00  0.00    -0.146 N 
ENDBRANCH  14  18
ENDBRANCH   1  14
BRANCH   5  20
ATOM     20  C   UNL d   1       3.783  -7.673   0.000  0.00  0.00     0.011 C 
ATOM     21  C   UNL d   1       3.094  -7.211   0.000  0.00  0.00     0.001 C 
ENDBRANCH   5  20
TORSDOF 5
