REMARK  3 active torsions:
REMARK  status: ('A' for Active; 'I' for Inactive)
REMARK    1  A    between atoms: S_6  and  C_2 
REMARK    2  A    between atoms: C_9  and  S_6 
REMARK    3  A    between atoms: C_7  and  C_9 
ROOT
ATOM      1  N   UNL d   1       3.204  -2.865   0.000  0.00  0.00    -0.196 NA
ATOM      2  C   UNL d   1       4.028  -2.740   0.000  0.00  0.00     0.213 A 
ATOM      3  N   UNL d   1       3.806  -4.065   0.000  0.00  0.00    -0.123 NA
ATOM      4  N   UNL d   1       4.396  -3.480   0.000  0.00  0.00    -0.120 NA
ATOM      5  C   UNL d   1       3.074  -3.689   0.000  0.00  0.00     0.224 A 
ENDROOT
BRANCH   2   6
ATOM      6  S   UNL d   1       4.404  -2.007   0.000  0.00  0.00    -0.062 SA
BRANCH   6   7
ATOM      7  C   UNL d   1       5.232  -1.962   0.000  0.00  0.00     0.162 C 
BRANCH   7   8
ATOM      8  C   UNL d   1       5.613  -1.230   0.000  0.00  0.00     0.197 C 
ATOM      9  O   UNL d   1       5.161  -0.531   0.000  0.00  0.00    -0.647 OA
ATOM     10  O   UNL d   1       6.437  -1.192   0.000  0.00  0.00    -0.647 OA
ENDBRANCH   7   8
ENDBRANCH   6   7
ENDBRANCH   2   6
TORSDOF 3
