REMARK  7 active torsions:
REMARK  status: ('A' for Active; 'I' for Inactive)
REMARK    1  A    between atoms: C_3  and  C_1 
REMARK    2  A    between atoms: C_9  and  N_2 
REMARK    3  A    between atoms: C_6  and  C_3 
REMARK    4  A    between atoms: C_8  and  C_3 
REMARK       I    between atoms: N_11  and  C_6 
REMARK    5  A    between atoms: C_26  and  C_7 
REMARK    6  A    between atoms: C_21  and  N_11 
REMARK    7  A    between atoms: C_12  and  C_21 
ROOT
ATOM      1  C   UNL d   1       4.943  -6.627   0.000  0.00  0.00     0.103 A 
ATOM      2  N   UNL d   1       5.306  -7.364   0.000  0.00  0.00    -0.269 N 
ATOM      3  S   UNL d   1       4.126  -6.744   0.000  0.00  0.00    -0.064 SA
ATOM      4  C   UNL d   1       4.718  -7.944   0.000  0.00  0.00     0.271 A 
ATOM      5  C   UNL d   1       3.989  -7.556   0.000  0.00  0.00     0.087 A 
ATOM      6  O   UNL d   1       4.839  -8.757   0.000  0.00  0.00    -0.266 OA
ENDROOT
BRANCH   1   7
ATOM      7  C   UNL d   1       5.326  -5.893   0.000  0.00  0.00     0.101 C 
BRANCH   7   8
ATOM      8  C   UNL d   1       6.152  -5.856   0.000  0.00  0.00     0.283 C 
ATOM      9  N   UNL d   1       6.531  -5.131   0.000  0.00  0.00    -0.204 NA
ATOM     10  O   UNL d   1       6.593  -6.556   0.000  0.00  0.00    -0.265 OA
BRANCH   9  11
ATOM     11  C   UNL d   1       7.356  -5.093   0.000  0.00  0.00     0.127 C 
BRANCH  11  12
ATOM     12  C   UNL d   1       7.744  -4.368   0.000  0.00  0.00     0.119 A 
ATOM     13  O   UNL d   1       8.556  -4.243   0.000  0.00  0.00    -0.304 OA
ATOM     14  C   UNL d   1       8.694  -3.430   0.000  0.00  0.00     0.123 A 
ATOM     15  C   UNL d   1       7.965  -3.051   0.000  0.00  0.00     0.029 A 
ATOM     16  C   UNL d   1       7.377  -3.626   0.000  0.00  0.00     0.028 A 
ENDBRANCH  11  12
ENDBRANCH   9  11
ENDBRANCH   7   8
BRANCH   7  17
ATOM     17  C   UNL d   1       4.880  -5.193   0.000  0.00  0.00     0.129 C 
ATOM     18  N   UNL d   1       5.268  -4.468   0.000  0.00  0.00    -0.146 N 
ENDBRANCH   7  17
ENDBRANCH   1   7
BRANCH   2  19
ATOM     19  C   UNL d   1       5.893  -7.944   0.000  0.00  0.00     0.067 A 
ATOM     20  C   UNL d   1       6.681  -7.731   0.000  0.00  0.00     0.018 A 
ATOM     21  C   UNL d   1       7.264  -8.306   0.000  0.00  0.00     0.008 A 
ATOM     22  C   UNL d   1       7.052  -9.107   0.000  0.00  0.00     0.035 A 
ATOM     23  C   UNL d   1       6.256  -9.319   0.000  0.00  0.00     0.008 A 
ATOM     24 BR   UNL d   1       7.631  -9.690   0.000  0.00  0.00    -0.049 Br
ATOM     25  C   UNL d   1       5.676  -8.740   0.000  0.00  0.00     0.018 A 
ENDBRANCH   2  19
BRANCH   5  26
ATOM     26  C   UNL d   1       3.251  -7.927   0.000  0.00  0.00     0.011 C 
ATOM     27  C   UNL d   1       2.563  -7.469   0.000  0.00  0.00     0.001 C 
ENDBRANCH   5  26
TORSDOF 7
