REMARK  7 active torsions:
REMARK  status: ('A' for Active; 'I' for Inactive)
REMARK    1  A    between atoms: C_3  and  C_1 
REMARK    2  A    between atoms: C_9  and  N_2 
REMARK    3  A    between atoms: C_6  and  C_3 
REMARK    4  A    between atoms: C_8  and  C_3 
REMARK       I    between atoms: N_11  and  C_6 
REMARK    5  A    between atoms: C_26  and  C_7 
REMARK    6  A    between atoms: C_21  and  N_11 
REMARK    7  A    between atoms: C_12  and  C_21 
ROOT
ATOM      1  C   UNL d   1       4.947  -6.633   0.000  0.00  0.00     0.103 A 
ATOM      2  N   UNL d   1       5.310  -7.371   0.000  0.00  0.00    -0.269 N 
ATOM      3  S   UNL d   1       4.130  -6.750   0.000  0.00  0.00    -0.064 SA
ATOM      4  C   UNL d   1       4.722  -7.951   0.000  0.00  0.00     0.271 A 
ATOM      5  C   UNL d   1       3.992  -7.563   0.000  0.00  0.00     0.087 A 
ATOM      6  O   UNL d   1       4.843  -8.764   0.000  0.00  0.00    -0.266 OA
ENDROOT
BRANCH   1   7
ATOM      7  C   UNL d   1       5.331  -5.899   0.000  0.00  0.00     0.101 C 
BRANCH   7   8
ATOM      8  C   UNL d   1       6.157  -5.861   0.000  0.00  0.00     0.283 C 
ATOM      9  N   UNL d   1       6.537  -5.135   0.000  0.00  0.00    -0.204 NA
ATOM     10  O   UNL d   1       6.599  -6.562   0.000  0.00  0.00    -0.265 OA
BRANCH   9  11
ATOM     11  C   UNL d   1       7.363  -5.098   0.000  0.00  0.00     0.127 C 
BRANCH  11  12
ATOM     12  C   UNL d   1       7.751  -4.372   0.000  0.00  0.00     0.119 A 
ATOM     13  O   UNL d   1       8.564  -4.247   0.000  0.00  0.00    -0.304 OA
ATOM     14  C   UNL d   1       8.702  -3.433   0.000  0.00  0.00     0.123 A 
ATOM     15  C   UNL d   1       7.972  -3.054   0.000  0.00  0.00     0.029 A 
ATOM     16  C   UNL d   1       7.383  -3.629   0.000  0.00  0.00     0.028 A 
ENDBRANCH  11  12
ENDBRANCH   9  11
ENDBRANCH   7   8
BRANCH   7  17
ATOM     17  C   UNL d   1       4.885  -5.198   0.000  0.00  0.00     0.129 C 
ATOM     18  N   UNL d   1       5.273  -4.472   0.000  0.00  0.00    -0.146 N 
ENDBRANCH   7  17
ENDBRANCH   1   7
BRANCH   2  19
ATOM     19  C   UNL d   1       5.899  -7.951   0.000  0.00  0.00     0.068 A 
ATOM     20  C   UNL d   1       6.687  -7.738   0.000  0.00  0.00     0.020 A 
ATOM     21  C   UNL d   1       7.271  -8.314   0.000  0.00  0.00     0.031 A 
ATOM     22  C   UNL d   1       7.058  -9.115   0.000  0.00  0.00     0.140 A 
ATOM     23  C   UNL d   1       6.261  -9.327   0.000  0.00  0.00     0.031 A 
ATOM     24  F   UNL d   1       7.638  -9.699   0.000  0.00  0.00    -0.204 F 
ATOM     25  C   UNL d   1       5.681  -8.748   0.000  0.00  0.00     0.020 A 
ENDBRANCH   2  19
BRANCH   5  26
ATOM     26  C   UNL d   1       3.254  -7.934   0.000  0.00  0.00     0.011 C 
ATOM     27  C   UNL d   1       3.204  -8.752   0.000  0.00  0.00     0.001 C 
ENDBRANCH   5  26
TORSDOF 7
