REMARK  3 active torsions:
REMARK  status: ('A' for Active; 'I' for Inactive)
REMARK    1  A    between atoms: N_4  and  C_2 
REMARK    2  A    between atoms: C_12  and  C_10 
REMARK    3  A    between atoms: C_19  and  C_11 
ROOT
ATOM      1  C   UNL d   1       5.567  -3.898   0.000  0.00  0.00     0.152 A 
ATOM      2  C   UNL d   1       6.266  -3.497   0.000  0.00  0.00     0.174 A 
ATOM      3  C   UNL d   1       5.567  -4.726   0.000  0.00  0.00     0.111 A 
ATOM      4  O   UNL d   1       4.843  -3.484   0.000  0.00  0.00    -0.302 OA
ATOM      5  N   UNL d   1       6.977  -3.898   0.000  0.00  0.00    -0.207 NA
ATOM      6  C   UNL d   1       4.131  -4.726   0.000  0.00  0.00     0.043 A 
ATOM      7  N   UNL d   1       6.266  -5.140   0.000  0.00  0.00    -0.225 NA
ATOM      8  C   UNL d   1       4.131  -3.907   0.000  0.00  0.00     0.102 A 
ATOM      9  C   UNL d   1       6.977  -4.726   0.000  0.00  0.00     0.164 A 
ATOM     10  C   UNL d   1       3.420  -5.140   0.000  0.00  0.00     0.004 A 
ATOM     11  C   UNL d   1       3.415  -3.497   0.000  0.00  0.00     0.025 A 
ATOM     12  C   UNL d   1       2.704  -4.735   0.000  0.00  0.00     0.000 A 
ATOM     13  C   UNL d   1       2.695  -3.907   0.000  0.00  0.00     0.002 A 
ENDROOT
BRANCH   2  14
ATOM     14  N   UNL d   1       6.266  -2.678   0.000  0.00  0.00    -0.284 N 
ATOM     15  C   UNL d   1       6.921  -2.191   0.000  0.00  0.00     0.130 A 
ATOM     16  C   UNL d   1       6.667  -1.415   0.000  0.00  0.00     0.025 A 
ATOM     17  C   UNL d   1       5.847  -1.415   0.000  0.00  0.00     0.021 A 
ATOM     18  C   UNL d   1       5.593  -2.199   0.000  0.00  0.00     0.082 A 
BRANCH  15  19
ATOM     19  C   UNL d   1       7.736  -2.449   0.000  0.00  0.00     0.228 C 
ATOM     20  O   UNL d   1       8.361  -1.876   0.000  0.00  0.00    -0.643 OA
ATOM     21  O   UNL d   1       7.917  -3.277   0.000  0.00  0.00    -0.643 OA
ENDBRANCH  15  19
ENDBRANCH   2  14
BRANCH   9  22
ATOM     22  C   UNL d   1       7.723  -5.149   0.000  0.00  0.00     0.039 C 
ATOM     23  C   UNL d   1       7.728  -5.994   0.000  0.00  0.00     0.003 C 
ENDBRANCH   9  22
TORSDOF 3
