REMARK  3 active torsions:
REMARK  status: ('A' for Active; 'I' for Inactive)
REMARK    1  A    between atoms: N_9  and  C_5 
REMARK    2  A    between atoms: C_12  and  N_9 
REMARK    3  A    between atoms: C_13  and  C_12 
ROOT
ATOM      1  C   UNL d   1       3.627  -1.054   0.000  0.00  0.00     0.153 A 
ATOM      2  O   UNL d   1       3.290  -0.304   0.000  0.00  0.00    -0.302 OA
ATOM      3  C   UNL d   1       4.448  -0.966   0.000  0.00  0.00     0.111 A 
ATOM      4  C   UNL d   1       4.614  -0.154   0.000  0.00  0.00     0.043 A 
ATOM      5  C   UNL d   1       3.290  -1.812   0.000  0.00  0.00     0.189 A 
ATOM      6  C   UNL d   1       3.902   0.250   0.000  0.00  0.00     0.102 A 
ATOM      7  N   UNL d   1       3.777  -2.478   0.000  0.00  0.00    -0.203 NA
ATOM      8  N   UNL d   1       4.926  -1.637   0.000  0.00  0.00    -0.222 NA
ATOM      9  C   UNL d   1       4.598  -2.390   0.000  0.00  0.00     0.201 A 
ATOM     10  C   UNL d   1       5.326   0.250   0.000  0.00  0.00     0.004 A 
ATOM     11  C   UNL d   1       3.902   1.074   0.000  0.00  0.00     0.025 A 
ATOM     12  C   UNL d   1       5.326   1.074   0.000  0.00  0.00     0.000 A 
ATOM     13  C   UNL d   1       4.614   1.487   0.000  0.00  0.00     0.002 A 
ENDROOT
BRANCH   5  14
ATOM     14  N   UNL d   1       2.465  -1.899   0.000  0.00  0.00    -0.222 NA
BRANCH  14  15
ATOM     15  C   UNL d   1       1.986  -1.228   0.000  0.00  0.00     0.120 C 
BRANCH  15  16
ATOM     16  C   UNL d   1       1.166  -1.316   0.000  0.00  0.00     0.101 A 
ATOM     17  N   UNL d   1       0.679  -0.650   0.000  0.00  0.00    -0.242 NA
ATOM     18  C   UNL d   1      -0.146  -0.729   0.000  0.00  0.00     0.099 A 
ATOM     19  C   UNL d   1      -0.483  -1.487   0.000  0.00  0.00     0.021 A 
ATOM     20  C   UNL d   1       0.004  -2.153   0.000  0.00  0.00     0.003 A 
ATOM     21  C   UNL d   1       0.829  -2.066   0.000  0.00  0.00     0.021 A 
ENDBRANCH  15  16
ENDBRANCH  14  15
ENDBRANCH   5  14
TORSDOF 3
