REMARK  3 active torsions:
REMARK  status: ('A' for Active; 'I' for Inactive)
REMARK    1  A    between atoms: S_15  and  C_4 
REMARK    2  A    between atoms: C_9  and  C_16 
REMARK    3  A    between atoms: C_16  and  S_15 
ROOT
ATOM      1  C   UNL d   1       1.485  -1.979   0.000  0.00  0.00     0.141 A 
ATOM      2  C   UNL d   1       1.149  -1.225   0.000  0.00  0.00     0.110 A 
ATOM      3  O   UNL d   1       2.305  -1.894   0.000  0.00  0.00    -0.303 OA
ATOM      4  C   UNL d   1       1.000  -2.647   0.000  0.00  0.00     0.137 A 
ATOM      5  N   UNL d   1       0.179  -2.561   0.000  0.00  0.00    -0.218 NA
ATOM      6  C   UNL d   1       1.763  -0.673   0.000  0.00  0.00     0.043 A 
ATOM      7  N   UNL d   1       0.329  -1.140   0.000  0.00  0.00    -0.225 NA
ATOM      8  C   UNL d   1       2.477  -1.086   0.000  0.00  0.00     0.102 A 
ATOM      9  C   UNL d   1      -0.156  -1.806   0.000  0.00  0.00     0.163 A 
ATOM     10  C   UNL d   1       1.763   0.151   0.000  0.00  0.00     0.004 A 
ATOM     11  C   UNL d   1       3.191  -0.673   0.000  0.00  0.00     0.025 A 
ATOM     12  C   UNL d   1      -0.976  -1.721   0.000  0.00  0.00     0.042 C 
ATOM     13  C   UNL d   1       2.477   0.564   0.000  0.00  0.00     0.000 A 
ATOM     14  C   UNL d   1       3.191   0.151   0.000  0.00  0.00     0.002 A 
ENDROOT
BRANCH   4  15
ATOM     15  S   UNL d   1       1.335  -3.401   0.000  0.00  0.00    -0.062 SA
BRANCH  15  16
ATOM     16  C   UNL d   1       2.156  -3.487   0.000  0.00  0.00     0.076 C 
BRANCH  16  17
ATOM     17  C   UNL d   1       2.491  -4.241   0.000  0.00  0.00     0.169 A 
ATOM     18  N   UNL d   1       3.299  -4.412   0.000  0.00  0.00    -0.225 NA
ATOM     19  C   UNL d   1       3.385  -5.232   0.000  0.00  0.00     0.101 A 
ATOM     20  C   UNL d   1       4.052  -5.718   0.000  0.00  0.00     0.021 A 
ATOM     21  C   UNL d   1       2.631  -5.569   0.000  0.00  0.00     0.101 A 
ATOM     22  C   UNL d   1       3.966  -6.538   0.000  0.00  0.00     0.002 A 
ATOM     23  C   UNL d   1       3.213  -6.874   0.000  0.00  0.00     0.002 A 
ATOM     24  C   UNL d   1       2.545  -6.390   0.000  0.00  0.00     0.021 A 
ATOM     25  N   UNL d   1       2.079  -4.956   0.000  0.00  0.00    -0.225 NA
ENDBRANCH  16  17
ENDBRANCH  15  16
ENDBRANCH   4  15
TORSDOF 3
