REMARK  5 active torsions:
REMARK  status: ('A' for Active; 'I' for Inactive)
REMARK    1  A    between atoms: S_10  and  C_4 
REMARK    2  A    between atoms: C_15  and  S_10 
REMARK    3  A    between atoms: C_11  and  C_15 
REMARK       I    between atoms: N_12  and  C_11 
REMARK    4  A    between atoms: C_16  and  N_12 
REMARK    5  A    between atoms: C_17  and  C_16 
ROOT
ATOM      1  C   UNL d   1       1.483  -1.978   0.000  0.00  0.00     0.141 A 
ATOM      2  C   UNL d   1       1.147  -1.225   0.000  0.00  0.00     0.110 A 
ATOM      3  O   UNL d   1       2.304  -1.892   0.000  0.00  0.00    -0.303 OA
ATOM      4  C   UNL d   1       0.999  -2.646   0.000  0.00  0.00     0.137 A 
ATOM      5  N   UNL d   1       0.178  -2.559   0.000  0.00  0.00    -0.218 NA
ATOM      6  C   UNL d   1       1.761  -0.672   0.000  0.00  0.00     0.043 A 
ATOM      7  N   UNL d   1       0.327  -1.138   0.000  0.00  0.00    -0.225 NA
ATOM      8  C   UNL d   1       2.476  -1.085   0.000  0.00  0.00     0.102 A 
ATOM      9  C   UNL d   1      -0.158  -1.806   0.000  0.00  0.00     0.163 A 
ATOM     10  C   UNL d   1       1.761   0.153   0.000  0.00  0.00     0.004 A 
ATOM     11  C   UNL d   1       3.190  -0.672   0.000  0.00  0.00     0.025 A 
ATOM     12  C   UNL d   1      -0.978  -1.720   0.000  0.00  0.00     0.042 C 
ATOM     13  C   UNL d   1       2.476   0.566   0.000  0.00  0.00     0.000 A 
ATOM     14  C   UNL d   1       3.190   0.153   0.000  0.00  0.00     0.002 A 
ENDROOT
BRANCH   4  15
ATOM     15  S   UNL d   1       1.333  -3.399   0.000  0.00  0.00    -0.060 SA
BRANCH  15  16
ATOM     16  C   UNL d   1       2.155  -3.486   0.000  0.00  0.00     0.099 C 
BRANCH  16  17
ATOM     17  C   UNL d   1       2.490  -4.239   0.000  0.00  0.00     0.286 C 
ATOM     18  N   UNL d   1       3.311  -4.325   0.000  0.00  0.00    -0.204 NA
ATOM     19  O   UNL d   1       2.005  -4.907   0.000  0.00  0.00    -0.265 OA
BRANCH  18  20
ATOM     20  C   UNL d   1       3.796  -3.659   0.000  0.00  0.00     0.127 C 
BRANCH  20  21
ATOM     21  C   UNL d   1       4.616  -3.744   0.000  0.00  0.00     0.119 A 
ATOM     22  O   UNL d   1       5.029  -4.459   0.000  0.00  0.00    -0.304 OA
ATOM     23  C   UNL d   1       5.835  -4.287   0.000  0.00  0.00     0.123 A 
ATOM     24  C   UNL d   1       5.922  -3.467   0.000  0.00  0.00     0.029 A 
ATOM     25  C   UNL d   1       5.168  -3.131   0.000  0.00  0.00     0.028 A 
ENDBRANCH  20  21
ENDBRANCH  18  20
ENDBRANCH  16  17
ENDBRANCH  15  16
ENDBRANCH   4  15
TORSDOF 5
