REMARK  5 active torsions:
REMARK  status: ('A' for Active; 'I' for Inactive)
REMARK    1  A    between atoms: C_2  and  C_1 
REMARK    2  A    between atoms: N_5  and  C_2 
REMARK    3  A    between atoms: C_9  and  C_4 
REMARK    4  A    between atoms: C_21  and  N_10 
REMARK    5  A    between atoms: C_18  and  C_21 
ROOT
ATOM      1  N   UNL d   1       9.211  -6.450   0.000  0.00  0.00    -0.191 NA
ATOM      2  C   UNL d   1       8.603  -7.000   0.000  0.00  0.00     0.103 C 
ATOM      3  C   UNL d   1       7.983  -7.550   0.000  0.00  0.00     0.097 C 
ENDROOT
BRANCH   3   4
ATOM      4  C   UNL d   1       7.207  -7.288   0.000  0.00  0.00     0.091 C 
BRANCH   4   5
ATOM      5  N   UNL d   1       6.590  -7.838   0.000  0.00  0.00    -0.299 N 
ATOM      6  C   UNL d   1       6.754  -8.649   0.000  0.00  0.00     0.100 A 
ATOM      7  C   UNL d   1       6.146  -9.199   0.000  0.00  0.00     0.100 A 
ATOM      8  N   UNL d   1       5.362  -8.938   0.000  0.00  0.00    -0.291 N 
ATOM      9  C   UNL d   1       5.186  -8.135   0.000  0.00  0.00     0.100 A 
ATOM     10  C   UNL d   1       5.803  -7.581   0.000  0.00  0.00     0.100 A 
BRANCH   8  11
ATOM     11  C   UNL d   1       4.750  -9.492   0.000  0.00  0.00     0.143 C 
ATOM     12  S   UNL d   1       4.918 -10.299   0.000  0.00  0.00    -0.057 SA
BRANCH  11  13
ATOM     13  C   UNL d   1       3.958  -9.234   0.000  0.00  0.00     0.126 A 
ATOM     14  O   UNL d   1       3.291  -9.726   0.000  0.00  0.00    -0.305 OA
ATOM     15  C   UNL d   1       2.624  -9.242   0.000  0.00  0.00     0.100 A 
ATOM     16  C   UNL d   1       2.878  -8.450   0.000  0.00  0.00     0.027 A 
ATOM     17  C   UNL d   1       3.701  -8.450   0.000  0.00  0.00     0.029 A 
BRANCH  15  18
ATOM     18  C   UNL d   1       1.841  -9.492   0.000  0.00  0.00     0.024 A 
ATOM     19  C   UNL d   1       1.673 -10.299   0.000  0.00  0.00     0.013 A 
ATOM     20  C   UNL d   1       0.889 -10.564   0.000  0.00  0.00     0.058 A 
ATOM     21 CL   UNL d   1       0.718 -11.375   0.000  0.00  0.00    -0.082 Cl
ATOM     22  C   UNL d   1       0.269 -10.007   0.000  0.00  0.00     0.011 A 
ATOM     23  C   UNL d   1       0.445  -9.199   0.000  0.00  0.00     0.001 A 
ATOM     24  C   UNL d   1       1.228  -8.942   0.000  0.00  0.00     0.002 A 
ENDBRANCH  15  18
ENDBRANCH  11  13
ENDBRANCH   8  11
ENDBRANCH   4   5
ENDBRANCH   3   4
TORSDOF 5
