REMARK  3 active torsions:
REMARK  status: ('A' for Active; 'I' for Inactive)
REMARK    1  A    between atoms: C_6  and  C_16 
REMARK    2  A    between atoms: S_14  and  C_8 
REMARK    3  A    between atoms: C_16  and  S_14 
ROOT
ATOM      1  C   UNL d   1       4.335  -1.978   0.000  0.00  0.00     0.141 A 
ATOM      2  O   UNL d   1       3.999  -1.224   0.000  0.00  0.00    -0.303 OA
ATOM      3  C   UNL d   1       5.155  -1.892   0.000  0.00  0.00     0.110 A 
ATOM      4  C   UNL d   1       5.327  -1.085   0.000  0.00  0.00     0.043 A 
ATOM      5  C   UNL d   1       3.999  -2.733   0.000  0.00  0.00     0.137 A 
ATOM      6  C   UNL d   1       4.613  -0.673   0.000  0.00  0.00     0.102 A 
ATOM      7  N   UNL d   1       4.485  -3.400   0.000  0.00  0.00    -0.215 NA
ATOM      8  N   UNL d   1       5.641  -2.559   0.000  0.00  0.00    -0.222 NA
ATOM      9  C   UNL d   1       5.305  -3.314   0.000  0.00  0.00     0.200 A 
ATOM     10  C   UNL d   1       6.042  -0.673   0.000  0.00  0.00     0.004 A 
ATOM     11  C   UNL d   1       4.613   0.153   0.000  0.00  0.00     0.025 A 
ATOM     12  C   UNL d   1       6.042   0.153   0.000  0.00  0.00     0.000 A 
ATOM     13  C   UNL d   1       5.327   0.566   0.000  0.00  0.00     0.002 A 
ENDROOT
BRANCH   5  14
ATOM     14  S   UNL d   1       3.178  -2.819   0.000  0.00  0.00    -0.062 SA
BRANCH  14  15
ATOM     15  C   UNL d   1       2.694  -2.151   0.000  0.00  0.00     0.076 C 
BRANCH  15  16
ATOM     16  C   UNL d   1       1.874  -2.238   0.000  0.00  0.00     0.169 A 
ATOM     17  N   UNL d   1       1.460  -2.952   0.000  0.00  0.00    -0.225 NA
ATOM     18  C   UNL d   1       0.654  -2.781   0.000  0.00  0.00     0.101 A 
ATOM     19  C   UNL d   1      -0.014  -3.265   0.000  0.00  0.00     0.021 A 
ATOM     20  C   UNL d   1       0.567  -1.960   0.000  0.00  0.00     0.101 A 
ATOM     21  C   UNL d   1      -0.768  -2.929   0.000  0.00  0.00     0.002 A 
ATOM     22  C   UNL d   1      -0.854  -2.110   0.000  0.00  0.00     0.002 A 
ATOM     23  C   UNL d   1      -0.186  -1.625   0.000  0.00  0.00     0.021 A 
ATOM     24  N   UNL d   1       1.321  -1.625   0.000  0.00  0.00    -0.225 NA
ENDBRANCH  15  16
ENDBRANCH  14  15
ENDBRANCH   5  14
TORSDOF 3
