REMARK  3 active torsions:
REMARK  status: ('A' for Active; 'I' for Inactive)
REMARK    1  A    between atoms: S_10  and  C_6 
REMARK    2  A    between atoms: C_14  and  S_10 
REMARK    3  A    between atoms: C_15  and  C_14 
ROOT
ATOM      1  C   UNL d   1       2.291  -2.212   0.000  0.00  0.00     0.141 A 
ATOM      2  O   UNL d   1       1.955  -1.458   0.000  0.00  0.00    -0.303 OA
ATOM      3  C   UNL d   1       3.111  -2.126   0.000  0.00  0.00     0.110 A 
ATOM      4  C   UNL d   1       3.283  -1.319   0.000  0.00  0.00     0.043 A 
ATOM      5  C   UNL d   1       2.568  -0.906   0.000  0.00  0.00     0.102 A 
ATOM      6  C   UNL d   1       1.955  -2.966   0.000  0.00  0.00     0.137 A 
ATOM      7  N   UNL d   1       2.440  -3.633   0.000  0.00  0.00    -0.215 NA
ATOM      8  N   UNL d   1       3.596  -2.793   0.000  0.00  0.00    -0.222 NA
ATOM      9  C   UNL d   1       3.260  -3.547   0.000  0.00  0.00     0.200 A 
ATOM     10  C   UNL d   1       3.997  -0.906   0.000  0.00  0.00     0.004 A 
ATOM     11  C   UNL d   1       2.568  -0.081   0.000  0.00  0.00     0.025 A 
ATOM     12  C   UNL d   1       3.997  -0.081   0.000  0.00  0.00     0.000 A 
ATOM     13  C   UNL d   1       3.283   0.331   0.000  0.00  0.00     0.002 A 
ENDROOT
BRANCH   6  14
ATOM     14  S   UNL d   1       1.135  -3.052   0.000  0.00  0.00    -0.062 SA
BRANCH  14  15
ATOM     15  C   UNL d   1       0.650  -2.384   0.000  0.00  0.00     0.082 C 
BRANCH  15  16
ATOM     16  C   UNL d   1      -0.171  -2.471   0.000  0.00  0.00     0.241 C 
ATOM     17  O   UNL d   1      -0.655  -1.804   0.000  0.00  0.00    -0.283 OA
ENDBRANCH  15  16
ENDBRANCH  14  15
ENDBRANCH   6  14
TORSDOF 3
