REMARK  7 active torsions:
REMARK  status: ('A' for Active; 'I' for Inactive)
REMARK    1  A    between atoms: S_10  and  C_4 
REMARK    2  A    between atoms: C_19  and  C_9 
REMARK    3  A    between atoms: C_13  and  S_10 
REMARK    4  A    between atoms: C_11  and  C_13 
REMARK       I    between atoms: N_14  and  C_11 
REMARK    5  A    between atoms: C_16  and  N_14 
REMARK    6  A    between atoms: C_20  and  C_16 
REMARK    7  A    between atoms: C_18  and  C_20 
ROOT
ATOM      1  C   UNL d   1       1.594  -1.814   0.000  0.00  0.00     0.141 A 
ATOM      2  C   UNL d   1       1.259  -1.061   0.000  0.00  0.00     0.110 A 
ATOM      3  O   UNL d   1       2.416  -1.728   0.000  0.00  0.00    -0.303 OA
ATOM      4  C   UNL d   1       1.110  -2.482   0.000  0.00  0.00     0.137 A 
ATOM      5  N   UNL d   1       0.289  -2.396   0.000  0.00  0.00    -0.218 NA
ATOM      6  C   UNL d   1       1.872  -0.509   0.000  0.00  0.00     0.043 A 
ATOM      7  N   UNL d   1       0.438  -0.975   0.000  0.00  0.00    -0.225 NA
ATOM      8  C   UNL d   1       2.587  -0.921   0.000  0.00  0.00     0.102 A 
ATOM      9  C   UNL d   1      -0.046  -1.643   0.000  0.00  0.00     0.163 A 
ATOM     10  C   UNL d   1       1.872   0.317   0.000  0.00  0.00     0.004 A 
ATOM     11  C   UNL d   1       3.301  -0.509   0.000  0.00  0.00     0.025 A 
ATOM     12  C   UNL d   1       2.587   0.729   0.000  0.00  0.00     0.000 A 
ATOM     13  C   UNL d   1       3.301   0.317   0.000  0.00  0.00     0.002 A 
ENDROOT
BRANCH   4  14
ATOM     14  S   UNL d   1       1.446  -3.236   0.000  0.00  0.00    -0.060 SA
BRANCH  14  15
ATOM     15  C   UNL d   1       2.266  -3.321   0.000  0.00  0.00     0.099 C 
BRANCH  15  16
ATOM     16  C   UNL d   1       2.601  -4.076   0.000  0.00  0.00     0.286 C 
ATOM     17  O   UNL d   1       3.423  -4.162   0.000  0.00  0.00    -0.265 OA
ATOM     18  N   UNL d   1       2.116  -4.743   0.000  0.00  0.00    -0.206 NA
BRANCH  18  19
ATOM     19  C   UNL d   1       2.451  -5.496   0.000  0.00  0.00     0.102 C 
BRANCH  19  20
ATOM     20  C   UNL d   1       1.967  -6.164   0.000  0.00  0.00     0.021 C 
BRANCH  20  21
ATOM     21  C   UNL d   1       2.302  -6.918   0.000  0.00  0.00     0.002 A 
ATOM     22  C   UNL d   1       3.124  -7.005   0.000  0.00  0.00     0.000 A 
ATOM     23  C   UNL d   1       3.459  -7.758   0.000  0.00  0.00     0.000 A 
ATOM     24  C   UNL d   1       2.974  -8.425   0.000  0.00  0.00     0.000 A 
ATOM     25  C   UNL d   1       2.154  -8.340   0.000  0.00  0.00     0.000 A 
ATOM     26  C   UNL d   1       1.818  -7.585   0.000  0.00  0.00     0.000 A 
ENDBRANCH  20  21
ENDBRANCH  19  20
ENDBRANCH  18  19
ENDBRANCH  15  16
ENDBRANCH  14  15
ENDBRANCH   4  14
BRANCH   9  27
ATOM     27  C   UNL d   1      -0.867  -1.556   0.000  0.00  0.00     0.039 C 
ATOM     28  C   UNL d   1      -1.202  -0.802   0.000  0.00  0.00     0.003 C 
ENDBRANCH   9  27
TORSDOF 7
