REMARK  3 active torsions:
REMARK  status: ('A' for Active; 'I' for Inactive)
REMARK    1  A    between atoms: N_9  and  C_2 
REMARK    2  A    between atoms: C_15  and  C_7 
REMARK    3  A    between atoms: C_11  and  C_14 
ROOT
ATOM      1  C   UNL d   1       2.587  -1.748   0.000  0.00  0.00     0.152 A 
ATOM      2  C   UNL d   1       3.302  -2.171   0.000  0.00  0.00     0.174 A 
ATOM      3  C   UNL d   1       2.595  -0.917   0.000  0.00  0.00     0.111 A 
ATOM      4  N   UNL d   1       4.026  -1.752   0.000  0.00  0.00    -0.207 NA
ATOM      5  N   UNL d   1       3.307  -0.505   0.000  0.00  0.00    -0.225 NA
ATOM      6  O   UNL d   1       1.867  -2.163   0.000  0.00  0.00    -0.302 OA
ATOM      7  C   UNL d   1       4.026  -0.917   0.000  0.00  0.00     0.164 A 
ATOM      8  C   UNL d   1       1.156  -0.917   0.000  0.00  0.00     0.043 A 
ATOM      9  C   UNL d   1       1.148  -1.748   0.000  0.00  0.00     0.102 A 
ATOM     10  C   UNL d   1       0.441  -0.505   0.000  0.00  0.00     0.004 A 
ATOM     11  C   UNL d   1       0.441  -2.159   0.000  0.00  0.00     0.025 A 
ATOM     12  C   UNL d   1      -0.270  -0.917   0.000  0.00  0.00     0.000 A 
ATOM     13  C   UNL d   1      -0.270  -1.748   0.000  0.00  0.00     0.002 A 
ENDROOT
BRANCH   2  14
ATOM     14  N   UNL d   1       3.302  -2.994   0.000  0.00  0.00    -0.287 N 
ATOM     15  C   UNL d   1       4.013  -3.397   0.000  0.00  0.00     0.082 A 
ATOM     16  C   UNL d   1       4.009  -4.219   0.000  0.00  0.00     0.025 A 
ATOM     17  C   UNL d   1       3.294  -4.630   0.000  0.00  0.00     0.067 A 
ATOM     18  C   UNL d   1       2.587  -4.219   0.000  0.00  0.00     0.025 A 
ATOM     19  C   UNL d   1       2.587  -3.397   0.000  0.00  0.00     0.082 A 
BRANCH  17  20
ATOM     20  C   UNL d   1       3.294  -5.478   0.000  0.00  0.00     0.211 C 
ATOM     21  O   UNL d   1       4.026  -5.902   0.000  0.00  0.00    -0.644 OA
ATOM     22  O   UNL d   1       2.561  -5.898   0.000  0.00  0.00    -0.644 OA
ENDBRANCH  17  20
ENDBRANCH   2  14
BRANCH   7  23
ATOM     23  C   UNL d   1       4.733  -0.505   0.000  0.00  0.00     0.036 A 
ATOM     24  C   UNL d   1       4.733   0.308   0.000  0.00  0.00     0.003 A 
ATOM     25  C   UNL d   1       5.448   0.728   0.000  0.00  0.00     0.000 A 
ATOM     26  C   UNL d   1       6.159   0.317   0.000  0.00  0.00     0.000 A 
ATOM     27  C   UNL d   1       6.159  -0.514   0.000  0.00  0.00     0.000 A 
ATOM     28  C   UNL d   1       5.452  -0.917   0.000  0.00  0.00     0.003 A 
ENDBRANCH   7  23
TORSDOF 3
