REMARK  2 active torsions:
REMARK  status: ('A' for Active; 'I' for Inactive)
REMARK    1  A    between atoms: N_9  and  C_2 
REMARK    2  A    between atoms: C_4  and  N_10 
ROOT
ATOM      1  C   UNL d   1       1.369  -1.895   0.000  0.00  0.00     0.152 A 
ATOM      2  C   UNL d   1       0.883  -2.562   0.000  0.00  0.00     0.174 A 
ATOM      3  C   UNL d   1       1.034  -1.141   0.000  0.00  0.00     0.111 A 
ATOM      4  O   UNL d   1       2.189  -1.809   0.000  0.00  0.00    -0.302 OA
ATOM      5  N   UNL d   1       0.063  -2.476   0.000  0.00  0.00    -0.207 NA
ATOM      6  C   UNL d   1       1.645  -0.589   0.000  0.00  0.00     0.043 A 
ATOM      7  N   UNL d   1       0.214  -1.055   0.000  0.00  0.00    -0.225 NA
ATOM      8  C   UNL d   1       2.361  -1.002   0.000  0.00  0.00     0.102 A 
ATOM      9  C   UNL d   1      -0.271  -1.723   0.000  0.00  0.00     0.164 A 
ATOM     10  C   UNL d   1       1.645   0.235   0.000  0.00  0.00     0.004 A 
ATOM     11  C   UNL d   1       3.076  -0.589   0.000  0.00  0.00     0.025 A 
ATOM     12  C   UNL d   1      -1.091  -1.637   0.000  0.00  0.00     0.042 C 
ATOM     13  C   UNL d   1       2.361   0.648   0.000  0.00  0.00     0.000 A 
ATOM     14  C   UNL d   1       3.076   0.235   0.000  0.00  0.00     0.002 A 
ENDROOT
BRANCH   2  15
ATOM     15  N   UNL d   1       1.220  -3.316   0.000  0.00  0.00    -0.285 N 
ATOM     16  C   UNL d   1       0.734  -3.983   0.000  0.00  0.00     0.101 A 
ATOM     17  C   UNL d   1       1.070  -4.737   0.000  0.00  0.00     0.117 A 
ATOM     18  N   UNL d   1       1.891  -4.823   0.000  0.00  0.00    -0.135 N 
ATOM     19  C   UNL d   1       2.375  -4.156   0.000  0.00  0.00     0.117 A 
ATOM     20  C   UNL d   1       2.040  -3.402   0.000  0.00  0.00     0.101 A 
BRANCH  18  21
ATOM     21  C   UNL d   1       2.226  -5.577   0.000  0.00  0.00     0.735 A 
ATOM     22  N   UNL d   1       3.046  -5.664   0.000  0.00  0.00    -0.060 NA
ATOM     23  C   UNL d   1       3.382  -6.416   0.000  0.00  0.00     0.101 A 
ATOM     24  C   UNL d   1       4.203  -6.503   0.000  0.00  0.00     0.021 C 
ATOM     25  C   UNL d   1       2.897  -7.085   0.000  0.00  0.00     0.040 A 
ATOM     26  C   UNL d   1       2.077  -6.998   0.000  0.00  0.00     0.101 A 
ATOM     27  N   UNL d   1       1.741  -6.244   0.000  0.00  0.00    -0.060 NA
ATOM     28  C   UNL d   1       1.592  -7.665   0.000  0.00  0.00     0.021 C 
ENDBRANCH  18  21
ENDBRANCH   2  15
TORSDOF 2
