REMARK  5 active torsions:
REMARK  status: ('A' for Active; 'I' for Inactive)
REMARK    1  A    between atoms: C_4  and  C_1 
REMARK    2  A    between atoms: C_5  and  C_2 
REMARK    3  A    between atoms: N_6  and  C_4 
REMARK    4  A    between atoms: C_25  and  N_10 
REMARK    5  A    between atoms: C_21  and  C_25 
ROOT
ATOM      1  N   UNL d   1       9.713  -6.701   0.000  0.00  0.00    -0.191 NA
ATOM      2  C   UNL d   1       9.097  -7.250   0.000  0.00  0.00     0.103 C 
ATOM      3  C   UNL d   1       8.485  -7.800   0.000  0.00  0.00     0.097 C 
ENDROOT
BRANCH   3   4
ATOM      4  C   UNL d   1       7.706  -7.543   0.000  0.00  0.00     0.091 C 
BRANCH   4   5
ATOM      5  N   UNL d   1       7.087  -8.092   0.000  0.00  0.00    -0.299 N 
ATOM      6  C   UNL d   1       7.258  -8.898   0.000  0.00  0.00     0.100 A 
ATOM      7  C   UNL d   1       6.643  -9.448   0.000  0.00  0.00     0.100 A 
ATOM      8  N   UNL d   1       5.859  -9.191   0.000  0.00  0.00    -0.291 N 
ATOM      9  C   UNL d   1       5.684  -8.384   0.000  0.00  0.00     0.100 A 
ATOM     10  C   UNL d   1       6.304  -7.835   0.000  0.00  0.00     0.100 A 
BRANCH   8  11
ATOM     11  C   UNL d   1       5.252  -9.740   0.000  0.00  0.00     0.143 C 
ATOM     12  S   UNL d   1       5.423 -10.546   0.000  0.00  0.00    -0.057 SA
BRANCH  11  13
ATOM     13  C   UNL d   1       4.465  -9.490   0.000  0.00  0.00     0.126 A 
ATOM     14  O   UNL d   1       3.799  -9.974   0.000  0.00  0.00    -0.305 OA
ATOM     15  C   UNL d   1       3.125  -9.494   0.000  0.00  0.00     0.101 A 
ATOM     16  C   UNL d   1       3.382  -8.707   0.000  0.00  0.00     0.027 A 
ATOM     17  C   UNL d   1       4.208  -8.707   0.000  0.00  0.00     0.029 A 
BRANCH  15  18
ATOM     18  C   UNL d   1       2.341  -9.748   0.000  0.00  0.00     0.034 A 
ATOM     19  C   UNL d   1       2.178 -10.554   0.000  0.00  0.00     0.060 A 
ATOM     20  C   UNL d   1       1.395 -10.815   0.000  0.00  0.00     0.012 A 
ATOM     21 CL   UNL d   1       2.797 -11.103   0.000  0.00  0.00    -0.082 Cl
ATOM     22  C   UNL d   1       0.775 -10.262   0.000  0.00  0.00     0.012 A 
ATOM     23  C   UNL d   1       0.951  -9.448   0.000  0.00  0.00     0.058 A 
ATOM     24  C   UNL d   1       1.734  -9.198   0.000  0.00  0.00     0.014 A 
ATOM     25 CL   UNL d   1       0.331  -8.898   0.000  0.00  0.00    -0.082 Cl
ENDBRANCH  15  18
ENDBRANCH  11  13
ENDBRANCH   8  11
ENDBRANCH   4   5
ENDBRANCH   3   4
TORSDOF 5
