REMARK  11 active torsions:
REMARK  status: ('A' for Active; 'I' for Inactive)
REMARK    1  A    between atoms: N_2  and  S_1 
REMARK    2  A    between atoms: C_4  and  S_1 
REMARK    3  A    between atoms: C_22  and  N_2 
REMARK    4  A    between atoms: C_3  and  C_8 
REMARK       I    between atoms: N_16  and  C_3 
REMARK    5  A    between atoms: O_28  and  C_7 
REMARK    6  A    between atoms: C_9  and  C_10 
REMARK    7  A    between atoms: O_29  and  C_11 
REMARK    8  A    between atoms: C_30  and  N_16 
REMARK    9  A    between atoms: C_24  and  C_22 
REMARK   10  A    between atoms: C_23  and  C_34 
REMARK   11  A    between atoms: C_34  and  C_30 
ROOT
ATOM      1  C   UNL d   1       0.951  -1.682   0.000  0.00  0.00     0.058 A 
ATOM      2  C   UNL d   1       0.735  -2.471   0.000  0.00  0.00     0.005 A 
ATOM      3  C   UNL d   1       1.761  -1.483   0.000  0.00  0.00     0.005 A 
ATOM      4  C   UNL d   1       2.110  -2.870   0.000  0.00  0.00     0.020 A 
ATOM      5  C   UNL d   1       1.308  -3.069   0.000  0.00  0.00     0.002 A 
ATOM      6  C   UNL d   1       2.334  -2.081   0.000  0.00  0.00     0.002 A 
ENDROOT
BRANCH   1   7
ATOM      7  C   UNL d   1       0.386  -1.088   0.000  0.00  0.00     0.279 C 
ATOM      8  O   UNL d   1      -0.419  -1.287   0.000  0.00  0.00    -0.265 OA
ATOM      9  N   UNL d   1       0.615  -0.299   0.000  0.00  0.00    -0.206 NA
BRANCH   9  10
ATOM     10  C   UNL d   1       0.042   0.295   0.000  0.00  0.00     0.102 C 
BRANCH  10  11
ATOM     11  C   UNL d   1      -0.748   0.087   0.000  0.00  0.00     0.021 C 
BRANCH  11  12
ATOM     12  C   UNL d   1      -1.316   0.669   0.000  0.00  0.00     0.004 A 
ATOM     13  C   UNL d   1      -1.105   1.466   0.000  0.00  0.00     0.026 A 
ATOM     14  C   UNL d   1      -1.682   2.043   0.000  0.00  0.00     0.116 A 
ATOM     15  C   UNL d   1      -2.487   1.827   0.000  0.00  0.00     0.116 A 
ATOM     16  C   UNL d   1      -2.699   1.042   0.000  0.00  0.00     0.026 A 
ATOM     17  C   UNL d   1      -2.114   0.457   0.000  0.00  0.00     0.002 A 
BRANCH  14  18
ATOM     18  O   UNL d   1      -1.466   2.841   0.000  0.00  0.00    -0.326 OA
ATOM     19  C   UNL d   1      -0.660   3.177   0.000  0.00  0.00     0.181 C 
ENDBRANCH  14  18
BRANCH  15  20
ATOM     20  O   UNL d   1      -3.073   2.388   0.000  0.00  0.00    -0.326 OA
ATOM     21  C   UNL d   1      -2.886   3.177   0.000  0.00  0.00     0.181 C 
ENDBRANCH  15  20
ENDBRANCH  11  12
ENDBRANCH  10  11
ENDBRANCH   9  10
ENDBRANCH   1   7
BRANCH   4  22
ATOM     22  C   UNL d   1       2.683  -3.468   0.000  0.00  0.00     0.112 C 
BRANCH  22  23
ATOM     23  N   UNL d   1       3.480  -3.277   0.000  0.00  0.00    -0.157 NA
BRANCH  23  24
ATOM     24  S   UNL d   1       4.061  -3.866   0.000  0.00  0.00     0.285 S 
ATOM     25  O   UNL d   1       4.647  -3.293   0.000  0.00  0.00    -0.198 OA
ATOM     26  O   UNL d   1       3.463  -4.439   0.000  0.00  0.00    -0.198 OA
BRANCH  24  27
ATOM     27  C   UNL d   1       4.626  -4.460   0.000  0.00  0.00     0.105 A 
ATOM     28  C   UNL d   1       5.424  -4.253   0.000  0.00  0.00     0.013 A 
ATOM     29  C   UNL d   1       6.005  -4.851   0.000  0.00  0.00    -0.004 A 
ATOM     30  C   UNL d   1       5.772  -5.648   0.000  0.00  0.00    -0.023 A 
ATOM     31  C   UNL d   1       4.975  -5.847   0.000  0.00  0.00    -0.004 A 
ATOM     32  C   UNL d   1       4.402  -5.249   0.000  0.00  0.00     0.013 A 
BRANCH  30  33
ATOM     33  C   UNL d   1       6.346  -6.242   0.000  0.00  0.00     0.019 C 
ATOM     34  C   UNL d   1       6.939  -5.669   0.000  0.00  0.00     0.004 C 
ATOM     35  C   UNL d   1       5.748  -6.807   0.000  0.00  0.00     0.004 C 
ATOM     36  C   UNL d   1       6.919  -6.832   0.000  0.00  0.00     0.004 C 
ENDBRANCH  30  33
ENDBRANCH  24  27
ENDBRANCH  23  24
ENDBRANCH  22  23
ENDBRANCH   4  22
TORSDOF 11
