REMARK  4 active torsions:
REMARK  status: ('A' for Active; 'I' for Inactive)
REMARK    1  A    between atoms: C_3  and  C_1 
REMARK    2  A    between atoms: C_2  and  C_3 
REMARK    3  A    between atoms: C_6  and  C_2 
REMARK    4  A    between atoms: C_16  and  C_6 
ROOT
ATOM      1  C   UNL d   1      -0.013  -2.098   0.000  0.00  0.00     0.119 A 
ATOM      2  C   UNL d   1      -0.013  -1.278   0.000  0.00  0.00     0.119 A 
ATOM      3  O   UNL d   1      -0.797  -2.353   0.000  0.00  0.00    -0.300 OA
ATOM      4  O   UNL d   1      -0.797  -1.023   0.000  0.00  0.00    -0.300 OA
ATOM      5  C   UNL d   1      -1.276  -1.681   0.000  0.00  0.00     0.304 A 
ATOM      6  C   UNL d   1       0.694  -2.507   0.000  0.00  0.00     0.026 A 
ATOM      7  C   UNL d   1       1.413  -2.095   0.000  0.00  0.00     0.002 A 
ATOM      8  C   UNL d   1       0.694  -0.869   0.000  0.00  0.00     0.026 A 
ATOM      9  C   UNL d   1       1.413  -1.283   0.000  0.00  0.00     0.002 A 
ENDROOT
BRANCH   7  10
ATOM     10  C   UNL d   1       2.138  -2.498   0.000  0.00  0.00     0.003 C 
BRANCH  10  11
ATOM     11  C   UNL d   1       2.848  -2.071   0.000  0.00  0.00     0.044 C 
BRANCH  11  12
ATOM     12  C   UNL d   1       3.573  -2.474   0.000  0.00  0.00     0.213 C 
ATOM     13  O   UNL d   1       4.274  -2.055   0.000  0.00  0.00    -0.285 OA
BRANCH  12  14
ATOM     14  C   UNL d   1       3.589  -3.304   0.000  0.00  0.00     0.120 A 
ATOM     15  N   UNL d   1       4.305  -3.703   0.000  0.00  0.00    -0.241 NA
ATOM     16  C   UNL d   1       4.146  -4.516   0.000  0.00  0.00     0.099 A 
ATOM     17  C   UNL d   1       3.327  -4.607   0.000  0.00  0.00     0.022 A 
ATOM     18  C   UNL d   1       2.984  -3.871   0.000  0.00  0.00     0.024 A 
ENDBRANCH  12  14
ENDBRANCH  11  12
ENDBRANCH  10  11
ENDBRANCH   7  10
TORSDOF 4
