REMARK  5 active torsions:
REMARK  status: ('A' for Active; 'I' for Inactive)
REMARK    1  A    between atoms: C_7  and  N_1 
REMARK    2  A    between atoms: C_12  and  C_3 
REMARK    3  A    between atoms: C_8  and  S_15 
REMARK    4  A    between atoms: C_16  and  C_12 
REMARK    5  A    between atoms: S_15  and  C_16 
ROOT
ATOM      1  N   UNL d   1      -1.875   2.859   0.000  0.00  0.00    -0.304 N 
ATOM      2  C   UNL d   1      -1.160   3.267   0.000  0.00  0.00     0.067 A 
ATOM      3  C   UNL d   1      -0.548   2.712   0.000  0.00  0.00     0.057 A 
ATOM      4  C   UNL d   1      -1.712   2.059   0.000  0.00  0.00     0.064 A 
ATOM      5  C   UNL d   1      -0.895   1.957   0.000  0.00  0.00     0.022 A 
ATOM      6  C   UNL d   1      -1.079   4.087   0.000  0.00  0.00     0.019 C 
ATOM      7  C   UNL d   1      -1.879   1.252   0.000  0.00  0.00     0.019 C 
ENDROOT
BRANCH   3   8
ATOM      8  C   UNL d   1       0.245   2.450   0.000  0.00  0.00     0.204 C 
ATOM      9  O   UNL d   1       0.412   1.633   0.000  0.00  0.00    -0.286 OA
BRANCH   8  10
ATOM     10  C   UNL d   1       1.052   2.624   0.000  0.00  0.00     0.080 C 
BRANCH  10  11
ATOM     11  S   UNL d   1       1.606   2.008   0.000  0.00  0.00    -0.043 SA
BRANCH  11  12
ATOM     12  C   UNL d   1       2.413   2.175   0.000  0.00  0.00     0.233 A 
ATOM     13  N   UNL d   1       2.750   2.927   0.000  0.00  0.00    -0.029 NA
ATOM     14  C   UNL d   1       3.567   2.835   0.000  0.00  0.00     0.788 A 
ATOM     15  N   UNL d   1       4.125   3.444   0.000  0.00  0.00     0.064 N 
ATOM     16  N   UNL d   1       3.730   2.028   0.000  0.00  0.00     0.050 NA
ATOM     17  N   UNL d   1       3.012   1.610   0.000  0.00  0.00    -0.105 NA
ENDBRANCH  11  12
ENDBRANCH  10  11
ENDBRANCH   8  10
ENDBRANCH   3   8
BRANCH   1  18
ATOM     18  C   UNL d   1      -2.631   3.202   0.000  0.00  0.00     0.094 A 
ATOM     19  C   UNL d   1      -2.695   3.992   0.000  0.00  0.00     0.050 A 
ATOM     20  C   UNL d   1      -3.458   4.332   0.000  0.00  0.00     0.142 A 
ATOM     21  F   UNL d   1      -3.539   5.159   0.000  0.00  0.00    -0.204 F 
ATOM     22  C   UNL d   1      -4.125   3.852   0.000  0.00  0.00     0.032 A 
ATOM     23  C   UNL d   1      -4.050   3.039   0.000  0.00  0.00     0.034 A 
ATOM     24  C   UNL d   1      -3.294   2.705   0.000  0.00  0.00     0.156 A 
ATOM     25  F   UNL d   1      -3.631   1.936   0.000  0.00  0.00    -0.203 F 
ENDBRANCH   1  18
TORSDOF 5
