REMARK  5 active torsions:
REMARK  status: ('A' for Active; 'I' for Inactive)
REMARK    1  A    between atoms: C_22  and  N_10 
REMARK    2  A    between atoms: C_19  and  N_13 
REMARK    3  A    between atoms: N_14  and  C_26 
REMARK    4  A    between atoms: C_25  and  C_22 
REMARK    5  A    between atoms: C_26  and  C_25 
ROOT
ATOM      1  C   UNL d   1       2.766  -0.860   0.000  0.00  0.00     0.173 A 
ATOM      2  C   UNL d   1       2.777  -1.662   0.000  0.00  0.00     0.191 A 
ATOM      3  C   UNL d   1       4.198  -1.662   0.000  0.00  0.00     0.722 A 
ATOM      4  N   UNL d   1       4.198  -0.837   0.000  0.00  0.00    -0.131 N 
ATOM      5  N   UNL d   1       3.488  -2.074   0.000  0.00  0.00    -0.042 NA
ATOM      6  N   UNL d   1       2.078  -2.086   0.000  0.00  0.00    -0.240 N 
ATOM      7  N   UNL d   1       1.367  -0.814   0.000  0.00  0.00    -0.223 N 
ATOM      8  C   UNL d   1       1.367  -1.662   0.000  0.00  0.00     0.343 A 
ATOM      9  C   UNL d   1       2.078  -0.412   0.000  0.00  0.00     0.288 A 
ATOM     10  N   UNL d   1       4.916  -2.074   0.000  0.00  0.00    -0.139 N 
ATOM     11  C   UNL d   1       5.630  -0.837   0.000  0.00  0.00     0.116 A 
ATOM     12  C   UNL d   1       5.630  -1.662   0.000  0.00  0.00     0.100 A 
ATOM     13  O   UNL d   1       0.646  -2.120   0.000  0.00  0.00    -0.245 OA
ATOM     14  O   UNL d   1       2.078   0.412   0.000  0.00  0.00    -0.265 OA
ATOM     15  C   UNL d   1       2.078  -2.911   0.000  0.00  0.00     0.105 C 
ATOM     16  C   UNL d   1       0.665  -0.401   0.000  0.00  0.00     0.107 C 
ATOM     17  C   UNL d   1       6.337  -2.097   0.000  0.00  0.00     0.021 C 
ENDROOT
BRANCH  10  18
ATOM     18  C   UNL d   1       4.920  -2.899   0.000  0.00  0.00     0.100 C 
BRANCH  18  19
ATOM     19  C   UNL d   1       5.638  -3.316   0.000  0.00  0.00     0.039 C 
BRANCH  19  20
ATOM     20  C   UNL d   1       5.638  -4.129   0.000  0.00  0.00     0.082 C 
BRANCH  20  21
ATOM     21  N   UNL d   1       6.349  -4.542   0.000  0.00  0.00    -0.300 N 
ATOM     22  C   UNL d   1       6.341  -5.367   0.000  0.00  0.00     0.100 A 
ATOM     23  C   UNL d   1       7.051  -5.776   0.000  0.00  0.00     0.100 A 
ATOM     24  N   UNL d   1       7.762  -5.367   0.000  0.00  0.00    -0.301 N 
ATOM     25  C   UNL d   1       7.762  -4.549   0.000  0.00  0.00     0.100 A 
ATOM     26  C   UNL d   1       7.051  -4.129   0.000  0.00  0.00     0.100 A 
BRANCH  24  27
ATOM     27  C   UNL d   1       8.473  -5.779   0.000  0.00  0.00     0.064 A 
ATOM     28  C   UNL d   1       9.183  -5.375   0.000  0.00  0.00     0.018 A 
ATOM     29  C   UNL d   1       9.893  -5.779   0.000  0.00  0.00     0.002 A 
ATOM     30  C   UNL d   1       9.890  -6.605   0.000  0.00  0.00     0.000 A 
ATOM     31  C   UNL d   1       9.171  -7.017   0.000  0.00  0.00     0.002 A 
ATOM     32  C   UNL d   1       8.469  -6.605   0.000  0.00  0.00     0.018 A 
ENDBRANCH  24  27
ENDBRANCH  20  21
ENDBRANCH  19  20
ENDBRANCH  18  19
ENDBRANCH  10  18
TORSDOF 5
