REMARK  5 active torsions:
REMARK  status: ('A' for Active; 'I' for Inactive)
REMARK    1  A    between atoms: C_11  and  N_2 
REMARK    2  A    between atoms: C_5  and  C_3 
REMARK    3  A    between atoms: C_7  and  C_5 
REMARK    4  A    between atoms: C_8  and  C_7 
REMARK    5  A    between atoms: C_10  and  C_8 
ROOT
ATOM      1  C   UNL d   1       3.030  -2.093   0.000  0.00  0.00     0.006 C 
ENDROOT
BRANCH   1   2
ATOM      2  C   UNL d   1       3.743  -2.504   0.000  0.00  0.00     0.039 A 
ATOM      3  C   UNL d   1       4.527  -2.255   0.000  0.00  0.00     0.122 A 
ATOM      4  N   UNL d   1       5.006  -2.922   0.000  0.00  0.00    -0.164 NA
ATOM      5  N   UNL d   1       4.525  -3.583   0.000  0.00  0.00    -0.228 N 
ATOM      6  C   UNL d   1       3.738  -3.327   0.000  0.00  0.00     0.085 A 
ATOM      7  C   UNL d   1       3.068  -3.819   0.000  0.00  0.00     0.021 C 
BRANCH   5   8
ATOM      8  C   UNL d   1       4.784  -4.365   0.000  0.00  0.00     0.101 C 
ATOM      9  C   UNL d   1       5.593  -4.534   0.000  0.00  0.00     0.022 C 
ENDBRANCH   5   8
ENDBRANCH   1   2
BRANCH   1  10
ATOM     10  C   UNL d   1       3.030  -1.268   0.000  0.00  0.00     0.042 C 
BRANCH  10  11
ATOM     11  C   UNL d   1       2.313  -0.850   0.000  0.00  0.00     0.196 C 
ATOM     12  O   UNL d   1       2.315  -0.027   0.000  0.00  0.00    -0.287 OA
BRANCH  11  13
ATOM     13  C   UNL d   1       1.591  -1.263   0.000  0.00  0.00     0.039 A 
ATOM     14  C   UNL d   1       1.591  -2.091   0.000  0.00  0.00     0.003 A 
ATOM     15  C   UNL d   1       0.879  -2.504   0.000  0.00  0.00     0.000 A 
ATOM     16  C   UNL d   1       0.162  -2.093   0.000  0.00  0.00     0.000 A 
ATOM     17  C   UNL d   1       0.164  -1.268   0.000  0.00  0.00     0.000 A 
ATOM     18  C   UNL d   1       0.877  -0.857   0.000  0.00  0.00     0.003 A 
ENDBRANCH  11  13
ENDBRANCH  10  11
ENDBRANCH   1  10
TORSDOF 5
