REMARK  5 active torsions:
REMARK  status: ('A' for Active; 'I' for Inactive)
REMARK    1  A    between atoms: C_11  and  C_1 
REMARK    2  A    between atoms: C_12  and  N_3 
REMARK    3  A    between atoms: C_7  and  S_13 
REMARK    4  A    between atoms: C_14  and  C_11 
REMARK    5  A    between atoms: S_13  and  C_14 
ROOT
ATOM      1  C   UNL d   1      -0.170   2.708   0.000  0.00  0.00     0.057 A 
ATOM      2  C   UNL d   1      -0.781   3.261   0.000  0.00  0.00     0.067 A 
ATOM      3  N   UNL d   1      -1.488   2.854   0.000  0.00  0.00    -0.306 N 
ATOM      4  C   UNL d   1      -1.325   2.055   0.000  0.00  0.00     0.064 A 
ATOM      5  C   UNL d   1      -0.510   1.953   0.000  0.00  0.00     0.022 A 
ATOM      6  C   UNL d   1      -0.700   4.080   0.000  0.00  0.00     0.019 C 
ATOM      7  C   UNL d   1      -1.505   1.250   0.000  0.00  0.00     0.019 C 
ENDROOT
BRANCH   1   8
ATOM      8  C   UNL d   1       0.622   2.446   0.000  0.00  0.00     0.204 C 
ATOM      9  O   UNL d   1       0.795   1.631   0.000  0.00  0.00    -0.286 OA
BRANCH   8  10
ATOM     10  C   UNL d   1       1.430   2.619   0.000  0.00  0.00     0.080 C 
BRANCH  10  11
ATOM     11  S   UNL d   1       1.981   2.004   0.000  0.00  0.00    -0.043 SA
BRANCH  11  12
ATOM     12  C   UNL d   1       2.792   2.171   0.000  0.00  0.00     0.233 A 
ATOM     13  N   UNL d   1       3.122   2.921   0.000  0.00  0.00    -0.029 NA
ATOM     14  C   UNL d   1       3.937   2.830   0.000  0.00  0.00     0.788 A 
ATOM     15  N   UNL d   1       4.494   3.438   0.000  0.00  0.00     0.064 N 
ATOM     16  N   UNL d   1       4.100   2.025   0.000  0.00  0.00     0.050 NA
ATOM     17  N   UNL d   1       3.387   1.607   0.000  0.00  0.00    -0.105 NA
ENDBRANCH  11  12
ENDBRANCH  10  11
ENDBRANCH   8  10
ENDBRANCH   1   8
BRANCH   3  18
ATOM     18  C   UNL d   1      -2.249   3.197   0.000  0.00  0.00     0.064 A 
ATOM     19  C   UNL d   1      -2.313   3.985   0.000  0.00  0.00     0.020 A 
ATOM     20  C   UNL d   1      -3.074   4.325   0.000  0.00  0.00     0.031 A 
ATOM     21  C   UNL d   1      -3.747   3.846   0.000  0.00  0.00     0.140 A 
ATOM     22  C   UNL d   1      -3.659   3.034   0.000  0.00  0.00     0.031 A 
ATOM     23  F   UNL d   1      -4.501   4.182   0.000  0.00  0.00    -0.204 F 
ATOM     24  C   UNL d   1      -2.911   2.701   0.000  0.00  0.00     0.020 A 
ENDBRANCH   3  18
TORSDOF 5
