REMARK  5 active torsions:
REMARK  status: ('A' for Active; 'I' for Inactive)
REMARK    1  A    between atoms: C_23  and  N_10 
REMARK    2  A    between atoms: C_14  and  N_13 
REMARK    3  A    between atoms: N_15  and  C_28 
REMARK    4  A    between atoms: C_27  and  C_23 
REMARK    5  A    between atoms: C_28  and  C_27 
ROOT
ATOM      1  C   UNL d   1       2.363  -0.863   0.000  0.00  0.00     0.173 A 
ATOM      2  C   UNL d   1       2.374  -1.669   0.000  0.00  0.00     0.191 A 
ATOM      3  C   UNL d   1       3.801  -1.669   0.000  0.00  0.00     0.722 A 
ATOM      4  N   UNL d   1       3.801  -0.840   0.000  0.00  0.00    -0.131 N 
ATOM      5  N   UNL d   1       3.088  -2.083   0.000  0.00  0.00    -0.042 NA
ATOM      6  N   UNL d   1       1.672  -2.094   0.000  0.00  0.00    -0.240 N 
ATOM      7  N   UNL d   1       0.959  -0.817   0.000  0.00  0.00    -0.223 N 
ATOM      8  C   UNL d   1       0.959  -1.669   0.000  0.00  0.00     0.343 A 
ATOM      9  C   UNL d   1       1.672  -0.414   0.000  0.00  0.00     0.288 A 
ATOM     10  N   UNL d   1       4.515  -2.083   0.000  0.00  0.00    -0.139 N 
ATOM     11  C   UNL d   1       5.240  -0.840   0.000  0.00  0.00     0.116 A 
ATOM     12  C   UNL d   1       5.240  -1.669   0.000  0.00  0.00     0.100 A 
ATOM     13  O   UNL d   1       0.234  -2.129   0.000  0.00  0.00    -0.245 OA
ATOM     14  O   UNL d   1       1.672   0.414   0.000  0.00  0.00    -0.265 OA
ATOM     15  C   UNL d   1       1.672  -2.923   0.000  0.00  0.00     0.105 C 
ATOM     16  C   UNL d   1       0.245  -0.403   0.000  0.00  0.00     0.107 C 
ATOM     17  C   UNL d   1       5.942  -2.106   0.000  0.00  0.00     0.021 C 
ENDROOT
BRANCH  10  18
ATOM     18  C   UNL d   1       4.522  -2.911   0.000  0.00  0.00     0.100 C 
BRANCH  18  19
ATOM     19  C   UNL d   1       5.240  -3.329   0.000  0.00  0.00     0.039 C 
BRANCH  19  20
ATOM     20  C   UNL d   1       5.240  -4.146   0.000  0.00  0.00     0.082 C 
BRANCH  20  21
ATOM     21  N   UNL d   1       5.953  -4.561   0.000  0.00  0.00    -0.300 N 
ATOM     22  C   UNL d   1       6.667  -4.146   0.000  0.00  0.00     0.100 A 
ATOM     23  C   UNL d   1       7.380  -4.568   0.000  0.00  0.00     0.100 A 
ATOM     24  N   UNL d   1       7.380  -5.389   0.000  0.00  0.00    -0.301 N 
ATOM     25  C   UNL d   1       6.663  -5.800   0.000  0.00  0.00     0.100 A 
ATOM     26  C   UNL d   1       5.953  -5.389   0.000  0.00  0.00     0.100 A 
BRANCH  24  27
ATOM     27  C   UNL d   1       8.094  -5.803   0.000  0.00  0.00     0.065 A 
ATOM     28  C   UNL d   1       8.803  -5.397   0.000  0.00  0.00     0.029 A 
ATOM     29  C   UNL d   1       9.509  -5.803   0.000  0.00  0.00     0.059 A 
ATOM     30 CL   UNL d   1      10.234  -5.389   0.000  0.00  0.00    -0.082 Cl
ATOM     31  C   UNL d   1       9.509  -6.632   0.000  0.00  0.00     0.011 A 
ATOM     32  C   UNL d   1       8.795  -7.046   0.000  0.00  0.00     0.002 A 
ATOM     33  C   UNL d   1       8.082  -6.632   0.000  0.00  0.00     0.018 A 
ENDBRANCH  24  27
ENDBRANCH  20  21
ENDBRANCH  19  20
ENDBRANCH  18  19
ENDBRANCH  10  18
TORSDOF 5
