REMARK  4 active torsions:
REMARK  status: ('A' for Active; 'I' for Inactive)
REMARK    1  A    between atoms: C_6  and  C_2 
REMARK    2  A    between atoms: C_8  and  C_6 
REMARK    3  A    between atoms: C_7  and  C_9 
REMARK    4  A    between atoms: C_9  and  C_8 
ROOT
ATOM      1  C   UNL d   1       3.560  -2.207   0.000  0.00  0.00     0.006 C 
ENDROOT
BRANCH   1   2
ATOM      2  C   UNL d   1       4.269  -2.620   0.000  0.00  0.00     0.039 A 
ATOM      3  C   UNL d   1       5.054  -2.369   0.000  0.00  0.00     0.103 A 
ATOM      4  N   UNL d   1       5.534  -3.037   0.000  0.00  0.00    -0.165 NA
ATOM      5  C   UNL d   1       5.265  -1.570   0.000  0.00  0.00     0.022 C 
ATOM      6  N   UNL d   1       5.050  -3.695   0.000  0.00  0.00    -0.225 N 
ATOM      7  C   UNL d   1       4.269  -3.441   0.000  0.00  0.00     0.102 A 
ATOM      8  C   UNL d   1       5.312  -4.478   0.000  0.00  0.00     0.121 C 
ENDBRANCH   1   2
BRANCH   1   9
ATOM      9  C   UNL d   1       3.562  -1.382   0.000  0.00  0.00     0.043 C 
BRANCH   9  10
ATOM     10  C   UNL d   1       2.842  -0.965   0.000  0.00  0.00     0.202 C 
ATOM     11  O   UNL d   1       2.847  -0.144   0.000  0.00  0.00    -0.286 OA
BRANCH  10  12
ATOM     12  C   UNL d   1       2.122  -1.382   0.000  0.00  0.00     0.068 A 
ATOM     13  S   UNL d   1       1.750  -2.115   0.000  0.00  0.00    -0.083 SA
ATOM     14  C   UNL d   1       0.935  -1.988   0.000  0.00  0.00     0.035 A 
ATOM     15  C   UNL d   1       0.803  -1.173   0.000  0.00  0.00     0.008 A 
ATOM     16  C   UNL d   1       1.541  -0.796   0.000  0.00  0.00     0.010 A 
ENDBRANCH  10  12
ENDBRANCH   9  10
ENDBRANCH   1   9
TORSDOF 4
