REMARK  7 active torsions:
REMARK  status: ('A' for Active; 'I' for Inactive)
REMARK    1  A    between atoms: C_11  and  C_1 
REMARK    2  A    between atoms: C_15  and  N_3 
REMARK    3  A    between atoms: C_7  and  S_12 
REMARK    4  A    between atoms: C_13  and  C_11 
REMARK    5  A    between atoms: S_12  and  C_13 
REMARK    6  A    between atoms: C_20  and  C_15 
REMARK    7  A    between atoms: O_19  and  C_20 
ROOT
ATOM      1  C   UNL d   1       2.903   0.261   0.000  0.00  0.00     0.057 A 
ATOM      2  C   UNL d   1       3.202  -0.498   0.000  0.00  0.00     0.067 A 
ATOM      3  N   UNL d   1       2.555  -1.000   0.000  0.00  0.00    -0.303 N 
ATOM      4  C   UNL d   1       2.095   0.220   0.000  0.00  0.00     0.022 A 
ATOM      5  C   UNL d   1       1.891  -0.552   0.000  0.00  0.00     0.064 A 
ATOM      6  C   UNL d   1       3.998  -0.713   0.000  0.00  0.00     0.019 C 
ATOM      7  C   UNL d   1       1.099  -0.846   0.000  0.00  0.00     0.019 C 
ENDROOT
BRANCH   1   8
ATOM      8  C   UNL d   1       3.364   0.958   0.000  0.00  0.00     0.203 C 
ATOM      9  O   UNL d   1       2.986   1.688   0.000  0.00  0.00    -0.286 OA
BRANCH   8  10
ATOM     10  C   UNL d   1       4.185   0.916   0.000  0.00  0.00     0.079 C 
BRANCH  10  11
ATOM     11  S   UNL d   1       4.566   0.182   0.000  0.00  0.00    -0.056 SA
BRANCH  11  12
ATOM     12  C   UNL d   1       5.242  -0.303   0.000  0.00  0.00     0.164 A 
ATOM     13  S   UNL d   1       5.226  -1.132   0.000  0.00  0.00    -0.039 SA
ATOM     14  C   UNL d   1       6.022  -1.398   0.000  0.00  0.00     0.134 A 
ATOM     15  C   UNL d   1       6.271  -2.194   0.000  0.00  0.00     0.030 C 
ATOM     16  N   UNL d   1       6.520  -0.726   0.000  0.00  0.00    -0.140 NA
ATOM     17  N   UNL d   1       6.026  -0.050   0.000  0.00  0.00    -0.134 NA
ENDBRANCH  11  12
ENDBRANCH  10  11
ENDBRANCH   8  10
ENDBRANCH   1   8
BRANCH   3  18
ATOM     18  C   UNL d   1       2.555  -1.841   0.000  0.00  0.00     0.107 C 
BRANCH  18  19
ATOM     19  C   UNL d   1       3.285  -2.244   0.000  0.00  0.00     0.135 C 
BRANCH  19  20
ATOM     20  O   UNL d   1       3.986  -1.841   0.000  0.00  0.00    -0.325 OA
ATOM     21  C   UNL d   1       4.579  -2.190   0.000  0.00  0.00     0.182 C 
ENDBRANCH  19  20
ENDBRANCH  18  19
ENDBRANCH   3  18
TORSDOF 7
