REMARK  4 active torsions:
REMARK  status: ('A' for Active; 'I' for Inactive)
REMARK    1  A    between atoms: C_5  and  C_3 
REMARK    2  A    between atoms: C_8  and  C_5 
REMARK    3  A    between atoms: C_7  and  C_9 
REMARK    4  A    between atoms: C_9  and  C_8 
ROOT
ATOM      1  C   UNL d   1       3.974  -2.269   0.000  0.00  0.00     0.042 C 
ENDROOT
BRANCH   1   2
ATOM      2  C   UNL d   1       3.265  -1.853   0.000  0.00  0.00     0.006 C 
BRANCH   2   3
ATOM      3  C   UNL d   1       2.543  -2.269   0.000  0.00  0.00     0.039 A 
ATOM      4  C   UNL d   1       1.749  -2.011   0.000  0.00  0.00     0.122 A 
ATOM      5  N   UNL d   1       1.277  -2.674   0.000  0.00  0.00    -0.164 NA
ATOM      6  N   UNL d   1       1.749  -3.346   0.000  0.00  0.00    -0.227 N 
ATOM      7  C   UNL d   1       2.543  -3.090   0.000  0.00  0.00     0.085 A 
ATOM      8  C   UNL d   1       1.548  -4.146   0.000  0.00  0.00     0.121 C 
ATOM      9  C   UNL d   1       3.259  -3.500   0.000  0.00  0.00     0.021 C 
ENDBRANCH   2   3
ENDBRANCH   1   2
BRANCH   1  10
ATOM     10  C   UNL d   1       4.690  -1.851   0.000  0.00  0.00     0.199 C 
ATOM     11  O   UNL d   1       4.690  -1.016   0.000  0.00  0.00    -0.286 OA
BRANCH  10  12
ATOM     12  C   UNL d   1       5.415  -2.264   0.000  0.00  0.00     0.078 A 
ATOM     13  C   UNL d   1       6.128  -1.853   0.000  0.00  0.00     0.199 A 
ATOM     14  O   UNL d   1       6.122  -1.033   0.000  0.00  0.00    -0.286 OA
ATOM     15  C   UNL d   1       6.838  -2.272   0.000  0.00  0.00     0.042 A 
ATOM     16  C   UNL d   1       6.838  -3.102   0.000  0.00  0.00     0.003 A 
ATOM     17  C   UNL d   1       6.131  -3.503   0.000  0.00  0.00     0.000 A 
ATOM     18  C   UNL d   1       5.415  -3.093   0.000  0.00  0.00     0.006 A 
ENDBRANCH  10  12
ENDBRANCH   1  10
TORSDOF 4
