REMARK  3 active torsions:
REMARK  status: ('A' for Active; 'I' for Inactive)
REMARK    1  A    between atoms: C_2  and  C_1 
REMARK       I    between atoms: N_4  and  C_2 
REMARK    2  A    between atoms: C_6  and  N_4 
REMARK    3  A    between atoms: S_12  and  C_5 
ROOT
ATOM      1  C   UNL d   1       6.338  -5.412   0.000  0.00  0.00     0.298 C 
ATOM      2  N   UNL d   1       7.054  -5.825   0.000  0.00  0.00    -0.207 NA
ATOM      3  O   UNL d   1       6.329  -4.579   0.000  0.00  0.00    -0.264 OA
ENDROOT
BRANCH   1   4
ATOM      4  C   UNL d   1       5.625  -5.829   0.000  0.00  0.00     0.153 A 
ATOM      5  N   UNL d   1       5.625  -6.667   0.000  0.00  0.00    -0.216 NA
ATOM      6  C   UNL d   1       4.904  -7.079   0.000  0.00  0.00     0.190 A 
ATOM      7  N   UNL d   1       4.188  -6.667   0.000  0.00  0.00    -0.219 NA
ATOM      8  C   UNL d   1       4.188  -5.838   0.000  0.00  0.00     0.114 A 
ATOM      9  C   UNL d   1       4.904  -5.417   0.000  0.00  0.00     0.099 A 
ATOM     10 CL   UNL d   1       4.900  -4.588   0.000  0.00  0.00    -0.079 Cl
BRANCH   6  11
ATOM     11  S   UNL d   1       4.900  -7.904   0.000  0.00  0.00    -0.075 SA
ATOM     12  C   UNL d   1       4.175  -8.317   0.000  0.00  0.00     0.077 C 
ENDBRANCH   6  11
ENDBRANCH   1   4
BRANCH   2  13
ATOM     13  C   UNL d   1       7.767  -5.412   0.000  0.00  0.00     0.085 A 
ATOM     14  C   UNL d   1       8.479  -5.817   0.000  0.00  0.00     0.018 A 
ATOM     15  C   UNL d   1       9.192  -5.412   0.000  0.00  0.00     0.002 A 
ATOM     16  C   UNL d   1       8.479  -6.642   0.000  0.00  0.00     0.002 A 
ATOM     17  C   UNL d   1       9.904  -5.825   0.000  0.00  0.00     0.000 A 
ATOM     18  C   UNL d   1       9.192  -4.588   0.000  0.00  0.00     0.000 A 
ATOM     19  C   UNL d   1       9.904  -6.642   0.000  0.00  0.00     0.000 A 
ATOM     20  C   UNL d   1       9.192  -7.054   0.000  0.00  0.00     0.000 A 
ATOM     21  C   UNL d   1       8.475  -4.175   0.000  0.00  0.00     0.002 A 
ATOM     22  C   UNL d   1       7.763  -4.592   0.000  0.00  0.00     0.019 A 
ENDBRANCH   2  13
TORSDOF 3
