REMARK  6 active torsions:
REMARK  status: ('A' for Active; 'I' for Inactive)
REMARK    1  A    between atoms: N_2  and  S_1 
REMARK    2  A    between atoms: C_3  and  S_1 
REMARK    3  A    between atoms: C_7  and  N_2 
REMARK    4  A    between atoms: C_10  and  C_7 
REMARK    5  A    between atoms: O_14  and  C_11 
REMARK    6  A    between atoms: C_17  and  O_14 
ROOT
ATOM      1  S   UNL d   1       4.954  -1.679   0.000  0.00  0.00     0.285 S 
ATOM      2  O   UNL d   1       4.954  -0.854   0.000  0.00  0.00    -0.198 OA
ATOM      3  O   UNL d   1       4.954  -2.504   0.000  0.00  0.00    -0.198 OA
ENDROOT
BRANCH   1   4
ATOM      4  N   UNL d   1       5.779  -1.679   0.000  0.00  0.00    -0.155 NA
BRANCH   4   5
ATOM      5  C   UNL d   1       6.192  -2.392   0.000  0.00  0.00     0.131 C 
BRANCH   5   6
ATOM      6  C   UNL d   1       7.017  -2.392   0.000  0.00  0.00     0.101 A 
ATOM      7  N   UNL d   1       7.429  -1.679   0.000  0.00  0.00    -0.242 NA
ATOM      8  C   UNL d   1       8.254  -1.679   0.000  0.00  0.00     0.099 A 
ATOM      9  C   UNL d   1       8.667  -2.392   0.000  0.00  0.00     0.021 A 
ATOM     10  C   UNL d   1       8.254  -3.112   0.000  0.00  0.00     0.003 A 
ATOM     11  C   UNL d   1       7.429  -3.112   0.000  0.00  0.00     0.021 A 
ENDBRANCH   5   6
ENDBRANCH   4   5
ENDBRANCH   1   4
BRANCH   1  12
ATOM     12  C   UNL d   1       4.129  -1.679   0.000  0.00  0.00     0.105 A 
ATOM     13  C   UNL d   1       3.717  -0.967   0.000  0.00  0.00     0.015 A 
ATOM     14  C   UNL d   1       2.892  -0.967   0.000  0.00  0.00     0.025 A 
ATOM     15  C   UNL d   1       2.479  -1.679   0.000  0.00  0.00     0.100 A 
ATOM     16  C   UNL d   1       2.892  -2.392   0.000  0.00  0.00     0.025 A 
ATOM     17  C   UNL d   1       3.725  -2.392   0.000  0.00  0.00     0.015 A 
BRANCH  15  18
ATOM     18  O   UNL d   1       1.654  -1.679   0.000  0.00  0.00    -0.305 OA
BRANCH  18  19
ATOM     19  C   UNL d   1       1.242  -0.967   0.000  0.00  0.00     0.123 C 
ATOM     20  C   UNL d   1       0.417  -0.967   0.000  0.00  0.00     0.029 C 
ENDBRANCH  18  19
ENDBRANCH  15  18
ENDBRANCH   1  12
TORSDOF 6
