REMARK  5 active torsions:
REMARK  status: ('A' for Active; 'I' for Inactive)
REMARK    1  A    between atoms: C_10  and  C_3 
REMARK    2  A    between atoms: N_12  and  C_4 
REMARK    3  A    between atoms: N_11  and  C_15 
REMARK    4  A    between atoms: C_14  and  N_12 
REMARK    5  A    between atoms: C_15  and  C_14 
ROOT
ATOM      1  C   UNL d   1       5.803  -5.360   0.000  0.00  0.00     0.167 A 
ATOM      2  N   UNL d   1       5.803  -4.531   0.000  0.00  0.00    -0.195 N 
ATOM      3  C   UNL d   1       5.024  -5.606   0.000  0.00  0.00     0.057 A 
ATOM      4  C   UNL d   1       6.515  -4.124   0.000  0.00  0.00     0.167 A 
ATOM      5  N   UNL d   1       5.024  -4.285   0.000  0.00  0.00    -0.161 NA
ATOM      6  N   UNL d   1       6.515  -5.767   0.000  0.00  0.00    -0.227 NA
ATOM      7  C   UNL d   1       7.231  -4.540   0.000  0.00  0.00     0.058 A 
ATOM      8  C   UNL d   1       4.545  -4.934   0.000  0.00  0.00     0.124 A 
ATOM      9  C   UNL d   1       7.231  -5.351   0.000  0.00  0.00     0.086 A 
ATOM     10  C   UNL d   1       7.957  -5.754   0.000  0.00  0.00     0.021 C 
ENDROOT
BRANCH   4  11
ATOM     11  N   UNL d   1       6.515  -3.296   0.000  0.00  0.00    -0.224 NA
BRANCH  11  12
ATOM     12  C   UNL d   1       5.803  -2.888   0.000  0.00  0.00     0.120 C 
BRANCH  12  13
ATOM     13  C   UNL d   1       5.803  -2.060   0.000  0.00  0.00     0.101 C 
BRANCH  13  14
ATOM     14  N   UNL d   1       5.091  -1.643   0.000  0.00  0.00    -0.298 N 
ATOM     15  C   UNL d   1       4.379  -2.060   0.000  0.00  0.00     0.107 A 
ATOM     16  C   UNL d   1       3.658  -1.643   0.000  0.00  0.00     0.142 A 
ATOM     17  O   UNL d   1       3.658  -0.824   0.000  0.00  0.00    -0.300 OA
ATOM     18  C   UNL d   1       4.379  -0.407   0.000  0.00  0.00     0.142 A 
ATOM     19  C   UNL d   1       5.091  -0.819   0.000  0.00  0.00     0.107 A 
ENDBRANCH  13  14
ENDBRANCH  12  13
ENDBRANCH  11  12
ENDBRANCH   4  11
BRANCH   3  20
ATOM     20  C   UNL d   1       4.840  -6.412   0.000  0.00  0.00     0.004 A 
ATOM     21  C   UNL d   1       5.454  -6.972   0.000  0.00  0.00     0.000 A 
ATOM     22  C   UNL d   1       5.279  -7.769   0.000  0.00  0.00     0.000 A 
ATOM     23  C   UNL d   1       4.487  -8.024   0.000  0.00  0.00     0.000 A 
ATOM     24  C   UNL d   1       3.882  -7.473   0.000  0.00  0.00     0.000 A 
ATOM     25  C   UNL d   1       4.061  -6.667   0.000  0.00  0.00     0.000 A 
ENDBRANCH   3  20
TORSDOF 5
