REMARK  3 active torsions:
REMARK  status: ('A' for Active; 'I' for Inactive)
REMARK    1  A    between atoms: N_9  and  C_3 
REMARK    2  A    between atoms: C_14  and  C_4 
REMARK       I    between atoms: C_10  and  N_11 
REMARK    3  A    between atoms: C_13  and  C_10 
ROOT
ATOM      1  N   UNL d   1       5.808  -4.630   0.000  0.00  0.00    -0.196 N 
ATOM      2  C   UNL d   1       5.808  -5.450   0.000  0.00  0.00     0.167 A 
ATOM      3  C   UNL d   1       6.521  -4.213   0.000  0.00  0.00     0.152 A 
ATOM      4  C   UNL d   1       5.028  -5.705   0.000  0.00  0.00     0.057 A 
ATOM      5  N   UNL d   1       5.028  -4.374   0.000  0.00  0.00    -0.161 NA
ATOM      6  N   UNL d   1       6.521  -5.866   0.000  0.00  0.00    -0.227 NA
ATOM      7  C   UNL d   1       7.238  -4.630   0.000  0.00  0.00     0.057 A 
ATOM      8  C   UNL d   1       4.549  -5.046   0.000  0.00  0.00     0.124 A 
ATOM      9  C   UNL d   1       7.238  -5.450   0.000  0.00  0.00     0.086 A 
ATOM     10  C   UNL d   1       7.964  -5.862   0.000  0.00  0.00     0.021 C 
ENDROOT
BRANCH   3  11
ATOM     11  N   UNL d   1       6.521  -3.393   0.000  0.00  0.00    -0.286 N 
ATOM     12  C   UNL d   1       7.224  -2.971   0.000  0.00  0.00     0.101 A 
ATOM     13  C   UNL d   1       7.220  -2.142   0.000  0.00  0.00     0.102 A 
ATOM     14  N   UNL d   1       6.498  -1.739   0.000  0.00  0.00    -0.267 N 
ATOM     15  C   UNL d   1       6.485  -0.905   0.000  0.00  0.00     0.288 C 
ATOM     16  C   UNL d   1       5.795  -2.156   0.000  0.00  0.00     0.102 A 
ATOM     17  O   UNL d   1       5.772  -0.497   0.000  0.00  0.00    -0.264 OA
ATOM     18  C   UNL d   1       5.799  -2.985   0.000  0.00  0.00     0.101 A 
BRANCH  15  19
ATOM     19  C   UNL d   1       7.197  -0.488   0.000  0.00  0.00     0.156 A 
ATOM     20  O   UNL d   1       7.977  -0.731   0.000  0.00  0.00    -0.300 OA
ATOM     21  C   UNL d   1       8.461  -0.058   0.000  0.00  0.00     0.123 A 
ATOM     22  C   UNL d   1       7.977   0.587   0.000  0.00  0.00     0.029 A 
ATOM     23  C   UNL d   1       7.197   0.332   0.000  0.00  0.00     0.032 A 
ENDBRANCH  15  19
ENDBRANCH   3  11
BRANCH   4  24
ATOM     24  C   UNL d   1       4.692  -6.458   0.000  0.00  0.00     0.004 A 
ATOM     25  C   UNL d   1       5.181  -7.130   0.000  0.00  0.00     0.000 A 
ATOM     26  C   UNL d   1       4.845  -7.883   0.000  0.00  0.00     0.000 A 
ATOM     27  C   UNL d   1       4.024  -7.973   0.000  0.00  0.00     0.000 A 
ATOM     28  C   UNL d   1       3.536  -7.305   0.000  0.00  0.00     0.000 A 
ATOM     29  C   UNL d   1       3.872  -6.552   0.000  0.00  0.00     0.000 A 
ENDBRANCH   4  24
TORSDOF 3
