REMARK  4 active torsions:
REMARK  status: ('A' for Active; 'I' for Inactive)
REMARK    1  A    between atoms: N_10  and  C_3 
REMARK    2  A    between atoms: C_14  and  C_5 
REMARK    3  A    between atoms: C_15  and  C_9 
REMARK       I    between atoms: C_11  and  N_12 
REMARK    4  A    between atoms: C_13  and  C_11 
ROOT
ATOM      1  N   UNL d   1      -4.782   4.006   0.000  0.00  0.00    -0.196 N 
ATOM      2  C   UNL d   1      -4.782   3.152   0.000  0.00  0.00     0.167 A 
ATOM      3  C   UNL d   1      -4.063   4.396   0.000  0.00  0.00     0.152 A 
ATOM      4  N   UNL d   1      -6.215   3.993   0.000  0.00  0.00    -0.163 NA
ATOM      5  C   UNL d   1      -5.492   2.735   0.000  0.00  0.00     0.055 A 
ATOM      6  N   UNL d   1      -4.063   2.735   0.000  0.00  0.00    -0.231 NA
ATOM      7  C   UNL d   1      -3.349   3.993   0.000  0.00  0.00     0.052 A 
ATOM      8  C   UNL d   1      -6.215   3.156   0.000  0.00  0.00     0.104 A 
ATOM      9  C   UNL d   1      -3.349   3.152   0.000  0.00  0.00     0.063 A 
ATOM     10  C   UNL d   1      -6.921   2.744   0.000  0.00  0.00     0.023 C 
ENDROOT
BRANCH   3  11
ATOM     11  N   UNL d   1      -4.059   5.264   0.000  0.00  0.00    -0.286 N 
ATOM     12  C   UNL d   1      -3.467   5.830   0.000  0.00  0.00     0.101 A 
ATOM     13  C   UNL d   1      -3.651   6.632   0.000  0.00  0.00     0.102 A 
ATOM     14  N   UNL d   1      -4.440   6.864   0.000  0.00  0.00    -0.267 N 
ATOM     15  C   UNL d   1      -4.638   7.658   0.000  0.00  0.00     0.288 C 
ATOM     16  C   UNL d   1      -5.032   6.303   0.000  0.00  0.00     0.102 A 
ATOM     17  O   UNL d   1      -5.426   7.894   0.000  0.00  0.00    -0.264 OA
ATOM     18  C   UNL d   1      -4.839   5.501   0.000  0.00  0.00     0.101 A 
BRANCH  15  19
ATOM     19  C   UNL d   1      -4.046   8.223   0.000  0.00  0.00     0.156 A 
ATOM     20  O   UNL d   1      -3.257   7.986   0.000  0.00  0.00    -0.300 OA
ATOM     21  C   UNL d   1      -2.665   8.552   0.000  0.00  0.00     0.123 A 
ATOM     22  C   UNL d   1      -2.849   9.341   0.000  0.00  0.00     0.029 A 
ATOM     23  C   UNL d   1      -4.230   9.012   0.000  0.00  0.00     0.032 A 
ENDBRANCH  15  19
ENDBRANCH   3  11
BRANCH   9  24
ATOM     24  C   UNL d   1      -2.591   2.718   0.000  0.00  0.00     0.036 C 
ATOM     25  C   UNL d   1      -1.841   2.284   0.000  0.00  0.00     0.006 C 
ATOM     26  C   UNL d   1      -1.837   3.152   0.000  0.00  0.00     0.006 C 
ATOM     27  C   UNL d   1      -2.591   1.850   0.000  0.00  0.00     0.006 C 
ENDBRANCH   9  24
BRANCH   5  28
ATOM     28  C   UNL d   1      -5.492   1.907   0.000  0.00  0.00     0.004 A 
ATOM     29  C   UNL d   1      -6.202   1.495   0.000  0.00  0.00     0.001 A 
ATOM     30  C   UNL d   1      -6.202   0.657   0.000  0.00  0.00     0.011 A 
ATOM     31  C   UNL d   1      -5.492   0.245   0.000  0.00  0.00     0.058 A 
ATOM     32  C   UNL d   1      -4.769   0.671   0.000  0.00  0.00     0.011 A 
ATOM     33 CL   UNL d   1      -5.492  -0.623   0.000  0.00  0.00    -0.082 Cl
ATOM     34  C   UNL d   1      -4.769   1.495   0.000  0.00  0.00     0.001 A 
ENDBRANCH   5  28
TORSDOF 4
