REMARK  2 active torsions:
REMARK  status: ('A' for Active; 'I' for Inactive)
REMARK    1  A    between atoms: N_9  and  C_3 
REMARK    2  A    between atoms: C_11  and  C_5 
ROOT
ATOM      1  N   UNL d   1       5.639  -3.190   0.000  0.00  0.00    -0.196 N 
ATOM      2  C   UNL d   1       5.639  -4.014   0.000  0.00  0.00     0.167 A 
ATOM      3  C   UNL d   1       6.351  -2.778   0.000  0.00  0.00     0.152 A 
ATOM      4  N   UNL d   1       4.860  -2.940   0.000  0.00  0.00    -0.163 NA
ATOM      5  C   UNL d   1       4.860  -4.273   0.000  0.00  0.00     0.055 A 
ATOM      6  C   UNL d   1       4.377  -3.611   0.000  0.00  0.00     0.104 A 
ATOM      7  N   UNL d   1       6.351  -4.427   0.000  0.00  0.00    -0.227 NA
ATOM      8  C   UNL d   1       7.071  -3.190   0.000  0.00  0.00     0.057 A 
ATOM      9  C   UNL d   1       7.071  -4.014   0.000  0.00  0.00     0.086 A 
ATOM     10  C   UNL d   1       3.552  -3.615   0.000  0.00  0.00     0.023 C 
ATOM     11  C   UNL d   1       7.787  -4.439   0.000  0.00  0.00     0.021 C 
ENDROOT
BRANCH   5  12
ATOM     12  C   UNL d   1       4.522  -5.027   0.000  0.00  0.00     0.004 A 
ATOM     13  C   UNL d   1       5.010  -5.697   0.000  0.00  0.00     0.000 A 
ATOM     14  C   UNL d   1       4.672  -6.451   0.000  0.00  0.00     0.000 A 
ATOM     15  C   UNL d   1       3.852  -6.538   0.000  0.00  0.00     0.000 A 
ATOM     16  C   UNL d   1       3.365  -5.864   0.000  0.00  0.00     0.000 A 
ATOM     17  C   UNL d   1       3.702  -5.114   0.000  0.00  0.00     0.000 A 
ENDBRANCH   5  12
BRANCH   3  18
ATOM     18  N   UNL d   1       6.351  -1.953   0.000  0.00  0.00    -0.289 N 
ATOM     19  C   UNL d   1       5.672  -1.487   0.000  0.00  0.00     0.082 A 
ATOM     20  C   UNL d   1       5.901  -0.691   0.000  0.00  0.00     0.021 A 
ATOM     21  C   UNL d   1       6.726  -0.675   0.000  0.00  0.00     0.021 A 
ATOM     22  C   UNL d   1       7.009  -1.437   0.000  0.00  0.00     0.082 A 
ENDBRANCH   3  18
TORSDOF 2
