REMARK  5 active torsions:
REMARK  status: ('A' for Active; 'I' for Inactive)
REMARK    1  A    between atoms: C_13  and  C_4 
REMARK    2  A    between atoms: S_11  and  C_5 
REMARK    3  A    between atoms: C_10  and  C_12 
REMARK    4  A    between atoms: C_15  and  S_11 
REMARK    5  A    between atoms: C_12  and  C_15 
ROOT
ATOM      1  N   UNL d   1      -4.722   3.932   0.000  0.00  0.00    -0.206 N 
ATOM      2  C   UNL d   1      -4.722   3.103   0.000  0.00  0.00     0.166 A 
ATOM      3  N   UNL d   1      -6.120   3.932   0.000  0.00  0.00    -0.163 NA
ATOM      4  C   UNL d   1      -5.421   2.693   0.000  0.00  0.00     0.055 A 
ATOM      5  C   UNL d   1      -4.001   4.329   0.000  0.00  0.00     0.116 A 
ATOM      6  C   UNL d   1      -6.120   3.108   0.000  0.00  0.00     0.104 A 
ATOM      7  N   UNL d   1      -4.001   2.693   0.000  0.00  0.00    -0.227 NA
ATOM      8  C   UNL d   1      -3.297   3.932   0.000  0.00  0.00     0.045 A 
ATOM      9  C   UNL d   1      -3.297   3.103   0.000  0.00  0.00     0.085 A 
ATOM     10  C   UNL d   1      -6.828   2.702   0.000  0.00  0.00     0.023 C 
ATOM     11  C   UNL d   1      -2.559   2.676   0.000  0.00  0.00     0.021 C 
ENDROOT
BRANCH   5  12
ATOM     12  S   UNL d   1      -3.997   5.184   0.000  0.00  0.00    -0.064 SA
BRANCH  12  13
ATOM     13  C   UNL d   1      -3.725   5.982   0.000  0.00  0.00     0.079 C 
BRANCH  13  14
ATOM     14  C   UNL d   1      -4.269   6.621   0.000  0.00  0.00     0.208 C 
ATOM     15  O   UNL d   1      -5.097   6.466   0.000  0.00  0.00    -0.285 OA
BRANCH  14  16
ATOM     16  C   UNL d   1      -3.984   7.411   0.000  0.00  0.00     0.069 A 
ATOM     17  S   UNL d   1      -3.172   7.657   0.000  0.00  0.00    -0.083 SA
ATOM     18  C   UNL d   1      -3.155   8.507   0.000  0.00  0.00     0.035 A 
ATOM     19  C   UNL d   1      -3.949   8.783   0.000  0.00  0.00     0.008 A 
ATOM     20  C   UNL d   1      -4.463   8.110   0.000  0.00  0.00     0.010 A 
ENDBRANCH  14  16
ENDBRANCH  13  14
ENDBRANCH  12  13
ENDBRANCH   5  12
BRANCH   4  21
ATOM     21  C   UNL d   1      -5.421   1.873   0.000  0.00  0.00     0.004 A 
ATOM     22  C   UNL d   1      -4.700   1.472   0.000  0.00  0.00     0.001 A 
ATOM     23  C   UNL d   1      -4.700   0.656   0.000  0.00  0.00     0.011 A 
ATOM     24  C   UNL d   1      -5.421   0.255   0.000  0.00  0.00     0.058 A 
ATOM     25  C   UNL d   1      -6.120   0.643   0.000  0.00  0.00     0.011 A 
ATOM     26 CL   UNL d   1      -5.421  -0.600   0.000  0.00  0.00    -0.082 Cl
ATOM     27  C   UNL d   1      -6.120   1.472   0.000  0.00  0.00     0.001 A 
ENDBRANCH   4  21
TORSDOF 5
