REMARK  5 active torsions:
REMARK  status: ('A' for Active; 'I' for Inactive)
REMARK    1  A    between atoms: C_15  and  C_4 
REMARK    2  A    between atoms: S_10  and  C_5 
REMARK    3  A    between atoms: C_17  and  S_10 
REMARK    4  A    between atoms: C_11  and  C_14 
REMARK    5  A    between atoms: C_14  and  C_17 
ROOT
ATOM      1  N   UNL d   1      -4.690   3.921   0.000  0.00  0.00    -0.206 N 
ATOM      2  C   UNL d   1      -4.690   3.095   0.000  0.00  0.00     0.166 A 
ATOM      3  N   UNL d   1      -6.096   3.916   0.000  0.00  0.00    -0.163 NA
ATOM      4  C   UNL d   1      -5.387   2.683   0.000  0.00  0.00     0.055 A 
ATOM      5  C   UNL d   1      -3.985   4.312   0.000  0.00  0.00     0.116 A 
ATOM      6  C   UNL d   1      -6.096   3.104   0.000  0.00  0.00     0.104 A 
ATOM      7  N   UNL d   1      -3.985   2.683   0.000  0.00  0.00    -0.227 NA
ATOM      8  C   UNL d   1      -3.272   3.916   0.000  0.00  0.00     0.045 A 
ATOM      9  C   UNL d   1      -3.272   3.095   0.000  0.00  0.00     0.085 A 
ATOM     10  C   UNL d   1      -6.788   2.691   0.000  0.00  0.00     0.023 C 
ATOM     11  C   UNL d   1      -2.536   2.665   0.000  0.00  0.00     0.021 C 
ENDROOT
BRANCH   5  12
ATOM     12  S   UNL d   1      -3.985   5.163   0.000  0.00  0.00    -0.064 SA
BRANCH  12  13
ATOM     13  C   UNL d   1      -4.252   5.963   0.000  0.00  0.00     0.079 C 
BRANCH  13  14
ATOM     14  C   UNL d   1      -3.684   6.595   0.000  0.00  0.00     0.202 C 
ATOM     15  O   UNL d   1      -2.859   6.414   0.000  0.00  0.00    -0.286 OA
BRANCH  14  16
ATOM     16  C   UNL d   1      -3.942   7.394   0.000  0.00  0.00     0.043 A 
ATOM     17  C   UNL d   1      -3.379   8.026   0.000  0.00  0.00     0.049 A 
ATOM     18  C   UNL d   1      -3.646   8.835   0.000  0.00  0.00     0.234 A 
ATOM     19  O   UNL d   1      -3.078   9.471   0.000  0.00  0.00    -0.283 OA
ATOM     20  C   UNL d   1      -4.471   9.007   0.000  0.00  0.00     0.234 A 
ATOM     21  C   UNL d   1      -5.038   8.383   0.000  0.00  0.00     0.045 A 
ATOM     22  O   UNL d   1      -4.742   9.806   0.000  0.00  0.00    -0.283 OA
ATOM     23  C   UNL d   1      -4.772   7.575   0.000  0.00  0.00     0.007 A 
ENDBRANCH  14  16
ENDBRANCH  13  14
ENDBRANCH  12  13
ENDBRANCH   5  12
BRANCH   4  24
ATOM     24  C   UNL d   1      -5.387   1.870   0.000  0.00  0.00     0.004 A 
ATOM     25  C   UNL d   1      -6.083   1.466   0.000  0.00  0.00     0.000 A 
ATOM     26  C   UNL d   1      -6.083   0.653   0.000  0.00  0.00     0.000 A 
ATOM     27  C   UNL d   1      -5.387   0.245   0.000  0.00  0.00     0.000 A 
ATOM     28  C   UNL d   1      -4.677   0.666   0.000  0.00  0.00     0.000 A 
ATOM     29  C   UNL d   1      -4.690   1.466   0.000  0.00  0.00     0.000 A 
ENDBRANCH   4  24
TORSDOF 5
