REMARK  3 active torsions:
REMARK  status: ('A' for Active; 'I' for Inactive)
REMARK    1  A    between atoms: N_9  and  C_3 
REMARK    2  A    between atoms: C_12  and  C_4 
REMARK    3  A    between atoms: C_17  and  N_10 
ROOT
ATOM      1  N   UNL d   1       5.811  -4.430   0.000  0.00  0.00    -0.196 N 
ATOM      2  C   UNL d   1       5.811  -5.250   0.000  0.00  0.00     0.167 A 
ATOM      3  C   UNL d   1       6.524  -4.013   0.000  0.00  0.00     0.152 A 
ATOM      4  C   UNL d   1       5.030  -5.506   0.000  0.00  0.00     0.057 A 
ATOM      5  N   UNL d   1       5.030  -4.174   0.000  0.00  0.00    -0.161 NA
ATOM      6  N   UNL d   1       6.524  -5.667   0.000  0.00  0.00    -0.227 NA
ATOM      7  C   UNL d   1       7.241  -4.430   0.000  0.00  0.00     0.057 A 
ATOM      8  C   UNL d   1       4.551  -4.847   0.000  0.00  0.00     0.124 A 
ATOM      9  C   UNL d   1       7.241  -5.250   0.000  0.00  0.00     0.086 A 
ATOM     10  C   UNL d   1       7.967  -5.663   0.000  0.00  0.00     0.021 C 
ENDROOT
BRANCH   3  11
ATOM     11  N   UNL d   1       6.524  -3.192   0.000  0.00  0.00    -0.286 N 
ATOM     12  C   UNL d   1       7.241  -2.775   0.000  0.00  0.00     0.101 A 
ATOM     13  C   UNL d   1       7.241  -1.950   0.000  0.00  0.00     0.100 A 
ATOM     14  N   UNL d   1       6.524  -1.538   0.000  0.00  0.00    -0.301 N 
ATOM     15  C   UNL d   1       5.811  -1.950   0.000  0.00  0.00     0.100 A 
ATOM     16  C   UNL d   1       5.811  -2.775   0.000  0.00  0.00     0.101 A 
BRANCH  14  17
ATOM     17  C   UNL d   1       6.524  -0.704   0.000  0.00  0.00     0.064 A 
ATOM     18  C   UNL d   1       7.236  -0.296   0.000  0.00  0.00     0.018 A 
ATOM     19  C   UNL d   1       7.061   0.520   0.000  0.00  0.00     0.002 A 
ATOM     20  C   UNL d   1       6.246   0.601   0.000  0.00  0.00     0.002 A 
ATOM     21  C   UNL d   1       5.909  -0.148   0.000  0.00  0.00     0.018 A 
ENDBRANCH  14  17
ENDBRANCH   3  11
BRANCH   4  22
ATOM     22  C   UNL d   1       4.694  -6.259   0.000  0.00  0.00     0.004 A 
ATOM     23  C   UNL d   1       5.183  -6.931   0.000  0.00  0.00     0.000 A 
ATOM     24  C   UNL d   1       4.847  -7.685   0.000  0.00  0.00     0.000 A 
ATOM     25  C   UNL d   1       4.026  -7.774   0.000  0.00  0.00     0.000 A 
ATOM     26  C   UNL d   1       3.538  -7.106   0.000  0.00  0.00     0.000 A 
ATOM     27  C   UNL d   1       3.874  -6.353   0.000  0.00  0.00     0.000 A 
ENDBRANCH   4  22
TORSDOF 3
