REMARK  3 active torsions:
REMARK  status: ('A' for Active; 'I' for Inactive)
REMARK    1  A    between atoms: N_9  and  C_3 
REMARK    2  A    between atoms: C_14  and  C_5 
REMARK       I    between atoms: C_10  and  N_11 
REMARK    3  A    between atoms: C_13  and  C_10 
ROOT
ATOM      1  N   UNL d   1       6.135  -4.172   0.000  0.00  0.00    -0.196 N 
ATOM      2  C   UNL d   1       6.135  -4.992   0.000  0.00  0.00     0.167 A 
ATOM      3  C   UNL d   1       6.848  -3.756   0.000  0.00  0.00     0.152 A 
ATOM      4  N   UNL d   1       5.356  -3.917   0.000  0.00  0.00    -0.163 NA
ATOM      5  C   UNL d   1       5.356  -5.248   0.000  0.00  0.00     0.055 A 
ATOM      6  C   UNL d   1       4.880  -4.589   0.000  0.00  0.00     0.104 A 
ATOM      7  N   UNL d   1       6.848  -5.409   0.000  0.00  0.00    -0.227 NA
ATOM      8  C   UNL d   1       7.569  -4.172   0.000  0.00  0.00     0.057 A 
ATOM      9  C   UNL d   1       7.569  -4.992   0.000  0.00  0.00     0.086 A 
ATOM     10  C   UNL d   1       4.051  -4.603   0.000  0.00  0.00     0.023 C 
ATOM     11  C   UNL d   1       8.300  -5.405   0.000  0.00  0.00     0.021 C 
ENDROOT
BRANCH   3  12
ATOM     12  N   UNL d   1       6.848  -2.935   0.000  0.00  0.00    -0.286 N 
ATOM     13  C   UNL d   1       7.560  -2.514   0.000  0.00  0.00     0.101 A 
ATOM     14  C   UNL d   1       7.556  -1.694   0.000  0.00  0.00     0.102 A 
ATOM     15  N   UNL d   1       6.834  -1.282   0.000  0.00  0.00    -0.267 N 
ATOM     16  C   UNL d   1       6.821  -0.448   0.000  0.00  0.00     0.288 C 
ATOM     17  C   UNL d   1       6.131  -1.698   0.000  0.00  0.00     0.102 A 
ATOM     18  O   UNL d   1       6.117  -0.031   0.000  0.00  0.00    -0.264 OA
ATOM     19  C   UNL d   1       6.135  -2.528   0.000  0.00  0.00     0.101 A 
BRANCH  16  20
ATOM     20  C   UNL d   1       7.542  -0.031   0.000  0.00  0.00     0.156 A 
ATOM     21  O   UNL d   1       8.322  -0.282   0.000  0.00  0.00    -0.300 OA
ATOM     22  C   UNL d   1       8.797   0.390   0.000  0.00  0.00     0.123 A 
ATOM     23  C   UNL d   1       8.327   1.044   0.000  0.00  0.00     0.029 A 
ATOM     24  C   UNL d   1       7.534   0.789   0.000  0.00  0.00     0.032 A 
ENDBRANCH  16  20
ENDBRANCH   3  12
BRANCH   5  25
ATOM     25  C   UNL d   1       5.019  -6.001   0.000  0.00  0.00     0.004 A 
ATOM     26  C   UNL d   1       5.512  -6.673   0.000  0.00  0.00     0.001 A 
ATOM     27  C   UNL d   1       5.176  -7.426   0.000  0.00  0.00     0.011 A 
ATOM     28  C   UNL d   1       4.356  -7.516   0.000  0.00  0.00     0.058 A 
ATOM     29  C   UNL d   1       3.863  -6.848   0.000  0.00  0.00     0.011 A 
ATOM     30 CL   UNL d   1       4.024  -8.273   0.000  0.00  0.00    -0.082 Cl
ATOM     31  C   UNL d   1       4.199  -6.095   0.000  0.00  0.00     0.001 A 
ENDBRANCH   5  25
TORSDOF 3
