REMARK  3 active torsions:
REMARK  status: ('A' for Active; 'I' for Inactive)
REMARK    1  A    between atoms: N_10  and  C_3 
REMARK    2  A    between atoms: C_11  and  C_4 
REMARK    3  A    between atoms: C_12  and  N_10 
ROOT
ATOM      1  C   UNL d   1       5.805  -4.408   0.000  0.00  0.00     0.167 A 
ATOM      2  N   UNL d   1       5.805  -3.579   0.000  0.00  0.00    -0.195 N 
ATOM      3  C   UNL d   1       6.518  -3.171   0.000  0.00  0.00     0.167 A 
ATOM      4  C   UNL d   1       5.026  -4.654   0.000  0.00  0.00     0.057 A 
ATOM      5  N   UNL d   1       5.026  -3.333   0.000  0.00  0.00    -0.161 NA
ATOM      6  N   UNL d   1       6.518  -4.815   0.000  0.00  0.00    -0.227 NA
ATOM      7  C   UNL d   1       7.234  -3.588   0.000  0.00  0.00     0.058 A 
ATOM      8  C   UNL d   1       4.547  -3.982   0.000  0.00  0.00     0.124 A 
ATOM      9  C   UNL d   1       7.234  -4.399   0.000  0.00  0.00     0.086 A 
ATOM     10  C   UNL d   1       7.960  -4.802   0.000  0.00  0.00     0.021 C 
ENDROOT
BRANCH   3  11
ATOM     11  N   UNL d   1       6.518  -2.343   0.000  0.00  0.00    -0.227 NA
BRANCH  11  12
ATOM     12  C   UNL d   1       5.805  -1.935   0.000  0.00  0.00     0.083 A 
ATOM     13  C   UNL d   1       5.631  -1.129   0.000  0.00  0.00     0.019 A 
ATOM     14  C   UNL d   1       4.811  -1.048   0.000  0.00  0.00     0.002 A 
ATOM     15  C   UNL d   1       4.475  -1.792   0.000  0.00  0.00     0.002 A 
ATOM     16  C   UNL d   1       5.084  -2.352   0.000  0.00  0.00     0.019 A 
ENDBRANCH  11  12
ENDBRANCH   3  11
BRANCH   4  17
ATOM     17  C   UNL d   1       4.842  -5.460   0.000  0.00  0.00     0.004 A 
ATOM     18  C   UNL d   1       4.063  -5.702   0.000  0.00  0.00     0.000 A 
ATOM     19  C   UNL d   1       3.875  -6.509   0.000  0.00  0.00     0.000 A 
ATOM     20  C   UNL d   1       4.488  -7.069   0.000  0.00  0.00     0.000 A 
ATOM     21  C   UNL d   1       5.272  -6.818   0.000  0.00  0.00     0.000 A 
ATOM     22  C   UNL d   1       5.447  -6.020   0.000  0.00  0.00     0.000 A 
ENDBRANCH   4  17
TORSDOF 3
