REMARK  4 active torsions:
REMARK  status: ('A' for Active; 'I' for Inactive)
REMARK    1  A    between atoms: N_10  and  C_3 
REMARK    2  A    between atoms: C_11  and  C_4 
REMARK    3  A    between atoms: C_15  and  N_10 
REMARK       I    between atoms: C_12  and  N_13 
REMARK    4  A    between atoms: N_13  and  C_16 
ROOT
ATOM      1  C   UNL d   1       5.805  -5.769   0.000  0.00  0.00     0.167 A 
ATOM      2  N   UNL d   1       5.805  -4.950   0.000  0.00  0.00    -0.195 N 
ATOM      3  C   UNL d   1       6.518  -4.533   0.000  0.00  0.00     0.167 A 
ATOM      4  C   UNL d   1       5.026  -6.025   0.000  0.00  0.00     0.057 A 
ATOM      5  N   UNL d   1       5.026  -4.694   0.000  0.00  0.00    -0.161 NA
ATOM      6  N   UNL d   1       6.518  -6.186   0.000  0.00  0.00    -0.227 NA
ATOM      7  C   UNL d   1       7.234  -4.950   0.000  0.00  0.00     0.058 A 
ATOM      8  C   UNL d   1       4.547  -5.353   0.000  0.00  0.00     0.124 A 
ATOM      9  C   UNL d   1       7.234  -5.769   0.000  0.00  0.00     0.086 A 
ATOM     10  C   UNL d   1       7.960  -6.168   0.000  0.00  0.00     0.021 C 
ENDROOT
BRANCH   3  11
ATOM     11  N   UNL d   1       6.518  -3.713   0.000  0.00  0.00    -0.227 NA
BRANCH  11  12
ATOM     12  C   UNL d   1       5.805  -3.297   0.000  0.00  0.00     0.083 A 
ATOM     13  C   UNL d   1       5.093  -3.713   0.000  0.00  0.00     0.021 A 
ATOM     14  C   UNL d   1       4.372  -3.297   0.000  0.00  0.00     0.021 A 
ATOM     15  C   UNL d   1       4.372  -2.477   0.000  0.00  0.00     0.085 A 
ATOM     16  C   UNL d   1       5.093  -2.061   0.000  0.00  0.00     0.021 A 
ATOM     17  C   UNL d   1       5.805  -2.473   0.000  0.00  0.00     0.021 A 
BRANCH  15  18
ATOM     18  N   UNL d   1       3.646  -2.061   0.000  0.00  0.00    -0.208 NA
ATOM     19  C   UNL d   1       3.633  -1.236   0.000  0.00  0.00     0.279 C 
ATOM     20  O   UNL d   1       2.907  -0.824   0.000  0.00  0.00    -0.265 OA
ATOM     21  C   UNL d   1       4.340  -0.820   0.000  0.00  0.00     0.068 C 
ENDBRANCH  15  18
ENDBRANCH  11  12
ENDBRANCH   3  11
BRANCH   4  22
ATOM     22  C   UNL d   1       4.842  -6.831   0.000  0.00  0.00     0.004 A 
ATOM     23  C   UNL d   1       5.456  -7.382   0.000  0.00  0.00     0.000 A 
ATOM     24  C   UNL d   1       5.281  -8.188   0.000  0.00  0.00     0.000 A 
ATOM     25  C   UNL d   1       4.488  -8.444   0.000  0.00  0.00     0.000 A 
ATOM     26  C   UNL d   1       3.884  -7.888   0.000  0.00  0.00     0.000 A 
ATOM     27  C   UNL d   1       4.063  -7.082   0.000  0.00  0.00     0.000 A 
ENDBRANCH   4  22
TORSDOF 4
