REMARK  4 active torsions:
REMARK  status: ('A' for Active; 'I' for Inactive)
REMARK    1  A    between atoms: N_9  and  C_3 
REMARK    2  A    between atoms: C_12  and  C_5 
REMARK    3  A    between atoms: C_15  and  N_11 
REMARK    4  A    between atoms: C_19  and  C_15 
ROOT
ATOM      1  N   UNL d   1       5.639  -4.839   0.000  0.00  0.00    -0.196 N 
ATOM      2  C   UNL d   1       5.639  -5.664   0.000  0.00  0.00     0.167 A 
ATOM      3  C   UNL d   1       6.351  -4.427   0.000  0.00  0.00     0.152 A 
ATOM      4  N   UNL d   1       4.860  -4.589   0.000  0.00  0.00    -0.163 NA
ATOM      5  C   UNL d   1       4.860  -5.922   0.000  0.00  0.00     0.055 A 
ATOM      6  C   UNL d   1       4.377  -5.260   0.000  0.00  0.00     0.104 A 
ATOM      7  N   UNL d   1       6.351  -6.076   0.000  0.00  0.00    -0.227 NA
ATOM      8  C   UNL d   1       7.071  -4.839   0.000  0.00  0.00     0.057 A 
ATOM      9  C   UNL d   1       7.071  -5.664   0.000  0.00  0.00     0.086 A 
ATOM     10  C   UNL d   1       3.552  -5.264   0.000  0.00  0.00     0.023 C 
ATOM     11  C   UNL d   1       7.787  -6.088   0.000  0.00  0.00     0.021 C 
ENDROOT
BRANCH   3  12
ATOM     12  N   UNL d   1       6.351  -3.602   0.000  0.00  0.00    -0.286 N 
ATOM     13  C   UNL d   1       5.647  -3.190   0.000  0.00  0.00     0.101 A 
ATOM     14  C   UNL d   1       5.651  -2.361   0.000  0.00  0.00     0.100 A 
ATOM     15  N   UNL d   1       6.346  -1.961   0.000  0.00  0.00    -0.300 N 
ATOM     16  C   UNL d   1       7.063  -2.378   0.000  0.00  0.00     0.100 A 
ATOM     17  C   UNL d   1       7.063  -3.190   0.000  0.00  0.00     0.101 A 
BRANCH  15  18
ATOM     18  C   UNL d   1       6.326  -1.129   0.000  0.00  0.00     0.080 C 
BRANCH  18  19
ATOM     19  C   UNL d   1       7.034  -0.704   0.000  0.00  0.00     0.018 A 
ATOM     20  C   UNL d   1       7.758  -1.104   0.000  0.00  0.00     0.002 A 
ATOM     21  C   UNL d   1       8.462  -0.666   0.000  0.00  0.00     0.000 A 
ATOM     22  C   UNL d   1       8.433   0.146   0.000  0.00  0.00     0.000 A 
ATOM     23  C   UNL d   1       7.721   0.533   0.000  0.00  0.00     0.000 A 
ATOM     24  C   UNL d   1       7.013   0.108   0.000  0.00  0.00     0.002 A 
ENDBRANCH  18  19
ENDBRANCH  15  18
ENDBRANCH   3  12
BRANCH   5  25
ATOM     25  C   UNL d   1       4.522  -6.676   0.000  0.00  0.00     0.004 A 
ATOM     26  C   UNL d   1       3.702  -6.763   0.000  0.00  0.00     0.000 A 
ATOM     27  C   UNL d   1       3.365  -7.513   0.000  0.00  0.00     0.000 A 
ATOM     28  C   UNL d   1       3.852  -8.187   0.000  0.00  0.00     0.000 A 
ATOM     29  C   UNL d   1       4.672  -8.100   0.000  0.00  0.00     0.000 A 
ATOM     30  C   UNL d   1       5.010  -7.346   0.000  0.00  0.00     0.000 A 
ENDBRANCH   5  25
TORSDOF 4
