REMARK  6 active torsions:
REMARK  status: ('A' for Active; 'I' for Inactive)
REMARK    1  A    between atoms: C_10  and  C_3 
REMARK    2  A    between atoms: N_12  and  C_4 
REMARK    3  A    between atoms: N_11  and  C_14 
REMARK    4  A    between atoms: C_19  and  N_12 
REMARK    5  A    between atoms: C_14  and  C_15 
REMARK    6  A    between atoms: C_15  and  C_19 
ROOT
ATOM      1  C   UNL d   1       5.811  -5.371   0.000  0.00  0.00     0.167 A 
ATOM      2  N   UNL d   1       5.811  -4.546   0.000  0.00  0.00    -0.195 N 
ATOM      3  C   UNL d   1       5.030  -5.622   0.000  0.00  0.00     0.057 A 
ATOM      4  C   UNL d   1       6.524  -4.134   0.000  0.00  0.00     0.167 A 
ATOM      5  N   UNL d   1       5.030  -4.295   0.000  0.00  0.00    -0.161 NA
ATOM      6  N   UNL d   1       6.524  -5.784   0.000  0.00  0.00    -0.227 NA
ATOM      7  C   UNL d   1       7.241  -4.551   0.000  0.00  0.00     0.058 A 
ATOM      8  C   UNL d   1       4.551  -4.950   0.000  0.00  0.00     0.124 A 
ATOM      9  C   UNL d   1       7.241  -5.367   0.000  0.00  0.00     0.086 A 
ATOM     10  C   UNL d   1       7.967  -5.761   0.000  0.00  0.00     0.021 C 
ENDROOT
BRANCH   4  11
ATOM     11  N   UNL d   1       6.524  -3.309   0.000  0.00  0.00    -0.225 NA
BRANCH  11  12
ATOM     12  C   UNL d   1       5.811  -2.896   0.000  0.00  0.00     0.102 C 
BRANCH  12  13
ATOM     13  C   UNL d   1       5.811  -2.062   0.000  0.00  0.00     0.040 C 
BRANCH  13  14
ATOM     14  C   UNL d   1       5.098  -1.654   0.000  0.00  0.00     0.082 C 
BRANCH  14  15
ATOM     15  N   UNL d   1       5.098  -0.825   0.000  0.00  0.00    -0.299 N 
ATOM     16  C   UNL d   1       5.815  -0.408   0.000  0.00  0.00     0.107 A 
ATOM     17  C   UNL d   1       5.815   0.417   0.000  0.00  0.00     0.142 A 
ATOM     18  O   UNL d   1       5.098   0.829   0.000  0.00  0.00    -0.300 OA
ATOM     19  C   UNL d   1       4.385   0.417   0.000  0.00  0.00     0.142 A 
ATOM     20  C   UNL d   1       4.385  -0.408   0.000  0.00  0.00     0.107 A 
ENDBRANCH  14  15
ENDBRANCH  13  14
ENDBRANCH  12  13
ENDBRANCH  11  12
ENDBRANCH   4  11
BRANCH   3  21
ATOM     21  C   UNL d   1       4.847  -6.429   0.000  0.00  0.00     0.004 A 
ATOM     22  C   UNL d   1       4.067  -6.671   0.000  0.00  0.00     0.000 A 
ATOM     23  C   UNL d   1       3.878  -7.470   0.000  0.00  0.00     0.000 A 
ATOM     24  C   UNL d   1       4.492  -8.034   0.000  0.00  0.00     0.000 A 
ATOM     25  C   UNL d   1       5.277  -7.779   0.000  0.00  0.00     0.000 A 
ATOM     26  C   UNL d   1       5.452  -6.985   0.000  0.00  0.00     0.000 A 
ENDBRANCH   3  21
TORSDOF 6
