REMARK  1 active torsions:
REMARK  status: ('A' for Active; 'I' for Inactive)
REMARK    1  A    between atoms: N_3  and  C_2 
ROOT
ATOM      1  N   UNL d   1       2.050  -5.112   0.000  0.00  0.00    -0.228 NA
ATOM      2  C   UNL d   1       2.763  -4.692   0.000  0.00  0.00     0.148 A 
ATOM      3  C   UNL d   1       1.329  -4.700   0.000  0.00  0.00     0.083 A 
ATOM      4  C   UNL d   1       2.754  -3.867   0.000  0.00  0.00     0.037 A 
ATOM      5  C   UNL d   1       1.329  -3.875   0.000  0.00  0.00     0.018 A 
ATOM      6  C   UNL d   1       2.042  -3.454   0.000  0.00  0.00     0.005 A 
ATOM      7  C   UNL d   1       0.617  -5.117   0.000  0.00  0.00     0.019 A 
ATOM      8  C   UNL d   1       0.617  -3.462   0.000  0.00  0.00     0.002 A 
ATOM      9  C   UNL d   1      -0.096  -4.704   0.000  0.00  0.00     0.002 A 
ATOM     10  C   UNL d   1      -0.096  -3.875   0.000  0.00  0.00     0.000 A 
ENDROOT
BRANCH   2  11
ATOM     11  N   UNL d   1       3.479  -5.104   0.000  0.00  0.00    -0.286 N 
ATOM     12  C   UNL d   1       3.479  -5.929   0.000  0.00  0.00     0.102 A 
ATOM     13  C   UNL d   1       4.192  -6.338   0.000  0.00  0.00     0.118 A 
ATOM     14  N   UNL d   1       4.904  -5.925   0.000  0.00  0.00    -0.239 NA
ATOM     15  C   UNL d   1       4.904  -5.100   0.000  0.00  0.00     0.118 A 
ATOM     16  C   UNL d   1       4.188  -4.688   0.000  0.00  0.00     0.102 A 
ENDBRANCH   2  11
TORSDOF 1
