REMARK  6 active torsions:
REMARK  status: ('A' for Active; 'I' for Inactive)
REMARK    1  A    between atoms: C_13  and  C_3 
REMARK    2  A    between atoms: N_16  and  C_4 
REMARK    3  A    between atoms: N_11  and  C_17 
REMARK    4  A    between atoms: C_20  and  N_16 
REMARK    5  A    between atoms: C_17  and  C_18 
REMARK    6  A    between atoms: C_18  and  C_20 
ROOT
ATOM      1  C   UNL d   1       5.805  -5.245   0.000  0.00  0.00     0.167 A 
ATOM      2  N   UNL d   1       5.805  -4.421   0.000  0.00  0.00    -0.195 N 
ATOM      3  C   UNL d   1       5.026  -5.496   0.000  0.00  0.00     0.057 A 
ATOM      4  C   UNL d   1       6.518  -4.009   0.000  0.00  0.00     0.167 A 
ATOM      5  N   UNL d   1       5.026  -4.170   0.000  0.00  0.00    -0.161 NA
ATOM      6  N   UNL d   1       6.518  -5.657   0.000  0.00  0.00    -0.227 NA
ATOM      7  C   UNL d   1       7.234  -4.426   0.000  0.00  0.00     0.058 A 
ATOM      8  C   UNL d   1       4.547  -4.824   0.000  0.00  0.00     0.124 A 
ATOM      9  C   UNL d   1       7.234  -5.241   0.000  0.00  0.00     0.086 A 
ATOM     10  C   UNL d   1       7.960  -5.635   0.000  0.00  0.00     0.021 C 
ENDROOT
BRANCH   4  11
ATOM     11  N   UNL d   1       6.518  -3.185   0.000  0.00  0.00    -0.225 NA
BRANCH  11  12
ATOM     12  C   UNL d   1       5.805  -2.773   0.000  0.00  0.00     0.102 C 
BRANCH  12  13
ATOM     13  C   UNL d   1       5.805  -1.940   0.000  0.00  0.00     0.040 C 
BRANCH  13  14
ATOM     14  C   UNL d   1       5.093  -1.532   0.000  0.00  0.00     0.083 C 
BRANCH  14  15
ATOM     15  N   UNL d   1       5.093  -0.703   0.000  0.00  0.00    -0.285 N 
ATOM     16  C   UNL d   1       4.479  -0.139   0.000  0.00  0.00     0.183 A 
ATOM     17  N   UNL d   1       4.815   0.600   0.000  0.00  0.00    -0.222 NA
ATOM     18  C   UNL d   1       5.631   0.520   0.000  0.00  0.00     0.120 A 
ATOM     19  C   UNL d   1       5.805  -0.287   0.000  0.00  0.00     0.102 A 
ENDBRANCH  14  15
ENDBRANCH  13  14
ENDBRANCH  12  13
ENDBRANCH  11  12
ENDBRANCH   4  11
BRANCH   3  20
ATOM     20  C   UNL d   1       4.842  -6.303   0.000  0.00  0.00     0.004 A 
ATOM     21  C   UNL d   1       5.456  -6.858   0.000  0.00  0.00     0.000 A 
ATOM     22  C   UNL d   1       5.281  -7.660   0.000  0.00  0.00     0.000 A 
ATOM     23  C   UNL d   1       4.488  -7.915   0.000  0.00  0.00     0.000 A 
ATOM     24  C   UNL d   1       3.884  -7.355   0.000  0.00  0.00     0.000 A 
ATOM     25  C   UNL d   1       4.063  -6.549   0.000  0.00  0.00     0.000 A 
ENDBRANCH   3  20
TORSDOF 6
