REMARK  6 active torsions:
REMARK  status: ('A' for Active; 'I' for Inactive)
REMARK    1  A    between atoms: C_10  and  C_4 
REMARK    2  A    between atoms: N_12  and  C_5 
REMARK    3  A    between atoms: N_11  and  C_15 
REMARK    4  A    between atoms: C_20  and  N_12 
REMARK    5  A    between atoms: C_15  and  C_16 
REMARK    6  A    between atoms: C_16  and  C_20 
ROOT
ATOM      1  N   UNL d   1       5.639  -4.548   0.000  0.00  0.00    -0.195 N 
ATOM      2  C   UNL d   1       5.639  -5.372   0.000  0.00  0.00     0.167 A 
ATOM      3  N   UNL d   1       4.860  -4.289   0.000  0.00  0.00    -0.163 NA
ATOM      4  C   UNL d   1       4.860  -5.626   0.000  0.00  0.00     0.055 A 
ATOM      5  C   UNL d   1       6.351  -4.127   0.000  0.00  0.00     0.167 A 
ATOM      6  C   UNL d   1       4.377  -4.964   0.000  0.00  0.00     0.104 A 
ATOM      7  N   UNL d   1       6.351  -5.784   0.000  0.00  0.00    -0.227 NA
ATOM      8  C   UNL d   1       7.071  -4.548   0.000  0.00  0.00     0.058 A 
ATOM      9  C   UNL d   1       7.071  -5.372   0.000  0.00  0.00     0.086 A 
ATOM     10  C   UNL d   1       3.552  -4.964   0.000  0.00  0.00     0.023 C 
ATOM     11  C   UNL d   1       7.787  -5.788   0.000  0.00  0.00     0.021 C 
ENDROOT
BRANCH   5  12
ATOM     12  N   UNL d   1       6.351  -3.311   0.000  0.00  0.00    -0.225 NA
BRANCH  12  13
ATOM     13  C   UNL d   1       7.063  -2.898   0.000  0.00  0.00     0.102 C 
BRANCH  13  14
ATOM     14  C   UNL d   1       7.063  -2.066   0.000  0.00  0.00     0.040 C 
BRANCH  14  15
ATOM     15  C   UNL d   1       7.775  -1.653   0.000  0.00  0.00     0.082 C 
BRANCH  15  16
ATOM     16  N   UNL d   1       7.775  -0.829   0.000  0.00  0.00    -0.299 N 
ATOM     17  C   UNL d   1       8.495  -0.416   0.000  0.00  0.00     0.107 A 
ATOM     18  C   UNL d   1       8.495   0.412   0.000  0.00  0.00     0.142 A 
ATOM     19  O   UNL d   1       7.775   0.825   0.000  0.00  0.00    -0.300 OA
ATOM     20  C   UNL d   1       7.063   0.412   0.000  0.00  0.00     0.142 A 
ATOM     21  C   UNL d   1       7.063  -0.416   0.000  0.00  0.00     0.107 A 
ENDBRANCH  15  16
ENDBRANCH  14  15
ENDBRANCH  13  14
ENDBRANCH  12  13
ENDBRANCH   5  12
BRANCH   4  22
ATOM     22  C   UNL d   1       4.522  -6.376   0.000  0.00  0.00     0.004 A 
ATOM     23  C   UNL d   1       3.702  -6.463   0.000  0.00  0.00     0.000 A 
ATOM     24  C   UNL d   1       3.365  -7.221   0.000  0.00  0.00     0.000 A 
ATOM     25  C   UNL d   1       3.852  -7.887   0.000  0.00  0.00     0.000 A 
ATOM     26  C   UNL d   1       4.672  -7.800   0.000  0.00  0.00     0.000 A 
ATOM     27  C   UNL d   1       5.010  -7.050   0.000  0.00  0.00     0.000 A 
ENDBRANCH   4  22
TORSDOF 6
