REMARK  6 active torsions:
REMARK  status: ('A' for Active; 'I' for Inactive)
REMARK    1  A    between atoms: C_13  and  C_4 
REMARK    2  A    between atoms: N_16  and  C_5 
REMARK    3  A    between atoms: N_11  and  C_18 
REMARK    4  A    between atoms: C_21  and  N_16 
REMARK    5  A    between atoms: C_18  and  C_19 
REMARK    6  A    between atoms: C_19  and  C_21 
ROOT
ATOM      1  N   UNL d   1       5.639  -4.427   0.000  0.00  0.00    -0.195 N 
ATOM      2  C   UNL d   1       5.639  -5.251   0.000  0.00  0.00     0.167 A 
ATOM      3  N   UNL d   1       4.860  -4.173   0.000  0.00  0.00    -0.163 NA
ATOM      4  C   UNL d   1       4.860  -5.501   0.000  0.00  0.00     0.055 A 
ATOM      5  C   UNL d   1       6.351  -4.014   0.000  0.00  0.00     0.167 A 
ATOM      6  C   UNL d   1       4.377  -4.839   0.000  0.00  0.00     0.104 A 
ATOM      7  N   UNL d   1       6.351  -5.664   0.000  0.00  0.00    -0.227 NA
ATOM      8  C   UNL d   1       7.071  -4.427   0.000  0.00  0.00     0.058 A 
ATOM      9  C   UNL d   1       7.071  -5.251   0.000  0.00  0.00     0.086 A 
ATOM     10  C   UNL d   1       3.552  -4.847   0.000  0.00  0.00     0.023 C 
ATOM     11  C   UNL d   1       7.787  -5.672   0.000  0.00  0.00     0.021 C 
ENDROOT
BRANCH   5  12
ATOM     12  N   UNL d   1       6.351  -3.190   0.000  0.00  0.00    -0.225 NA
BRANCH  12  13
ATOM     13  C   UNL d   1       7.063  -2.778   0.000  0.00  0.00     0.102 C 
BRANCH  13  14
ATOM     14  C   UNL d   1       7.063  -1.949   0.000  0.00  0.00     0.040 C 
BRANCH  14  15
ATOM     15  C   UNL d   1       7.775  -1.537   0.000  0.00  0.00     0.083 C 
BRANCH  15  16
ATOM     16  N   UNL d   1       7.775  -0.704   0.000  0.00  0.00    -0.285 N 
ATOM     17  C   UNL d   1       7.163  -0.150   0.000  0.00  0.00     0.183 A 
ATOM     18  N   UNL d   1       7.496   0.596   0.000  0.00  0.00    -0.222 NA
ATOM     19  C   UNL d   1       8.312   0.512   0.000  0.00  0.00     0.120 A 
ATOM     20  C   UNL d   1       8.487  -0.291   0.000  0.00  0.00     0.102 A 
ENDBRANCH  15  16
ENDBRANCH  14  15
ENDBRANCH  13  14
ENDBRANCH  12  13
ENDBRANCH   5  12
BRANCH   4  21
ATOM     21  C   UNL d   1       4.522  -6.259   0.000  0.00  0.00     0.004 A 
ATOM     22  C   UNL d   1       5.010  -6.925   0.000  0.00  0.00     0.000 A 
ATOM     23  C   UNL d   1       4.672  -7.683   0.000  0.00  0.00     0.000 A 
ATOM     24  C   UNL d   1       3.852  -7.771   0.000  0.00  0.00     0.000 A 
ATOM     25  C   UNL d   1       3.365  -7.100   0.000  0.00  0.00     0.000 A 
ATOM     26  C   UNL d   1       3.702  -6.346   0.000  0.00  0.00     0.000 A 
ENDBRANCH   4  21
TORSDOF 6
