REMARK  5 active torsions:
REMARK  status: ('A' for Active; 'I' for Inactive)
REMARK    1  A    between atoms: C_12  and  C_4 
REMARK    2  A    between atoms: N_10  and  C_6 
REMARK    3  A    between atoms: C_11  and  C_9 
REMARK    4  A    between atoms: C_14  and  N_10 
REMARK    5  A    between atoms: C_15  and  C_14 
ROOT
ATOM      1  C   UNL d   1      -4.710   3.101   0.000  0.00  0.00     0.167 A 
ATOM      2  N   UNL d   1      -4.710   3.929   0.000  0.00  0.00    -0.195 N 
ATOM      3  N   UNL d   1      -6.116   3.916   0.000  0.00  0.00    -0.163 NA
ATOM      4  C   UNL d   1      -5.404   2.691   0.000  0.00  0.00     0.055 A 
ATOM      5  N   UNL d   1      -3.998   2.691   0.000  0.00  0.00    -0.231 NA
ATOM      6  C   UNL d   1      -3.998   4.326   0.000  0.00  0.00     0.167 A 
ATOM      7  C   UNL d   1      -6.116   3.101   0.000  0.00  0.00     0.104 A 
ATOM      8  C   UNL d   1      -3.282   3.916   0.000  0.00  0.00     0.054 A 
ATOM      9  C   UNL d   1      -3.282   3.101   0.000  0.00  0.00     0.063 A 
ATOM     10  C   UNL d   1      -6.823   2.700   0.000  0.00  0.00     0.023 C 
ENDROOT
BRANCH   6  11
ATOM     11  N   UNL d   1      -3.998   5.180   0.000  0.00  0.00    -0.224 NA
BRANCH  11  12
ATOM     12  C   UNL d   1      -3.476   5.840   0.000  0.00  0.00     0.120 C 
BRANCH  12  13
ATOM     13  C   UNL d   1      -3.778   6.625   0.000  0.00  0.00     0.101 A 
ATOM     14  N   UNL d   1      -3.243   7.276   0.000  0.00  0.00    -0.242 NA
ATOM     15  C   UNL d   1      -3.554   8.074   0.000  0.00  0.00     0.099 A 
ATOM     16  C   UNL d   1      -4.386   8.204   0.000  0.00  0.00     0.021 A 
ATOM     17  C   UNL d   1      -4.926   7.535   0.000  0.00  0.00     0.003 A 
ATOM     18  C   UNL d   1      -4.615   6.754   0.000  0.00  0.00     0.021 A 
ENDBRANCH  12  13
ENDBRANCH  11  12
ENDBRANCH   6  11
BRANCH   9  19
ATOM     19  C   UNL d   1      -2.545   2.674   0.000  0.00  0.00     0.036 C 
ATOM     20  C   UNL d   1      -1.820   2.247   0.000  0.00  0.00     0.006 C 
ATOM     21  C   UNL d   1      -1.807   3.101   0.000  0.00  0.00     0.006 C 
ATOM     22  C   UNL d   1      -2.558   1.825   0.000  0.00  0.00     0.006 C 
ENDBRANCH   9  19
BRANCH   4  23
ATOM     23  C   UNL d   1      -5.404   1.872   0.000  0.00  0.00     0.004 A 
ATOM     24  C   UNL d   1      -6.116   1.471   0.000  0.00  0.00     0.000 A 
ATOM     25  C   UNL d   1      -6.116   0.643   0.000  0.00  0.00     0.000 A 
ATOM     26  C   UNL d   1      -5.404   0.241   0.000  0.00  0.00     0.000 A 
ATOM     27  C   UNL d   1      -4.697   0.656   0.000  0.00  0.00     0.000 A 
ATOM     28  C   UNL d   1      -4.697   1.471   0.000  0.00  0.00     0.000 A 
ENDBRANCH   4  23
TORSDOF 5
