REMARK  5 active torsions:
REMARK  status: ('A' for Active; 'I' for Inactive)
REMARK    1  A    between atoms: C_10  and  C_4 
REMARK    2  A    between atoms: N_12  and  C_5 
REMARK    3  A    between atoms: N_11  and  C_22 
REMARK    4  A    between atoms: C_21  and  N_12 
REMARK    5  A    between atoms: C_22  and  C_21 
ROOT
ATOM      1  N   UNL d   1       6.135  -4.101   0.000  0.00  0.00    -0.195 N 
ATOM      2  C   UNL d   1       6.135  -4.925   0.000  0.00  0.00     0.167 A 
ATOM      3  N   UNL d   1       5.356  -3.850   0.000  0.00  0.00    -0.163 NA
ATOM      4  C   UNL d   1       5.356  -5.176   0.000  0.00  0.00     0.055 A 
ATOM      5  C   UNL d   1       6.848  -3.688   0.000  0.00  0.00     0.167 A 
ATOM      6  C   UNL d   1       4.880  -4.522   0.000  0.00  0.00     0.104 A 
ATOM      7  N   UNL d   1       6.848  -5.338   0.000  0.00  0.00    -0.227 NA
ATOM      8  C   UNL d   1       7.569  -4.105   0.000  0.00  0.00     0.058 A 
ATOM      9  C   UNL d   1       7.569  -4.921   0.000  0.00  0.00     0.086 A 
ATOM     10  C   UNL d   1       4.051  -4.535   0.000  0.00  0.00     0.023 C 
ATOM     11  C   UNL d   1       8.300  -5.329   0.000  0.00  0.00     0.021 C 
ENDROOT
BRANCH   5  12
ATOM     12  N   UNL d   1       6.848  -2.864   0.000  0.00  0.00    -0.224 NA
BRANCH  12  13
ATOM     13  C   UNL d   1       7.560  -2.451   0.000  0.00  0.00     0.120 C 
BRANCH  13  14
ATOM     14  C   UNL d   1       7.560  -1.618   0.000  0.00  0.00     0.101 C 
BRANCH  14  15
ATOM     15  N   UNL d   1       8.273  -1.210   0.000  0.00  0.00    -0.298 N 
ATOM     16  C   UNL d   1       8.273  -0.381   0.000  0.00  0.00     0.107 A 
ATOM     17  C   UNL d   1       8.986   0.027   0.000  0.00  0.00     0.142 A 
ATOM     18  O   UNL d   1       9.711  -0.381   0.000  0.00  0.00    -0.300 OA
ATOM     19  C   UNL d   1       9.711  -1.214   0.000  0.00  0.00     0.142 A 
ATOM     20  C   UNL d   1       8.994  -1.627   0.000  0.00  0.00     0.107 A 
ENDBRANCH  14  15
ENDBRANCH  13  14
ENDBRANCH  12  13
ENDBRANCH   5  12
BRANCH   4  21
ATOM     21  C   UNL d   1       5.019  -5.934   0.000  0.00  0.00     0.004 A 
ATOM     22  C   UNL d   1       5.512  -6.601   0.000  0.00  0.00     0.001 A 
ATOM     23  C   UNL d   1       5.176  -7.354   0.000  0.00  0.00     0.011 A 
ATOM     24  C   UNL d   1       4.356  -7.439   0.000  0.00  0.00     0.058 A 
ATOM     25  C   UNL d   1       3.863  -6.781   0.000  0.00  0.00     0.011 A 
ATOM     26 CL   UNL d   1       4.024  -8.201   0.000  0.00  0.00    -0.082 Cl
ATOM     27  C   UNL d   1       4.199  -6.023   0.000  0.00  0.00     0.001 A 
ENDBRANCH   4  21
TORSDOF 5
