REMARK  6 active torsions:
REMARK  status: ('A' for Active; 'I' for Inactive)
REMARK    1  A    between atoms: C_12  and  C_4 
REMARK    2  A    between atoms: N_16  and  C_5 
REMARK    3  A    between atoms: N_11  and  C_24 
REMARK    4  A    between atoms: C_27  and  N_16 
REMARK    5  A    between atoms: C_24  and  C_25 
REMARK    6  A    between atoms: C_25  and  C_27 
ROOT
ATOM      1  N   UNL d   1       6.125  -3.964   0.000  0.00  0.00    -0.195 N 
ATOM      2  C   UNL d   1       6.125  -4.792   0.000  0.00  0.00     0.167 A 
ATOM      3  N   UNL d   1       5.346  -3.718   0.000  0.00  0.00    -0.163 NA
ATOM      4  C   UNL d   1       5.346  -5.038   0.000  0.00  0.00     0.055 A 
ATOM      5  C   UNL d   1       6.836  -3.557   0.000  0.00  0.00     0.167 A 
ATOM      6  C   UNL d   1       4.872  -4.389   0.000  0.00  0.00     0.104 A 
ATOM      7  N   UNL d   1       6.836  -5.199   0.000  0.00  0.00    -0.227 NA
ATOM      8  C   UNL d   1       7.556  -3.973   0.000  0.00  0.00     0.058 A 
ATOM      9  C   UNL d   1       7.556  -4.783   0.000  0.00  0.00     0.086 A 
ATOM     10  C   UNL d   1       4.044  -4.402   0.000  0.00  0.00     0.023 C 
ATOM     11  C   UNL d   1       8.286  -5.199   0.000  0.00  0.00     0.021 C 
ENDROOT
BRANCH   5  12
ATOM     12  N   UNL d   1       6.836  -2.729   0.000  0.00  0.00    -0.225 NA
BRANCH  12  13
ATOM     13  C   UNL d   1       7.548  -2.322   0.000  0.00  0.00     0.102 C 
BRANCH  13  14
ATOM     14  C   UNL d   1       7.548  -1.494   0.000  0.00  0.00     0.040 C 
BRANCH  14  15
ATOM     15  C   UNL d   1       8.259  -1.078   0.000  0.00  0.00     0.083 C 
BRANCH  15  16
ATOM     16  N   UNL d   1       8.259  -0.255   0.000  0.00  0.00    -0.285 N 
ATOM     17  C   UNL d   1       7.650   0.304   0.000  0.00  0.00     0.183 A 
ATOM     18  N   UNL d   1       7.986   1.047   0.000  0.00  0.00    -0.222 NA
ATOM     19  C   UNL d   1       8.796   0.966   0.000  0.00  0.00     0.120 A 
ATOM     20  C   UNL d   1       8.970   0.157   0.000  0.00  0.00     0.102 A 
ENDBRANCH  15  16
ENDBRANCH  14  15
ENDBRANCH  13  14
ENDBRANCH  12  13
ENDBRANCH   5  12
BRANCH   4  21
ATOM     21  C   UNL d   1       5.011  -5.798   0.000  0.00  0.00     0.004 A 
ATOM     22  C   UNL d   1       4.192  -5.892   0.000  0.00  0.00     0.001 A 
ATOM     23  C   UNL d   1       3.857  -6.644   0.000  0.00  0.00     0.011 A 
ATOM     24  C   UNL d   1       4.349  -7.306   0.000  0.00  0.00     0.058 A 
ATOM     25  C   UNL d   1       5.172  -7.212   0.000  0.00  0.00     0.011 A 
ATOM     26 CL   UNL d   1       4.004  -8.071   0.000  0.00  0.00    -0.082 Cl
ATOM     27  C   UNL d   1       5.503  -6.460   0.000  0.00  0.00     0.001 A 
ENDBRANCH   4  21
TORSDOF 6
