REMARK  7 active torsions:
REMARK  status: ('A' for Active; 'I' for Inactive)
REMARK    1  A    between atoms: S_3  and  C_1 
REMARK    2  A    between atoms: C_10  and  S_3 
REMARK    3  A    between atoms: N_11  and  C_4 
REMARK    4  A    between atoms: C_9  and  C_5 
REMARK    5  A    between atoms: C_20  and  N_11 
REMARK    6  A    between atoms: C_22  and  C_20 
REMARK    7  A    between atoms: C_23  and  C_22 
ROOT
ATOM      1  C   UNL d   1      18.472   0.199   0.000  0.00  0.00     0.042 A 
ATOM      2  C   UNL d   1      17.895   0.783   0.000  0.00  0.00     0.006 A 
ATOM      3  C   UNL d   1      18.261  -0.603   0.000  0.00  0.00     0.006 A 
ATOM      4  C   UNL d   1      16.870  -0.230   0.000  0.00  0.00     0.094 A 
ATOM      5  C   UNL d   1      17.466  -0.826   0.000  0.00  0.00     0.024 A 
ATOM      6  C   UNL d   1      17.093   0.571   0.000  0.00  0.00     0.024 A 
ATOM      7  O   UNL d   1      16.069  -0.447   0.000  0.00  0.00    -0.328 OA
ATOM      8  C   UNL d   1      15.249  -0.658   0.000  0.00  0.00     0.181 C 
ENDROOT
BRANCH   1   9
ATOM      9  C   UNL d   1      19.273   0.404   0.000  0.00  0.00     0.185 A 
ATOM     10  N   UNL d   1      19.528   1.186   0.000  0.00  0.00    -0.207 NA
ATOM     11  C   UNL d   1      20.354   1.186   0.000  0.00  0.00     0.212 A 
ATOM     12  C   UNL d   1      20.596   0.404   0.000  0.00  0.00     0.213 A 
ATOM     13  O   UNL d   1      19.944  -0.081   0.000  0.00  0.00    -0.269 OA
BRANCH  11  14
ATOM     14  S   UNL d   1      20.944   1.783   0.000  0.00  0.00     0.230 S 
ATOM     15  O   UNL d   1      20.131   2.192   0.000  0.00  0.00    -0.215 OA
ATOM     16  O   UNL d   1      21.727   1.416   0.000  0.00  0.00    -0.215 OA
BRANCH  14  17
ATOM     17  C   UNL d   1      21.522   2.366   0.000  0.00  0.00     0.090 A 
ATOM     18  C   UNL d   1      22.311   2.155   0.000  0.00  0.00     0.011 A 
ATOM     19  C   UNL d   1      22.889   2.733   0.000  0.00  0.00     0.001 A 
ATOM     20  C   UNL d   1      22.677   3.522   0.000  0.00  0.00     0.000 A 
ATOM     21  C   UNL d   1      21.882   3.739   0.000  0.00  0.00     0.001 A 
ATOM     22  C   UNL d   1      21.305   3.162   0.000  0.00  0.00     0.011 A 
ENDBRANCH  14  17
ENDBRANCH  11  14
BRANCH  12  23
ATOM     23  N   UNL d   1      21.398   0.186   0.000  0.00  0.00    -0.219 NA
BRANCH  23  24
ATOM     24  C   UNL d   1      21.808  -0.522   0.000  0.00  0.00     0.101 C 
BRANCH  24  25
ATOM     25  C   UNL d   1      21.230  -1.106   0.000  0.00  0.00     0.021 C 
BRANCH  25  26
ATOM     26  C   UNL d   1      20.422  -0.894   0.000  0.00  0.00     0.002 C 
ATOM     27  C   UNL d   1      19.832  -1.478   0.000  0.00  0.00     0.000 C 
ENDBRANCH  25  26
ENDBRANCH  24  25
ENDBRANCH  23  24
ENDBRANCH  12  23
ENDBRANCH   1   9
TORSDOF 7
