REMARK  6 active torsions:
REMARK  status: ('A' for Active; 'I' for Inactive)
REMARK    1  A    between atoms: N_7  and  C_1 
REMARK    2  A    between atoms: C_6  and  C_4 
REMARK    3  A    between atoms: C_20  and  N_9 
REMARK    4  A    between atoms: C_23  and  C_13 
REMARK    5  A    between atoms: O_19  and  C_23 
REMARK    6  A    between atoms: C_21  and  O_19 
ROOT
ATOM      1  C   UNL d   1      -2.110  -0.522   0.000  0.00  0.00     0.198 A 
ATOM      2  C   UNL d   1      -1.708   0.204   0.000  0.00  0.00     0.191 A 
ATOM      3  O   UNL d   1      -1.561  -1.128   0.000  0.00  0.00    -0.268 OA
ATOM      4  C   UNL d   1      -0.830  -0.799   0.000  0.00  0.00     0.208 A 
ATOM      5  N   UNL d   1      -0.903   0.026   0.000  0.00  0.00    -0.206 NA
ATOM      6  C   UNL d   1      -2.031   0.982   0.000  0.00  0.00     0.124 C 
ATOM      7  N   UNL d   1      -2.360   1.754   0.000  0.00  0.00    -0.190 NA
ENDROOT
BRANCH   1   8
ATOM      8  N   UNL d   1      -2.940  -0.522   0.000  0.00  0.00    -0.280 N 
ATOM      9  C   UNL d   1      -3.337   0.183   0.000  0.00  0.00     0.101 A 
ATOM     10  C   UNL d   1      -4.162   0.183   0.000  0.00  0.00     0.100 A 
ATOM     11  N   UNL d   1      -4.569  -0.522   0.000  0.00  0.00    -0.301 N 
ATOM     12  C   UNL d   1      -4.162  -1.253   0.000  0.00  0.00     0.100 A 
ATOM     13  C   UNL d   1      -3.337  -1.253   0.000  0.00  0.00     0.101 A 
BRANCH  11  14
ATOM     14  C   UNL d   1      -5.389  -0.522   0.000  0.00  0.00     0.064 A 
ATOM     15  C   UNL d   1      -5.791  -1.227   0.000  0.00  0.00     0.018 A 
ATOM     16  C   UNL d   1      -6.621  -1.227   0.000  0.00  0.00     0.002 A 
ATOM     17  C   UNL d   1      -7.018  -0.522   0.000  0.00  0.00     0.000 A 
ATOM     18  C   UNL d   1      -6.621   0.204   0.000  0.00  0.00     0.002 A 
ATOM     19  C   UNL d   1      -5.791   0.204   0.000  0.00  0.00     0.018 A 
ENDBRANCH  11  14
ENDBRANCH   1   8
BRANCH   4  20
ATOM     20  C   UNL d   1       0.000  -0.726   0.000  0.00  0.00     0.141 A 
ATOM     21  O   UNL d   1       0.752  -1.050   0.000  0.00  0.00    -0.301 OA
ATOM     22  C   UNL d   1       1.274  -0.423   0.000  0.00  0.00     0.125 A 
ATOM     23  C   UNL d   1       0.898   0.277   0.000  0.00  0.00     0.029 A 
ATOM     24  C   UNL d   1       0.099   0.104   0.000  0.00  0.00     0.030 A 
BRANCH  22  25
ATOM     25  C   UNL d   1       2.104  -0.475   0.000  0.00  0.00     0.147 C 
BRANCH  25  26
ATOM     26  O   UNL d   1       2.506  -1.196   0.000  0.00  0.00    -0.303 OA
BRANCH  26  27
ATOM     27  C   UNL d   1       3.305  -1.227   0.000  0.00  0.00     0.100 A 
ATOM     28  C   UNL d   1       3.702  -1.948   0.000  0.00  0.00     0.023 A 
ATOM     29  C   UNL d   1       3.258  -2.679   0.000  0.00  0.00     0.002 C 
ATOM     30  C   UNL d   1       4.512  -2.005   0.000  0.00  0.00     0.002 A 
ATOM     31  C   UNL d   1       4.955  -1.300   0.000  0.00  0.00     0.000 A 
ATOM     32  C   UNL d   1       4.580  -0.569   0.000  0.00  0.00     0.002 A 
ATOM     33  C   UNL d   1       3.760  -0.548   0.000  0.00  0.00     0.025 A 
ENDBRANCH  26  27
ENDBRANCH  25  26
ENDBRANCH  22  25
ENDBRANCH   4  20
TORSDOF 6
