REMARK  6 active torsions:
REMARK  status: ('A' for Active; 'I' for Inactive)
REMARK    1  A    between atoms: N_7  and  C_1 
REMARK    2  A    between atoms: C_6  and  C_4 
REMARK    3  A    between atoms: C_22  and  C_12 
REMARK    4  A    between atoms: C_23  and  N_13 
REMARK    5  A    between atoms: O_17  and  C_22 
REMARK    6  A    between atoms: C_18  and  O_17 
ROOT
ATOM      1  C   UNL d   1      -0.871  -3.732   0.000  0.00  0.00     0.198 A 
ATOM      2  C   UNL d   1      -0.414  -3.063   0.000  0.00  0.00     0.191 A 
ATOM      3  O   UNL d   1      -0.361  -4.365   0.000  0.00  0.00    -0.268 OA
ATOM      4  C   UNL d   1       0.396  -4.075   0.000  0.00  0.00     0.208 A 
ATOM      5  N   UNL d   1       0.352  -3.309   0.000  0.00  0.00    -0.206 NA
ATOM      6  C   UNL d   1      -0.660  -2.253   0.000  0.00  0.00     0.124 C 
ATOM      7  N   UNL d   1      -0.915  -1.452   0.000  0.00  0.00    -0.190 NA
ENDROOT
BRANCH   1   8
ATOM      8  N   UNL d   1      -1.681  -3.908   0.000  0.00  0.00    -0.280 N 
ATOM      9  C   UNL d   1      -2.218  -3.309   0.000  0.00  0.00     0.101 A 
ATOM     10  C   UNL d   1      -3.028  -3.485   0.000  0.00  0.00     0.100 A 
ATOM     11  N   UNL d   1      -3.274  -4.234   0.000  0.00  0.00    -0.300 N 
ATOM     12  C   UNL d   1      -2.737  -4.867   0.000  0.00  0.00     0.100 A 
ATOM     13  C   UNL d   1      -1.927  -4.709   0.000  0.00  0.00     0.101 A 
BRANCH  11  14
ATOM     14  C   UNL d   1      -4.084  -4.409   0.000  0.00  0.00     0.080 C 
ATOM     15  C   UNL d   1      -4.374  -5.210   0.000  0.00  0.00     0.021 C 
ENDBRANCH  11  14
ENDBRANCH   1   8
BRANCH   4  16
ATOM     16  C   UNL d   1       1.197  -4.022   0.000  0.00  0.00     0.141 A 
ATOM     17  O   UNL d   1       2.007  -4.286   0.000  0.00  0.00    -0.301 OA
ATOM     18  C   UNL d   1       2.464  -3.600   0.000  0.00  0.00     0.125 A 
ATOM     19  C   UNL d   1       1.963  -2.966   0.000  0.00  0.00     0.029 A 
ATOM     20  C   UNL d   1       1.197  -3.230   0.000  0.00  0.00     0.030 A 
BRANCH  18  21
ATOM     21  C   UNL d   1       3.274  -3.600   0.000  0.00  0.00     0.147 C 
BRANCH  21  22
ATOM     22  O   UNL d   1       3.696  -4.286   0.000  0.00  0.00    -0.303 OA
BRANCH  22  23
ATOM     23  C   UNL d   1       4.497  -4.286   0.000  0.00  0.00     0.100 A 
ATOM     24  C   UNL d   1       4.920  -4.999   0.000  0.00  0.00     0.023 A 
ATOM     25  C   UNL d   1       4.497  -5.712   0.000  0.00  0.00     0.002 C 
ATOM     26  C   UNL d   1       5.712  -4.999   0.000  0.00  0.00     0.002 A 
ATOM     27  C   UNL d   1       6.135  -4.286   0.000  0.00  0.00     0.000 A 
ATOM     28  C   UNL d   1       5.712  -3.564   0.000  0.00  0.00     0.002 A 
ATOM     29  C   UNL d   1       4.920  -3.564   0.000  0.00  0.00     0.025 A 
ENDBRANCH  22  23
ENDBRANCH  21  22
ENDBRANCH  18  21
ENDBRANCH   4  16
TORSDOF 6
