REMARK  4 active torsions:
REMARK  status: ('A' for Active; 'I' for Inactive)
REMARK    1  A    between atoms: N_10  and  C_3 
REMARK    2  A    between atoms: C_15  and  C_5 
REMARK    3  A    between atoms: C_14  and  C_9 
REMARK       I    between atoms: C_11  and  N_12 
REMARK    4  A    between atoms: C_13  and  C_11 
ROOT
ATOM      1  N   UNL d   1      -4.756   3.968   0.000  0.00  0.00    -0.196 N 
ATOM      2  C   UNL d   1      -4.756   3.132   0.000  0.00  0.00     0.167 A 
ATOM      3  C   UNL d   1      -4.038   4.369   0.000  0.00  0.00     0.152 A 
ATOM      4  N   UNL d   1      -6.176   3.955   0.000  0.00  0.00    -0.163 NA
ATOM      5  C   UNL d   1      -5.458   2.718   0.000  0.00  0.00     0.055 A 
ATOM      6  N   UNL d   1      -4.038   2.718   0.000  0.00  0.00    -0.231 NA
ATOM      7  C   UNL d   1      -3.315   3.955   0.000  0.00  0.00     0.052 A 
ATOM      8  C   UNL d   1      -6.176   3.132   0.000  0.00  0.00     0.104 A 
ATOM      9  C   UNL d   1      -3.315   3.132   0.000  0.00  0.00     0.063 A 
ATOM     10  C   UNL d   1      -6.891   2.727   0.000  0.00  0.00     0.023 C 
ENDROOT
BRANCH   3  11
ATOM     11  N   UNL d   1      -4.038   5.231   0.000  0.00  0.00    -0.286 N 
ATOM     12  C   UNL d   1      -3.445   5.793   0.000  0.00  0.00     0.101 A 
ATOM     13  C   UNL d   1      -3.641   6.586   0.000  0.00  0.00     0.102 A 
ATOM     14  N   UNL d   1      -4.425   6.812   0.000  0.00  0.00    -0.267 N 
ATOM     15  C   UNL d   1      -4.613   7.596   0.000  0.00  0.00     0.288 C 
ATOM     16  C   UNL d   1      -5.000   6.251   0.000  0.00  0.00     0.102 A 
ATOM     17  O   UNL d   1      -5.392   7.827   0.000  0.00  0.00    -0.264 OA
ATOM     18  C   UNL d   1      -4.809   5.453   0.000  0.00  0.00     0.101 A 
BRANCH  15  19
ATOM     19  C   UNL d   1      -4.033   8.158   0.000  0.00  0.00     0.156 A 
ATOM     20  O   UNL d   1      -3.254   7.936   0.000  0.00  0.00    -0.300 OA
ATOM     21  C   UNL d   1      -2.666   8.494   0.000  0.00  0.00     0.123 A 
ATOM     22  C   UNL d   1      -2.857   9.278   0.000  0.00  0.00     0.029 A 
ATOM     23  C   UNL d   1      -4.221   8.942   0.000  0.00  0.00     0.032 A 
ENDBRANCH  15  19
ENDBRANCH   3  11
BRANCH   9  24
ATOM     24  C   UNL d   1      -2.570   2.700   0.000  0.00  0.00     0.036 C 
ATOM     25  C   UNL d   1      -1.838   2.269   0.000  0.00  0.00     0.006 C 
ATOM     26  C   UNL d   1      -1.825   3.132   0.000  0.00  0.00     0.006 C 
ATOM     27  C   UNL d   1      -2.583   1.843   0.000  0.00  0.00     0.006 C 
ENDBRANCH   9  24
BRANCH   5  28
ATOM     28  C   UNL d   1      -5.458   1.890   0.000  0.00  0.00     0.004 A 
ATOM     29  C   UNL d   1      -6.176   1.485   0.000  0.00  0.00     0.000 A 
ATOM     30  C   UNL d   1      -6.176   0.649   0.000  0.00  0.00     0.000 A 
ATOM     31  C   UNL d   1      -5.458   0.244   0.000  0.00  0.00     0.000 A 
ATOM     32  C   UNL d   1      -4.743   0.662   0.000  0.00  0.00     0.000 A 
ATOM     33  C   UNL d   1      -4.743   1.485   0.000  0.00  0.00     0.000 A 
ENDBRANCH   5  28
TORSDOF 4
