REMARK  4 active torsions:
REMARK  status: ('A' for Active; 'I' for Inactive)
REMARK    1  A    between atoms: C_11  and  C_4 
REMARK    2  A    between atoms: N_10  and  C_5 
REMARK    3  A    between atoms: C_13  and  N_10 
REMARK    4  A    between atoms: C_14  and  C_13 
ROOT
ATOM      1  N   UNL d   1       5.639  -4.127   0.000  0.00  0.00    -0.195 N 
ATOM      2  C   UNL d   1       5.639  -4.952   0.000  0.00  0.00     0.167 A 
ATOM      3  N   UNL d   1       4.860  -3.877   0.000  0.00  0.00    -0.163 NA
ATOM      4  C   UNL d   1       4.860  -5.210   0.000  0.00  0.00     0.055 A 
ATOM      5  C   UNL d   1       6.351  -3.715   0.000  0.00  0.00     0.167 A 
ATOM      6  C   UNL d   1       4.377  -4.548   0.000  0.00  0.00     0.104 A 
ATOM      7  N   UNL d   1       6.351  -5.364   0.000  0.00  0.00    -0.227 NA
ATOM      8  C   UNL d   1       7.071  -4.127   0.000  0.00  0.00     0.058 A 
ATOM      9  C   UNL d   1       7.071  -4.952   0.000  0.00  0.00     0.086 A 
ATOM     10  C   UNL d   1       3.552  -4.552   0.000  0.00  0.00     0.023 C 
ATOM     11  C   UNL d   1       7.787  -5.376   0.000  0.00  0.00     0.021 C 
ENDROOT
BRANCH   5  12
ATOM     12  N   UNL d   1       6.351  -2.890   0.000  0.00  0.00    -0.224 NA
BRANCH  12  13
ATOM     13  C   UNL d   1       7.063  -2.478   0.000  0.00  0.00     0.120 C 
BRANCH  13  14
ATOM     14  C   UNL d   1       7.063  -1.653   0.000  0.00  0.00     0.101 A 
ATOM     15  N   UNL d   1       7.783  -1.241   0.000  0.00  0.00    -0.242 NA
ATOM     16  C   UNL d   1       7.783  -0.412   0.000  0.00  0.00     0.099 A 
ATOM     17  C   UNL d   1       7.063   0.000   0.000  0.00  0.00     0.021 A 
ATOM     18  C   UNL d   1       6.351  -0.412   0.000  0.00  0.00     0.003 A 
ATOM     19  C   UNL d   1       6.351  -1.241   0.000  0.00  0.00     0.021 A 
ENDBRANCH  13  14
ENDBRANCH  12  13
ENDBRANCH   5  12
BRANCH   4  20
ATOM     20  C   UNL d   1       4.522  -5.963   0.000  0.00  0.00     0.004 A 
ATOM     21  C   UNL d   1       5.010  -6.634   0.000  0.00  0.00     0.000 A 
ATOM     22  C   UNL d   1       4.672  -7.388   0.000  0.00  0.00     0.000 A 
ATOM     23  C   UNL d   1       3.852  -7.475   0.000  0.00  0.00     0.000 A 
ATOM     24  C   UNL d   1       3.365  -6.801   0.000  0.00  0.00     0.000 A 
ATOM     25  C   UNL d   1       3.702  -6.051   0.000  0.00  0.00     0.000 A 
ENDBRANCH   4  20
TORSDOF 4
