REMARK  4 active torsions:
REMARK  status: ('A' for Active; 'I' for Inactive)
REMARK    1  A    between atoms: N_10  and  C_3 
REMARK    2  A    between atoms: C_13  and  C_5 
REMARK    3  A    between atoms: C_12  and  C_9 
REMARK    4  A    between atoms: C_19  and  N_11 
ROOT
ATOM      1  N   UNL d   1      -4.710   3.929   0.000  0.00  0.00    -0.196 N 
ATOM      2  C   UNL d   1      -4.710   3.101   0.000  0.00  0.00     0.167 A 
ATOM      3  C   UNL d   1      -3.998   4.326   0.000  0.00  0.00     0.152 A 
ATOM      4  N   UNL d   1      -6.116   3.916   0.000  0.00  0.00    -0.163 NA
ATOM      5  C   UNL d   1      -5.404   2.692   0.000  0.00  0.00     0.055 A 
ATOM      6  N   UNL d   1      -3.998   2.692   0.000  0.00  0.00    -0.231 NA
ATOM      7  C   UNL d   1      -3.282   3.916   0.000  0.00  0.00     0.052 A 
ATOM      8  C   UNL d   1      -6.116   3.101   0.000  0.00  0.00     0.104 A 
ATOM      9  C   UNL d   1      -3.282   3.101   0.000  0.00  0.00     0.063 A 
ATOM     10  C   UNL d   1      -6.824   2.700   0.000  0.00  0.00     0.023 C 
ENDROOT
BRANCH   3  11
ATOM     11  N   UNL d   1      -3.998   5.180   0.000  0.00  0.00    -0.286 N 
ATOM     12  C   UNL d   1      -3.295   5.646   0.000  0.00  0.00     0.101 A 
ATOM     13  C   UNL d   1      -3.351   6.487   0.000  0.00  0.00     0.100 A 
ATOM     14  N   UNL d   1      -4.111   6.871   0.000  0.00  0.00    -0.300 N 
ATOM     15  C   UNL d   1      -4.809   6.397   0.000  0.00  0.00     0.100 A 
ATOM     16  C   UNL d   1      -4.758   5.543   0.000  0.00  0.00     0.101 A 
BRANCH  14  17
ATOM     17  C   UNL d   1      -4.175   7.712   0.000  0.00  0.00     0.080 C 
ATOM     18  C   UNL d   1      -3.468   8.178   0.000  0.00  0.00     0.021 C 
ENDBRANCH  14  17
ENDBRANCH   3  11
BRANCH   9  19
ATOM     19  C   UNL d   1      -2.545   2.674   0.000  0.00  0.00     0.036 C 
ATOM     20  C   UNL d   1      -1.820   2.247   0.000  0.00  0.00     0.006 C 
ATOM     21  C   UNL d   1      -1.807   3.101   0.000  0.00  0.00     0.006 C 
ATOM     22  C   UNL d   1      -2.558   1.825   0.000  0.00  0.00     0.006 C 
ENDBRANCH   9  19
BRANCH   5  23
ATOM     23  C   UNL d   1      -5.404   1.872   0.000  0.00  0.00     0.004 A 
ATOM     24  C   UNL d   1      -6.116   1.471   0.000  0.00  0.00     0.000 A 
ATOM     25  C   UNL d   1      -6.116   0.643   0.000  0.00  0.00     0.000 A 
ATOM     26  C   UNL d   1      -5.404   0.241   0.000  0.00  0.00     0.000 A 
ATOM     27  C   UNL d   1      -4.697   0.656   0.000  0.00  0.00     0.000 A 
ATOM     28  C   UNL d   1      -4.697   1.471   0.000  0.00  0.00     0.000 A 
ENDBRANCH   5  23
TORSDOF 4
