REMARK  4 active torsions:
REMARK  status: ('A' for Active; 'I' for Inactive)
REMARK    1  A    between atoms: C_11  and  C_3 
REMARK    2  A    between atoms: N_10  and  C_4 
REMARK    3  A    between atoms: C_12  and  N_10 
REMARK    4  A    between atoms: C_13  and  C_12 
ROOT
ATOM      1  C   UNL d   1       5.803  -4.961   0.000  0.00  0.00     0.167 A 
ATOM      2  N   UNL d   1       5.803  -4.137   0.000  0.00  0.00    -0.195 N 
ATOM      3  C   UNL d   1       5.024  -5.212   0.000  0.00  0.00     0.057 A 
ATOM      4  C   UNL d   1       6.515  -3.725   0.000  0.00  0.00     0.167 A 
ATOM      5  N   UNL d   1       5.024  -3.887   0.000  0.00  0.00    -0.161 NA
ATOM      6  N   UNL d   1       6.515  -5.373   0.000  0.00  0.00    -0.227 NA
ATOM      7  C   UNL d   1       7.231  -4.142   0.000  0.00  0.00     0.058 A 
ATOM      8  C   UNL d   1       4.545  -4.540   0.000  0.00  0.00     0.124 A 
ATOM      9  C   UNL d   1       7.231  -4.957   0.000  0.00  0.00     0.086 A 
ATOM     10  C   UNL d   1       7.957  -5.351   0.000  0.00  0.00     0.021 C 
ENDROOT
BRANCH   4  11
ATOM     11  N   UNL d   1       6.515  -2.901   0.000  0.00  0.00    -0.225 NA
BRANCH  11  12
ATOM     12  C   UNL d   1       5.803  -2.490   0.000  0.00  0.00     0.101 C 
BRANCH  12  13
ATOM     13  C   UNL d   1       5.803  -1.657   0.000  0.00  0.00     0.019 A 
ATOM     14  C   UNL d   1       6.519  -1.240   0.000  0.00  0.00     0.002 A 
ATOM     15  C   UNL d   1       6.519  -0.421   0.000  0.00  0.00     0.000 A 
ATOM     16  C   UNL d   1       5.803  -0.004   0.000  0.00  0.00     0.000 A 
ATOM     17  C   UNL d   1       5.091  -0.421   0.000  0.00  0.00     0.000 A 
ATOM     18  C   UNL d   1       5.091  -1.249   0.000  0.00  0.00     0.002 A 
ENDBRANCH  12  13
ENDBRANCH  11  12
ENDBRANCH   4  11
BRANCH   3  19
ATOM     19  C   UNL d   1       4.840  -6.018   0.000  0.00  0.00     0.004 A 
ATOM     20  C   UNL d   1       5.454  -6.573   0.000  0.00  0.00     0.000 A 
ATOM     21  C   UNL d   1       5.279  -7.375   0.000  0.00  0.00     0.000 A 
ATOM     22  C   UNL d   1       4.487  -7.630   0.000  0.00  0.00     0.000 A 
ATOM     23  C   UNL d   1       3.882  -7.070   0.000  0.00  0.00     0.000 A 
ATOM     24  C   UNL d   1       4.061  -6.264   0.000  0.00  0.00     0.000 A 
ENDBRANCH   3  19
TORSDOF 4
