REMARK  3 active torsions:
REMARK  status: ('A' for Active; 'I' for Inactive)
REMARK    1  A    between atoms: N_10  and  C_3 
REMARK    2  A    between atoms: C_13  and  C_5 
REMARK    3  A    between atoms: C_12  and  C_9 
ROOT
ATOM      1  N   UNL d   1       5.787  -3.904   0.000  0.00  0.00    -0.196 N 
ATOM      2  C   UNL d   1       5.787  -4.724   0.000  0.00  0.00     0.167 A 
ATOM      3  C   UNL d   1       6.499  -3.487   0.000  0.00  0.00     0.152 A 
ATOM      4  N   UNL d   1       5.007  -3.649   0.000  0.00  0.00    -0.163 NA
ATOM      5  C   UNL d   1       5.007  -4.980   0.000  0.00  0.00     0.055 A 
ATOM      6  N   UNL d   1       6.499  -5.141   0.000  0.00  0.00    -0.231 NA
ATOM      7  C   UNL d   1       7.212  -3.904   0.000  0.00  0.00     0.052 A 
ATOM      8  C   UNL d   1       4.523  -4.321   0.000  0.00  0.00     0.104 A 
ATOM      9  C   UNL d   1       7.212  -4.724   0.000  0.00  0.00     0.063 A 
ATOM     10  C   UNL d   1       3.702  -4.334   0.000  0.00  0.00     0.023 C 
ENDROOT
BRANCH   3  11
ATOM     11  N   UNL d   1       6.499  -2.667   0.000  0.00  0.00    -0.286 N 
ATOM     12  C   UNL d   1       7.212  -2.250   0.000  0.00  0.00     0.101 A 
ATOM     13  C   UNL d   1       7.212  -1.425   0.000  0.00  0.00     0.100 A 
ATOM     14  N   UNL d   1       6.499  -1.013   0.000  0.00  0.00    -0.299 N 
ATOM     15  C   UNL d   1       5.787  -1.425   0.000  0.00  0.00     0.100 A 
ATOM     16  C   UNL d   1       6.499  -0.188   0.000  0.00  0.00     0.100 C 
ATOM     17  C   UNL d   1       5.787  -2.250   0.000  0.00  0.00     0.101 A 
ENDBRANCH   3  11
BRANCH   9  18
ATOM     18  C   UNL d   1       7.947  -5.137   0.000  0.00  0.00     0.036 C 
ATOM     19  C   UNL d   1       8.673  -5.545   0.000  0.00  0.00     0.006 C 
ATOM     20  C   UNL d   1       8.355  -4.410   0.000  0.00  0.00     0.006 C 
ATOM     21  C   UNL d   1       7.535  -5.863   0.000  0.00  0.00     0.006 C 
ENDBRANCH   9  18
BRANCH   5  22
ATOM     22  C   UNL d   1       4.670  -5.733   0.000  0.00  0.00     0.004 A 
ATOM     23  C   UNL d   1       3.846  -5.827   0.000  0.00  0.00     0.000 A 
ATOM     24  C   UNL d   1       3.514  -6.580   0.000  0.00  0.00     0.000 A 
ATOM     25  C   UNL d   1       3.998  -7.252   0.000  0.00  0.00     0.000 A 
ATOM     26  C   UNL d   1       4.827  -7.158   0.000  0.00  0.00     0.000 A 
ATOM     27  C   UNL d   1       5.155  -6.401   0.000  0.00  0.00     0.000 A 
ENDBRANCH   5  22
TORSDOF 3
