REMARK  3 active torsions:
REMARK  status: ('A' for Active; 'I' for Inactive)
REMARK    1  A    between atoms: N_9  and  C_3 
REMARK    2  A    between atoms: C_12  and  C_5 
REMARK    3  A    between atoms: C_17  and  N_10 
ROOT
ATOM      1  N   UNL d   1       5.642  -4.412   0.000  0.00  0.00    -0.196 N 
ATOM      2  C   UNL d   1       5.642  -5.237   0.000  0.00  0.00     0.167 A 
ATOM      3  C   UNL d   1       6.354  -4.000   0.000  0.00  0.00     0.152 A 
ATOM      4  N   UNL d   1       4.862  -4.154   0.000  0.00  0.00    -0.163 NA
ATOM      5  C   UNL d   1       4.862  -5.492   0.000  0.00  0.00     0.055 A 
ATOM      6  C   UNL d   1       4.379  -4.829   0.000  0.00  0.00     0.104 A 
ATOM      7  N   UNL d   1       6.354  -5.650   0.000  0.00  0.00    -0.227 NA
ATOM      8  C   UNL d   1       7.075  -4.412   0.000  0.00  0.00     0.057 A 
ATOM      9  C   UNL d   1       7.075  -5.237   0.000  0.00  0.00     0.086 A 
ATOM     10  C   UNL d   1       3.554  -4.829   0.000  0.00  0.00     0.023 C 
ATOM     11  C   UNL d   1       7.792  -5.654   0.000  0.00  0.00     0.021 C 
ENDROOT
BRANCH   3  12
ATOM     12  N   UNL d   1       6.354  -3.167   0.000  0.00  0.00    -0.286 N 
ATOM     13  C   UNL d   1       7.075  -2.754   0.000  0.00  0.00     0.101 A 
ATOM     14  C   UNL d   1       7.075  -1.929   0.000  0.00  0.00     0.100 A 
ATOM     15  N   UNL d   1       6.354  -1.517   0.000  0.00  0.00    -0.301 N 
ATOM     16  C   UNL d   1       5.642  -1.929   0.000  0.00  0.00     0.100 A 
ATOM     17  C   UNL d   1       5.642  -2.754   0.000  0.00  0.00     0.101 A 
BRANCH  15  18
ATOM     18  C   UNL d   1       6.354  -0.688   0.000  0.00  0.00     0.064 A 
ATOM     19  C   UNL d   1       7.067  -0.275   0.000  0.00  0.00     0.018 A 
ATOM     20  C   UNL d   1       6.892   0.533   0.000  0.00  0.00     0.002 A 
ATOM     21  C   UNL d   1       6.075   0.613   0.000  0.00  0.00     0.002 A 
ATOM     22  C   UNL d   1       5.742  -0.129   0.000  0.00  0.00     0.018 A 
ENDBRANCH  15  18
ENDBRANCH   3  12
BRANCH   5  23
ATOM     23  C   UNL d   1       4.525  -6.242   0.000  0.00  0.00     0.004 A 
ATOM     24  C   UNL d   1       5.013  -6.917   0.000  0.00  0.00     0.000 A 
ATOM     25  C   UNL d   1       4.675  -7.667   0.000  0.00  0.00     0.000 A 
ATOM     26  C   UNL d   1       3.854  -7.754   0.000  0.00  0.00     0.000 A 
ATOM     27  C   UNL d   1       3.367  -7.088   0.000  0.00  0.00     0.000 A 
ATOM     28  C   UNL d   1       3.704  -6.329   0.000  0.00  0.00     0.000 A 
ENDBRANCH   5  23
TORSDOF 3
