REMARK  1 active torsions:
REMARK  status: ('A' for Active; 'I' for Inactive)
REMARK    1  A    between atoms: C_6  and  C_1 
ROOT
ATOM      1  C   UNL d   1       6.344  -2.749   0.000  0.00  0.00     0.168 A 
ATOM      2  C   UNL d   1       5.560  -3.002   0.000  0.00  0.00     0.045 A 
ATOM      3  N   UNL d   1       6.833  -3.413   0.000  0.00  0.00    -0.142 NA
ATOM      4  N   UNL d   1       6.348  -4.084   0.000  0.00  0.00    -0.148 NA
ATOM      5  C   UNL d   1       5.552  -3.823   0.000  0.00  0.00     0.105 A 
ATOM      6  C   UNL d   1       4.843  -2.591   0.000  0.00  0.00     0.003 A 
ATOM      7  C   UNL d   1       4.843  -4.246   0.000  0.00  0.00     0.021 A 
ATOM      8  C   UNL d   1       4.130  -3.002   0.000  0.00  0.00     0.000 A 
ATOM      9  C   UNL d   1       4.130  -3.831   0.000  0.00  0.00     0.002 A 
ATOM     10  C   UNL d   1       3.413  -2.591   0.000  0.00  0.00     0.000 C 
ENDROOT
BRANCH   1  11
ATOM     11  C   UNL d   1       6.597  -1.965   0.000  0.00  0.00     0.231 C 
ATOM     12  O   UNL d   1       6.045  -1.348   0.000  0.00  0.00    -0.643 OA
ATOM     13  O   UNL d   1       7.405  -1.791   0.000  0.00  0.00    -0.643 OA
ENDBRANCH   1  11
TORSDOF 1
