REMARK  6 active torsions:
REMARK  status: ('A' for Active; 'I' for Inactive)
REMARK    1  A    between atoms: N_7  and  C_1 
REMARK    2  A    between atoms: C_6  and  C_4 
REMARK    3  A    between atoms: C_19  and  N_9 
REMARK    4  A    between atoms: C_21  and  C_13 
REMARK    5  A    between atoms: O_20  and  C_21 
REMARK    6  A    between atoms: C_22  and  O_20 
ROOT
ATOM      1  C   UNL d   1      -2.108  -0.518   0.000  0.00  0.00     0.198 A 
ATOM      2  C   UNL d   1      -1.679   0.228   0.000  0.00  0.00     0.191 A 
ATOM      3  O   UNL d   1      -1.533  -1.119   0.000  0.00  0.00    -0.268 OA
ATOM      4  C   UNL d   1      -0.808  -0.767   0.000  0.00  0.00     0.208 A 
ATOM      5  N   UNL d   1      -0.886   0.026   0.000  0.00  0.00    -0.206 NA
ATOM      6  C   UNL d   1      -2.031   0.974   0.000  0.00  0.00     0.124 C 
ATOM      7  N   UNL d   1      -2.357   1.741   0.000  0.00  0.00    -0.190 NA
ENDROOT
BRANCH   1   8
ATOM      8  N   UNL d   1      -2.922  -0.518   0.000  0.00  0.00    -0.280 N 
ATOM      9  C   UNL d   1      -3.352   0.181   0.000  0.00  0.00     0.101 A 
ATOM     10  C   UNL d   1      -4.165   0.181   0.000  0.00  0.00     0.100 A 
ATOM     11  N   UNL d   1      -4.564  -0.544   0.000  0.00  0.00    -0.301 N 
ATOM     12  C   UNL d   1      -4.144  -1.264   0.000  0.00  0.00     0.100 A 
ATOM     13  C   UNL d   1      -3.321  -1.243   0.000  0.00  0.00     0.101 A 
BRANCH  11  14
ATOM     14  C   UNL d   1      -5.388  -0.565   0.000  0.00  0.00     0.064 A 
ATOM     15  C   UNL d   1      -5.808  -1.290   0.000  0.00  0.00     0.018 A 
ATOM     16  C   UNL d   1      -6.631  -1.311   0.000  0.00  0.00     0.002 A 
ATOM     17  C   UNL d   1      -7.051  -0.596   0.000  0.00  0.00     0.000 A 
ATOM     18  C   UNL d   1      -6.652   0.124   0.000  0.00  0.00     0.002 A 
ATOM     19  C   UNL d   1      -5.808   0.150   0.000  0.00  0.00     0.018 A 
ENDBRANCH  11  14
ENDBRANCH   1   8
BRANCH   4  20
ATOM     20  C   UNL d   1       0.005  -0.689   0.000  0.00  0.00     0.141 A 
ATOM     21  O   UNL d   1       0.782  -1.016   0.000  0.00  0.00    -0.301 OA
ATOM     22  C   UNL d   1       1.326  -0.394   0.000  0.00  0.00     0.125 A 
ATOM     23  C   UNL d   1       0.932   0.306   0.000  0.00  0.00     0.029 A 
ATOM     24  C   UNL d   1       0.109   0.104   0.000  0.00  0.00     0.030 A 
BRANCH  22  25
ATOM     25  C   UNL d   1       2.150  -0.440   0.000  0.00  0.00     0.147 C 
BRANCH  25  26
ATOM     26  O   UNL d   1       2.549  -1.166   0.000  0.00  0.00    -0.303 OA
BRANCH  26  27
ATOM     27  C   UNL d   1       3.362  -1.218   0.000  0.00  0.00     0.100 A 
ATOM     28  C   UNL d   1       3.766  -1.932   0.000  0.00  0.00     0.025 A 
ATOM     29  C   UNL d   1       4.585  -1.964   0.000  0.00  0.00     0.002 A 
ATOM     30  C   UNL d   1       5.010  -2.679   0.000  0.00  0.00     0.000 C 
ATOM     31  C   UNL d   1       5.010  -1.264   0.000  0.00  0.00     0.000 A 
ATOM     32  C   UNL d   1       4.606  -0.518   0.000  0.00  0.00     0.002 A 
ATOM     33  C   UNL d   1       3.792  -0.497   0.000  0.00  0.00     0.025 A 
ENDBRANCH  26  27
ENDBRANCH  25  26
ENDBRANCH  22  25
ENDBRANCH   4  20
TORSDOF 6
