REMARK  4 active torsions:
REMARK  status: ('A' for Active; 'I' for Inactive)
REMARK    1  A    between atoms: C_2  and  N_1 
REMARK       I    between atoms: C_3  and  N_1 
REMARK    2  A    between atoms: C_4  and  C_3 
REMARK    3  A    between atoms: C_6  and  C_4 
REMARK    4  A    between atoms: C_10  and  C_6 
ROOT
ATOM      1  N   UNL d   1       2.938   0.200   0.000  0.00  0.00    -0.208 NA
ATOM      2  C   UNL d   1       2.217   0.608   0.000  0.00  0.00     0.279 C 
ATOM      3  O   UNL d   1       2.217   1.433   0.000  0.00  0.00    -0.265 OA
ENDROOT
BRANCH   1   4
ATOM      4  C   UNL d   1       3.650   0.621   0.000  0.00  0.00     0.085 A 
ATOM      5  C   UNL d   1       4.354   0.208   0.000  0.00  0.00     0.021 A 
ATOM      6  C   UNL d   1       5.075   0.621   0.000  0.00  0.00     0.021 A 
ATOM      7  C   UNL d   1       4.362  -0.617   0.000  0.00  0.00     0.022 A 
ATOM      8  C   UNL d   1       5.779   0.212   0.000  0.00  0.00     0.099 A 
ATOM      9  C   UNL d   1       5.067   1.446   0.000  0.00  0.00     0.002 A 
ATOM     10  N   UNL d   1       5.787  -0.604   0.000  0.00  0.00    -0.242 NA
ATOM     11  C   UNL d   1       5.075  -1.025   0.000  0.00  0.00     0.099 A 
ATOM     12  C   UNL d   1       4.350   1.858   0.000  0.00  0.00     0.002 A 
ATOM     13  C   UNL d   1       3.642   1.438   0.000  0.00  0.00     0.019 A 
ENDBRANCH   1   4
BRANCH   2  14
ATOM     14  C   UNL d   1       1.504   0.196   0.000  0.00  0.00     0.062 C 
BRANCH  14  15
ATOM     15  C   UNL d   1       0.792   0.608   0.000  0.00  0.00     0.005 C 
BRANCH  15  16
ATOM     16  C   UNL d   1       0.079   0.188   0.000  0.00  0.00     0.000 A 
ATOM     17  C   UNL d   1      -0.637   0.600   0.000  0.00  0.00     0.000 A 
ATOM     18  C   UNL d   1      -1.350   0.188   0.000  0.00  0.00     0.000 A 
ATOM     19  C   UNL d   1      -1.350  -0.642   0.000  0.00  0.00     0.000 A 
ATOM     20  C   UNL d   1      -0.637  -1.054   0.000  0.00  0.00     0.000 A 
ATOM     21  C   UNL d   1       0.079  -0.642   0.000  0.00  0.00     0.000 A 
ENDBRANCH  15  16
ENDBRANCH  14  15
ENDBRANCH   2  14
TORSDOF 4
