REMARK  3 active torsions:
REMARK  status: ('A' for Active; 'I' for Inactive)
REMARK    1  A    between atoms: C_6  and  C_1 
REMARK    2  A    between atoms: N_7  and  C_2 
REMARK       I    between atoms: C_8  and  N_9 
REMARK    3  A    between atoms: C_11  and  C_8 
ROOT
ATOM      1  C   UNL d   1       1.254   1.603   0.000  0.00  0.00     0.186 A 
ATOM      2  C   UNL d   1      -0.026   1.259   0.000  0.00  0.00     0.197 A 
ATOM      3  C   UNL d   1       0.021   2.076   0.000  0.00  0.00     0.191 A 
ATOM      4  O   UNL d   1       0.761   0.966   0.000  0.00  0.00    -0.270 OA
ATOM      5  N   UNL d   1       0.838   2.297   0.000  0.00  0.00    -0.208 NA
ATOM      6  C   UNL d   1      -0.642   2.616   0.000  0.00  0.00     0.124 C 
ATOM      7  N   UNL d   1      -1.290   3.160   0.000  0.00  0.00    -0.190 NA
ENDROOT
BRANCH   2   8
ATOM      8  N   UNL d   1      -0.843   1.043   0.000  0.00  0.00    -0.280 N 
ATOM      9  C   UNL d   1      -1.434   1.629   0.000  0.00  0.00     0.101 A 
ATOM     10  C   UNL d   1      -2.220   1.434   0.000  0.00  0.00     0.102 A 
ATOM     11  N   UNL d   1      -2.467   0.617   0.000  0.00  0.00    -0.267 N 
ATOM     12  C   UNL d   1      -3.309   0.447   0.000  0.00  0.00     0.288 C 
ATOM     13  C   UNL d   1      -1.850   0.000   0.000  0.00  0.00     0.102 A 
ATOM     14  O   UNL d   1      -3.880   1.064   0.000  0.00  0.00    -0.264 OA
ATOM     15  C   UNL d   1      -1.043   0.247   0.000  0.00  0.00     0.101 A 
BRANCH  12  16
ATOM     16  C   UNL d   1      -3.556  -0.370   0.000  0.00  0.00     0.156 A 
ATOM     17  O   UNL d   1      -3.160  -1.084   0.000  0.00  0.00    -0.300 OA
ATOM     18  C   UNL d   1      -3.725  -1.701   0.000  0.00  0.00     0.123 A 
ATOM     19  C   UNL d   1      -4.465  -1.357   0.000  0.00  0.00     0.029 A 
ATOM     20  C   UNL d   1      -4.373  -0.540   0.000  0.00  0.00     0.032 A 
ENDBRANCH  12  16
ENDBRANCH   2   8
BRANCH   1  21
ATOM     21  C   UNL d   1       2.071   1.829   0.000  0.00  0.00     0.052 A 
ATOM     22  C   UNL d   1       2.657   1.233   0.000  0.00  0.00     0.061 A 
ATOM     23 CL   UNL d   1       2.379   0.457   0.000  0.00  0.00    -0.082 Cl
ATOM     24  C   UNL d   1       3.453   1.434   0.000  0.00  0.00     0.011 A 
ATOM     25  C   UNL d   1       3.674   2.220   0.000  0.00  0.00     0.001 A 
ATOM     26  C   UNL d   1       3.104   2.816   0.000  0.00  0.00     0.000 A 
ATOM     27  C   UNL d   1       2.318   2.616   0.000  0.00  0.00     0.004 A 
ENDBRANCH   1  21
TORSDOF 3
