REMARK  4 active torsions:
REMARK  status: ('A' for Active; 'I' for Inactive)
REMARK    1  A    between atoms: C_11  and  C_4 
REMARK    2  A    between atoms: N_10  and  C_5 
REMARK    3  A    between atoms: C_15  and  N_10 
REMARK    4  A    between atoms: C_16  and  C_15 
ROOT
ATOM      1  N   UNL d   1       6.131  -3.686   0.000  0.00  0.00    -0.195 N 
ATOM      2  C   UNL d   1       6.131  -4.506   0.000  0.00  0.00     0.167 A 
ATOM      3  N   UNL d   1       5.352  -3.440   0.000  0.00  0.00    -0.163 NA
ATOM      4  C   UNL d   1       5.352  -4.761   0.000  0.00  0.00     0.055 A 
ATOM      5  C   UNL d   1       6.844  -3.279   0.000  0.00  0.00     0.167 A 
ATOM      6  C   UNL d   1       4.877  -4.112   0.000  0.00  0.00     0.104 A 
ATOM      7  N   UNL d   1       6.844  -4.922   0.000  0.00  0.00    -0.227 NA
ATOM      8  C   UNL d   1       7.565  -3.695   0.000  0.00  0.00     0.058 A 
ATOM      9  C   UNL d   1       7.565  -4.506   0.000  0.00  0.00     0.086 A 
ATOM     10  C   UNL d   1       4.049  -4.125   0.000  0.00  0.00     0.023 C 
ATOM     11  C   UNL d   1       8.295  -4.922   0.000  0.00  0.00     0.021 C 
ENDROOT
BRANCH   5  12
ATOM     12  N   UNL d   1       6.844  -2.450   0.000  0.00  0.00    -0.224 NA
BRANCH  12  13
ATOM     13  C   UNL d   1       7.556  -2.042   0.000  0.00  0.00     0.120 C 
BRANCH  13  14
ATOM     14  C   UNL d   1       7.556  -1.214   0.000  0.00  0.00     0.101 A 
ATOM     15  N   UNL d   1       8.277  -0.797   0.000  0.00  0.00    -0.242 NA
ATOM     16  C   UNL d   1       8.277   0.027   0.000  0.00  0.00     0.099 A 
ATOM     17  C   UNL d   1       7.556   0.439   0.000  0.00  0.00     0.021 A 
ATOM     18  C   UNL d   1       6.844   0.027   0.000  0.00  0.00     0.003 A 
ATOM     19  C   UNL d   1       6.844  -0.797   0.000  0.00  0.00     0.021 A 
ENDBRANCH  13  14
ENDBRANCH  12  13
ENDBRANCH   5  12
BRANCH   4  20
ATOM     20  C   UNL d   1       5.016  -5.522   0.000  0.00  0.00     0.004 A 
ATOM     21  C   UNL d   1       4.197  -5.616   0.000  0.00  0.00     0.001 A 
ATOM     22  C   UNL d   1       3.861  -6.369   0.000  0.00  0.00     0.011 A 
ATOM     23  C   UNL d   1       4.353  -7.032   0.000  0.00  0.00     0.058 A 
ATOM     24  C   UNL d   1       5.178  -6.938   0.000  0.00  0.00     0.011 A 
ATOM     25 CL   UNL d   1       4.009  -7.798   0.000  0.00  0.00    -0.082 Cl
ATOM     26  C   UNL d   1       5.509  -6.185   0.000  0.00  0.00     0.001 A 
ENDBRANCH   4  20
TORSDOF 4
