REMARK  2 active torsions:
REMARK  status: ('A' for Active; 'I' for Inactive)
REMARK    1  A    between atoms: N_9  and  C_3 
REMARK    2  A    between atoms: C_11  and  C_4 
ROOT
ATOM      1  N   UNL d   1       5.804  -3.498   0.000  0.00  0.00    -0.196 N 
ATOM      2  C   UNL d   1       5.804  -4.318   0.000  0.00  0.00     0.167 A 
ATOM      3  C   UNL d   1       6.517  -3.082   0.000  0.00  0.00     0.153 A 
ATOM      4  C   UNL d   1       5.025  -4.573   0.000  0.00  0.00     0.057 A 
ATOM      5  N   UNL d   1       5.025  -3.243   0.000  0.00  0.00    -0.161 NA
ATOM      6  N   UNL d   1       6.517  -4.734   0.000  0.00  0.00    -0.227 NA
ATOM      7  C   UNL d   1       7.233  -3.498   0.000  0.00  0.00     0.057 A 
ATOM      8  C   UNL d   1       4.546  -3.914   0.000  0.00  0.00     0.124 A 
ATOM      9  C   UNL d   1       7.233  -4.318   0.000  0.00  0.00     0.086 A 
ATOM     10  C   UNL d   1       7.959  -4.730   0.000  0.00  0.00     0.021 C 
ENDROOT
BRANCH   3  11
ATOM     11  N   UNL d   1       6.517  -2.262   0.000  0.00  0.00    -0.285 N 
ATOM     12  C   UNL d   1       7.233  -1.845   0.000  0.00  0.00     0.108 A 
ATOM     13  C   UNL d   1       7.233  -1.021   0.000  0.00  0.00     0.142 A 
ATOM     14  O   UNL d   1       6.517  -0.609   0.000  0.00  0.00    -0.300 OA
ATOM     15  C   UNL d   1       5.804  -1.021   0.000  0.00  0.00     0.142 A 
ATOM     16  C   UNL d   1       5.804  -1.845   0.000  0.00  0.00     0.108 A 
ENDBRANCH   3  11
BRANCH   4  17
ATOM     17  C   UNL d   1       4.689  -5.325   0.000  0.00  0.00     0.004 A 
ATOM     18  C   UNL d   1       3.861  -5.419   0.000  0.00  0.00     0.000 A 
ATOM     19  C   UNL d   1       3.534  -6.172   0.000  0.00  0.00     0.000 A 
ATOM     20  C   UNL d   1       4.022  -6.844   0.000  0.00  0.00     0.000 A 
ATOM     21  C   UNL d   1       4.842  -6.750   0.000  0.00  0.00     0.000 A 
ATOM     22  C   UNL d   1       5.178  -5.993   0.000  0.00  0.00     0.000 A 
ENDBRANCH   4  17
TORSDOF 2
