REMARK  3 active torsions:
REMARK  status: ('A' for Active; 'I' for Inactive)
REMARK    1  A    between atoms: N_9  and  C_3 
REMARK    2  A    between atoms: C_14  and  C_5 
REMARK       I    between atoms: C_10  and  N_11 
REMARK    3  A    between atoms: C_13  and  C_10 
ROOT
ATOM      1  N   UNL d   1       5.639  -4.615   0.000  0.00  0.00    -0.196 N 
ATOM      2  C   UNL d   1       5.639  -5.439   0.000  0.00  0.00     0.167 A 
ATOM      3  C   UNL d   1       6.351  -4.202   0.000  0.00  0.00     0.152 A 
ATOM      4  N   UNL d   1       4.860  -4.361   0.000  0.00  0.00    -0.163 NA
ATOM      5  C   UNL d   1       4.860  -5.689   0.000  0.00  0.00     0.055 A 
ATOM      6  C   UNL d   1       4.377  -5.027   0.000  0.00  0.00     0.104 A 
ATOM      7  N   UNL d   1       6.351  -5.851   0.000  0.00  0.00    -0.227 NA
ATOM      8  C   UNL d   1       7.072  -4.615   0.000  0.00  0.00     0.057 A 
ATOM      9  C   UNL d   1       7.072  -5.439   0.000  0.00  0.00     0.086 A 
ATOM     10  C   UNL d   1       3.553  -5.035   0.000  0.00  0.00     0.023 C 
ATOM     11  C   UNL d   1       7.788  -5.860   0.000  0.00  0.00     0.021 C 
ENDROOT
BRANCH   3  12
ATOM     12  N   UNL d   1       6.351  -3.373   0.000  0.00  0.00    -0.286 N 
ATOM     13  C   UNL d   1       7.051  -2.940   0.000  0.00  0.00     0.101 A 
ATOM     14  C   UNL d   1       7.026  -2.116   0.000  0.00  0.00     0.102 A 
ATOM     15  N   UNL d   1       6.314  -1.724   0.000  0.00  0.00    -0.267 N 
ATOM     16  C   UNL d   1       6.297  -0.891   0.000  0.00  0.00     0.288 C 
ATOM     17  C   UNL d   1       5.602  -2.153   0.000  0.00  0.00     0.102 A 
ATOM     18  O   UNL d   1       5.585  -0.487   0.000  0.00  0.00    -0.264 OA
ATOM     19  C   UNL d   1       5.627  -2.978   0.000  0.00  0.00     0.101 A 
BRANCH  16  20
ATOM     20  C   UNL d   1       7.009  -0.475   0.000  0.00  0.00     0.156 A 
ATOM     21  O   UNL d   1       7.788  -0.716   0.000  0.00  0.00    -0.300 OA
ATOM     22  C   UNL d   1       8.259  -0.042   0.000  0.00  0.00     0.123 A 
ATOM     23  C   UNL d   1       7.784   0.608   0.000  0.00  0.00     0.029 A 
ATOM     24  C   UNL d   1       7.001   0.350   0.000  0.00  0.00     0.032 A 
ENDBRANCH  16  20
ENDBRANCH   3  12
BRANCH   5  25
ATOM     25  C   UNL d   1       4.523  -6.447   0.000  0.00  0.00     0.004 A 
ATOM     26  C   UNL d   1       5.010  -7.113   0.000  0.00  0.00     0.000 A 
ATOM     27  C   UNL d   1       4.673  -7.871   0.000  0.00  0.00     0.000 A 
ATOM     28  C   UNL d   1       3.852  -7.959   0.000  0.00  0.00     0.000 A 
ATOM     29  C   UNL d   1       3.365  -7.288   0.000  0.00  0.00     0.000 A 
ATOM     30  C   UNL d   1       3.703  -6.535   0.000  0.00  0.00     0.000 A 
ENDBRANCH   5  25
TORSDOF 3
