REMARK  4 active torsions:
REMARK  status: ('A' for Active; 'I' for Inactive)
REMARK       I    between atoms: N_3  and  C_1 
REMARK    1  A    between atoms: C_4  and  C_1 
REMARK    2  A    between atoms: N_2  and  C_4 
REMARK    3  A    between atoms: C_6  and  N_3 
REMARK    4  A    between atoms: O_17  and  C_9 
ROOT
ATOM      1  C   UNL d   1       4.791  -1.488   0.000  0.00  0.00     0.297 C 
ATOM      2  N   UNL d   1       5.202  -2.206   0.000  0.00  0.00    -0.207 NA
ATOM      3  O   UNL d   1       3.968  -1.488   0.000  0.00  0.00    -0.264 OA
ENDROOT
BRANCH   1   4
ATOM      4  C   UNL d   1       5.202  -0.777   0.000  0.00  0.00     0.144 C 
BRANCH   4   5
ATOM      5  N   UNL d   1       6.037  -0.777   0.000  0.00  0.00    -0.299 N 
ATOM      6  C   UNL d   1       6.457  -1.500   0.000  0.00  0.00     0.080 A 
ATOM      7  C   UNL d   1       7.284  -1.508   0.000  0.00  0.00     0.019 A 
ATOM      8  C   UNL d   1       7.707  -0.785   0.000  0.00  0.00     0.003 A 
ATOM      9  C   UNL d   1       7.292  -0.054   0.000  0.00  0.00     0.019 A 
ATOM     10  C   UNL d   1       8.530  -0.789   0.000  0.00  0.00     0.000 C 
ATOM     11  C   UNL d   1       6.449  -0.054   0.000  0.00  0.00     0.080 A 
ENDBRANCH   4   5
ENDBRANCH   1   4
BRANCH   2  12
ATOM     12  C   UNL d   1       4.791  -2.917   0.000  0.00  0.00     0.085 A 
ATOM     13  C   UNL d   1       5.202  -3.619   0.000  0.00  0.00     0.021 A 
ATOM     14  C   UNL d   1       4.791  -4.338   0.000  0.00  0.00     0.026 A 
ATOM     15  C   UNL d   1       3.968  -4.338   0.000  0.00  0.00     0.094 A 
ATOM     16  C   UNL d   1       3.557  -3.627   0.000  0.00  0.00     0.026 A 
ATOM     17  C   UNL d   1       3.968  -2.909   0.000  0.00  0.00     0.021 A 
BRANCH  15  18
ATOM     18  O   UNL d   1       3.553  -5.048   0.000  0.00  0.00    -0.328 OA
ATOM     19  C   UNL d   1       2.730  -5.048   0.000  0.00  0.00     0.181 C 
ENDBRANCH  15  18
ENDBRANCH   2  12
TORSDOF 4
