REMARK  4 active torsions:
REMARK  status: ('A' for Active; 'I' for Inactive)
REMARK    1  A    between atoms: C_2  and  S_1 
REMARK    2  A    between atoms: N_3  and  S_1 
REMARK    3  A    between atoms: C_16  and  C_7 
REMARK    4  A    between atoms: O_17  and  C_8 
ROOT
ATOM      1  C   UNL d   1       6.418  -2.334   0.000  0.00  0.00     0.126 A 
ATOM      2  C   UNL d   1       6.827  -3.048   0.000  0.00  0.00     0.015 A 
ATOM      3  C   UNL d   1       7.645  -3.044   0.000  0.00  0.00     0.001 A 
ATOM      4  C   UNL d   1       6.818  -1.620   0.000  0.00  0.00     0.106 A 
ATOM      5  C   UNL d   1       8.058  -2.330   0.000  0.00  0.00     0.002 A 
ATOM      6  C   UNL d   1       7.641  -1.616   0.000  0.00  0.00     0.025 A 
ENDROOT
BRANCH   1   7
ATOM      7  S   UNL d   1       5.591  -2.334   0.000  0.00  0.00     0.273 S 
ATOM      8  O   UNL d   1       5.591  -3.161   0.000  0.00  0.00    -0.200 OA
ATOM      9  O   UNL d   1       5.591  -1.507   0.000  0.00  0.00    -0.200 OA
BRANCH   7  10
ATOM     10  N   UNL d   1       4.764  -2.334   0.000  0.00  0.00    -0.226 N 
ATOM     11  C   UNL d   1       4.351  -1.620   0.000  0.00  0.00     0.111 A 
ATOM     12  C   UNL d   1       3.532  -1.616   0.000  0.00  0.00     0.100 A 
ATOM     13  N   UNL d   1       3.111  -2.330   0.000  0.00  0.00    -0.299 N 
ATOM     14  C   UNL d   1       3.524  -3.048   0.000  0.00  0.00     0.100 A 
ATOM     15  C   UNL d   1       2.284  -2.321   0.000  0.00  0.00     0.100 C 
ATOM     16  C   UNL d   1       4.351  -3.048   0.000  0.00  0.00     0.111 A 
ENDBRANCH   7  10
ENDBRANCH   1   7
BRANCH   4  17
ATOM     17  O   UNL d   1       6.392  -0.906   0.000  0.00  0.00    -0.327 OA
ATOM     18  C   UNL d   1       6.802  -0.192   0.000  0.00  0.00     0.181 C 
ENDBRANCH   4  17
BRANCH   3  19
ATOM     19  C   UNL d   1       8.058  -3.758   0.000  0.00  0.00     0.000 C 
ATOM     20  C   UNL d   1       7.653  -4.472   0.000  0.00  0.00     0.000 C 
ATOM     21  C   UNL d   1       8.885  -3.749   0.000  0.00  0.00     0.000 C 
ENDBRANCH   3  19
TORSDOF 4
