REMARK  4 active torsions:
REMARK  status: ('A' for Active; 'I' for Inactive)
REMARK    1  A    between atoms: C_10  and  N_3 
REMARK    2  A    between atoms: C_11  and  C_6 
REMARK    3  A    between atoms: C_16  and  C_10 
REMARK    4  A    between atoms: N_17  and  C_16 
ROOT
ATOM      1  C   UNL d   1       9.423  -4.287   0.000  0.00  0.00     0.083 A 
ATOM      2  C   UNL d   1       9.423  -5.100   0.000  0.00  0.00     0.161 A 
ATOM      3  N   UNL d   1      10.670  -4.694   0.000  0.00  0.00    -0.270 N 
ATOM      4  C   UNL d   1      10.196  -5.353   0.000  0.00  0.00     0.288 A 
ATOM      5  C   UNL d   1       8.718  -3.867   0.000  0.00  0.00     0.201 A 
ATOM      6  C   UNL d   1      10.196  -4.038   0.000  0.00  0.00     0.072 A 
ATOM      7  O   UNL d   1       8.705  -5.507   0.000  0.00  0.00    -0.302 OA
ATOM      8  C   UNL d   1       8.009  -4.282   0.000  0.00  0.00     0.062 A 
ATOM      9  C   UNL d   1       8.009  -5.100   0.000  0.00  0.00     0.103 A 
ATOM     10  O   UNL d   1      10.448  -6.144   0.000  0.00  0.00    -0.264 OA
ATOM     11  O   UNL d   1       8.718  -3.040   0.000  0.00  0.00    -0.286 OA
ATOM     12  C   UNL d   1       7.295  -3.867   0.000  0.00  0.00     0.005 A 
ATOM     13  C   UNL d   1       7.295  -5.507   0.000  0.00  0.00     0.025 A 
ATOM     14  C   UNL d   1       6.600  -4.282   0.000  0.00  0.00     0.000 A 
ATOM     15  C   UNL d   1       6.600  -5.100   0.000  0.00  0.00     0.002 A 
ENDROOT
BRANCH   6  16
ATOM     16  C   UNL d   1      10.453  -3.244   0.000  0.00  0.00     0.017 A 
ATOM     17  C   UNL d   1       9.898  -2.634   0.000  0.00  0.00     0.004 A 
ATOM     18  C   UNL d   1      10.155  -1.848   0.000  0.00  0.00     0.030 A 
ATOM     19  C   UNL d   1      10.977  -1.671   0.000  0.00  0.00     0.140 A 
ATOM     20  C   UNL d   1      11.524  -2.290   0.000  0.00  0.00     0.030 A 
ATOM     21  F   UNL d   1      11.235  -0.881   0.000  0.00  0.00    -0.204 F 
ATOM     22  C   UNL d   1      11.266  -3.081   0.000  0.00  0.00     0.004 A 
ENDBRANCH   6  16
BRANCH   3  23
ATOM     23  C   UNL d   1      11.506  -4.694   0.000  0.00  0.00     0.102 C 
BRANCH  23  24
ATOM     24  C   UNL d   1      11.917  -5.421   0.000  0.00  0.00     0.100 C 
BRANCH  24  25
ATOM     25  N   UNL d   1      12.752  -5.421   0.000  0.00  0.00    -0.299 N 
ATOM     26  C   UNL d   1      13.164  -6.144   0.000  0.00  0.00     0.100 C 
ATOM     27  C   UNL d   1      13.164  -4.702   0.000  0.00  0.00     0.100 C 
ENDBRANCH  24  25
ENDBRANCH  23  24
ENDBRANCH   3  23
TORSDOF 4
