REMARK  7 active torsions:
REMARK  status: ('A' for Active; 'I' for Inactive)
REMARK    1  A    between atoms: C_14  and  N_3 
REMARK    2  A    between atoms: C_10  and  C_6 
REMARK    3  A    between atoms: C_15  and  C_14 
REMARK    4  A    between atoms: C_20  and  C_15 
REMARK    5  A    between atoms: N_16  and  C_20 
REMARK    6  A    between atoms: C_23  and  N_16 
REMARK    7  A    between atoms: C_24  and  N_16 
ROOT
ATOM      1  C   UNL d   1       5.403  -7.050   0.000  0.00  0.00     0.083 A 
ATOM      2  C   UNL d   1       5.403  -7.864   0.000  0.00  0.00     0.161 A 
ATOM      3  N   UNL d   1       6.656  -7.466   0.000  0.00  0.00    -0.272 N 
ATOM      4  C   UNL d   1       6.176  -8.122   0.000  0.00  0.00     0.288 A 
ATOM      5  C   UNL d   1       4.697  -6.638   0.000  0.00  0.00     0.201 A 
ATOM      6  C   UNL d   1       6.181  -6.805   0.000  0.00  0.00     0.074 A 
ATOM      7  O   UNL d   1       4.688  -8.271   0.000  0.00  0.00    -0.302 OA
ATOM      8  C   UNL d   1       3.982  -7.050   0.000  0.00  0.00     0.062 A 
ATOM      9  C   UNL d   1       3.982  -7.864   0.000  0.00  0.00     0.103 A 
ATOM     10  O   UNL d   1       6.425  -8.909   0.000  0.00  0.00    -0.264 OA
ATOM     11  O   UNL d   1       4.697  -5.801   0.000  0.00  0.00    -0.286 OA
ATOM     12  C   UNL d   1       3.276  -6.638   0.000  0.00  0.00     0.005 A 
ATOM     13  C   UNL d   1       3.276  -8.271   0.000  0.00  0.00     0.025 A 
ATOM     14  C   UNL d   1       2.570  -7.050   0.000  0.00  0.00     0.000 A 
ATOM     15  C   UNL d   1       2.570  -7.864   0.000  0.00  0.00     0.002 A 
ENDROOT
BRANCH   3  16
ATOM     16  C   UNL d   1       7.484  -7.466   0.000  0.00  0.00     0.085 C 
BRANCH  16  17
ATOM     17  C   UNL d   1       7.905  -8.190   0.000  0.00  0.00     0.038 C 
BRANCH  17  18
ATOM     18  C   UNL d   1       8.733  -8.190   0.000  0.00  0.00     0.082 C 
BRANCH  18  19
ATOM     19  N   UNL d   1       9.149  -8.909   0.000  0.00  0.00    -0.302 N 
BRANCH  19  20
ATOM     20  C   UNL d   1       8.733  -9.629   0.000  0.00  0.00     0.080 C 
ATOM     21  C   UNL d   1       7.900  -9.629   0.000  0.00  0.00     0.021 C 
ENDBRANCH  19  20
BRANCH  19  22
ATOM     22  C   UNL d   1       9.982  -8.909   0.000  0.00  0.00     0.080 C 
ATOM     23  C   UNL d   1      10.402  -8.190   0.000  0.00  0.00     0.021 C 
ENDBRANCH  19  22
ENDBRANCH  18  19
ENDBRANCH  17  18
ENDBRANCH  16  17
ENDBRANCH   3  16
BRANCH   6  24
ATOM     24  C   UNL d   1       6.439  -6.013   0.000  0.00  0.00     0.036 A 
ATOM     25  C   UNL d   1       7.253  -5.841   0.000  0.00  0.00     0.100 A 
ATOM     26  N   UNL d   1       7.511  -5.054   0.000  0.00  0.00    -0.242 NA
ATOM     27  C   UNL d   1       6.955  -4.430   0.000  0.00  0.00     0.099 A 
ATOM     28  C   UNL d   1       6.140  -4.606   0.000  0.00  0.00     0.021 A 
ATOM     29  C   UNL d   1       5.882  -5.394   0.000  0.00  0.00     0.005 A 
ENDBRANCH   6  24
TORSDOF 7
