REMARK  3 active torsions:
REMARK  status: ('A' for Active; 'I' for Inactive)
REMARK    1  A    between atoms: C_2  and  C_1 
REMARK    2  A    between atoms: N_3  and  C_1 
REMARK    3  A    between atoms: C_13  and  N_3 
ROOT
ATOM      1  C   UNL d   1       1.292  -1.675   0.000  0.00  0.00     0.030 A 
ATOM      2  C   UNL d   1       0.579  -0.429   0.000  0.00  0.00     0.119 A 
ATOM      3  C   UNL d   1       1.292  -0.842   0.000  0.00  0.00     0.029 A 
ATOM      4  C   UNL d   1      -0.133  -0.850   0.000  0.00  0.00     0.119 A 
ATOM      5  O   UNL d   1       0.400   0.408   0.000  0.00  0.00    -0.300 OA
ATOM      6  O   UNL d   1      -0.758  -0.263   0.000  0.00  0.00    -0.300 OA
ATOM      7  C   UNL d   1      -0.412   0.458   0.000  0.00  0.00     0.304 A 
ATOM      8  C   UNL d   1       0.579  -2.087   0.000  0.00  0.00     0.004 A 
ATOM      9  C   UNL d   1      -0.133  -1.675   0.000  0.00  0.00     0.026 A 
ENDROOT
BRANCH   1  10
ATOM     10  C   UNL d   1       2.004  -2.087   0.000  0.00  0.00     0.136 C 
ATOM     11  S   UNL d   1       2.004  -2.913   0.000  0.00  0.00    -0.057 SA
BRANCH  10  12
ATOM     12  N   UNL d   1       2.725  -1.667   0.000  0.00  0.00    -0.235 NA
BRANCH  12  13
ATOM     13  C   UNL d   1       3.442  -2.079   0.000  0.00  0.00     0.082 A 
ATOM     14  C   UNL d   1       4.150  -1.667   0.000  0.00  0.00     0.019 A 
ATOM     15  C   UNL d   1       4.867  -2.079   0.000  0.00  0.00     0.002 A 
ATOM     16  C   UNL d   1       4.867  -2.904   0.000  0.00  0.00     0.000 A 
ATOM     17  C   UNL d   1       4.150  -3.317   0.000  0.00  0.00     0.002 A 
ATOM     18  C   UNL d   1       3.438  -2.904   0.000  0.00  0.00     0.019 A 
ENDBRANCH  12  13
ENDBRANCH  10  12
ENDBRANCH   1  10
TORSDOF 3
