REMARK  2 active torsions:
REMARK  status: ('A' for Active; 'I' for Inactive)
REMARK    1  A    between atoms: N_2  and  C_1 
REMARK    2  A    between atoms: C_4  and  C_1 
ROOT
ATOM      1  C   UNL d   1       2.457  -0.104   0.000  0.00  0.00     0.120 C 
ATOM      2  S   UNL d   1       2.457   0.722   0.000  0.00  0.00    -0.059 SA
ENDROOT
BRANCH   1   3
ATOM      3  N   UNL d   1       3.178  -0.517   0.000  0.00  0.00    -0.293 N 
ATOM      4  C   UNL d   1       3.178  -1.343   0.000  0.00  0.00     0.100 A 
ATOM      5  C   UNL d   1       3.892  -1.756   0.000  0.00  0.00     0.100 A 
ATOM      6  N   UNL d   1       4.605  -1.343   0.000  0.00  0.00    -0.299 N 
ATOM      7  C   UNL d   1       4.605  -0.517   0.000  0.00  0.00     0.100 A 
ATOM      8  C   UNL d   1       5.322  -1.756   0.000  0.00  0.00     0.100 C 
ATOM      9  C   UNL d   1       3.883  -0.104   0.000  0.00  0.00     0.100 A 
ENDBRANCH   1   3
BRANCH   1  10
ATOM     10  C   UNL d   1       1.744  -0.525   0.000  0.00  0.00     0.027 A 
ATOM     11  C   UNL d   1       1.744  -1.356   0.000  0.00  0.00     0.003 A 
ATOM     12  C   UNL d   1       1.030  -1.768   0.000  0.00  0.00     0.007 A 
ATOM     13  C   UNL d   1       0.317  -1.356   0.000  0.00  0.00     0.035 A 
ATOM     14  C   UNL d   1       0.317  -0.525   0.000  0.00  0.00     0.007 A 
ATOM     15 BR   UNL d   1      -0.400  -1.768   0.000  0.00  0.00    -0.049 Br
ATOM     16  C   UNL d   1       1.030  -0.113   0.000  0.00  0.00     0.003 A 
ENDBRANCH   1  10
TORSDOF 2
