REMARK  0 active torsions:
REMARK  status: ('A' for Active; 'I' for Inactive)
ROOT
ATOM      1  C   UNL d   1       3.729  -1.101   0.000  0.00  0.00     0.116 A 
ATOM      2  C   UNL d   1       3.750  -1.926   0.000  0.00  0.00     0.192 A 
ATOM      3  N   UNL d   1       5.171  -1.879   0.000  0.00  0.00    -0.145 NA
ATOM      4  C   UNL d   1       3.002  -0.727   0.000  0.00  0.00     0.285 A 
ATOM      5  N   UNL d   1       3.066  -2.360   0.000  0.00  0.00    -0.203 NA
ATOM      6  N   UNL d   1       4.469  -2.313   0.000  0.00  0.00    -0.128 NA
ATOM      7  N   UNL d   1       2.300  -1.165   0.000  0.00  0.00    -0.185 NA
ATOM      8  C   UNL d   1       2.339  -1.982   0.000  0.00  0.00     0.203 A 
ATOM      9  C   UNL d   1       5.145  -1.063   0.000  0.00  0.00     0.130 A 
ATOM     10  O   UNL d   1       2.964   0.098   0.000  0.00  0.00    -0.265 OA
ENDROOT
TORSDOF 0
