REMARK  1 active torsions:
REMARK  status: ('A' for Active; 'I' for Inactive)
REMARK    1  A    between atoms: C_7  and  C_4 
ROOT
ATOM      1  N   UNL d   1       3.354  -1.392   0.000  0.00  0.00    -0.242 NA
ATOM      2  C   UNL d   1       4.062  -0.142   0.000  0.00  0.00     0.156 A 
ATOM      3  N   UNL d   1       3.342   0.263   0.000  0.00  0.00    -0.231 NA
ATOM      4  C   UNL d   1       4.067  -0.975   0.000  0.00  0.00     0.110 A 
ATOM      5  C   UNL d   1       2.638  -0.979   0.000  0.00  0.00     0.099 A 
ATOM      6  C   UNL d   1       2.638  -0.154   0.000  0.00  0.00     0.100 A 
ATOM      7 CL   UNL d   1       4.775   0.271   0.000  0.00  0.00    -0.060 Cl
ATOM      8  C   UNL d   1       1.917  -1.392   0.000  0.00  0.00     0.021 A 
ATOM      9  C   UNL d   1       1.917   0.258   0.000  0.00  0.00     0.021 A 
ATOM     10  C   UNL d   1       1.204  -0.154   0.000  0.00  0.00     0.002 A 
ATOM     11  C   UNL d   1       1.204  -0.979   0.000  0.00  0.00     0.002 A 
ENDROOT
BRANCH   4  12
ATOM     12  C   UNL d   1       4.779  -1.379   0.000  0.00  0.00     0.020 A 
ATOM     13  C   UNL d   1       5.487  -0.967   0.000  0.00  0.00     0.002 A 
ATOM     14  C   UNL d   1       6.204  -1.367   0.000  0.00  0.00     0.000 A 
ATOM     15  C   UNL d   1       6.213  -2.200   0.000  0.00  0.00     0.000 A 
ATOM     16  C   UNL d   1       5.492  -2.617   0.000  0.00  0.00     0.000 A 
ATOM     17  C   UNL d   1       6.929  -2.612   0.000  0.00  0.00     0.000 C 
ATOM     18  C   UNL d   1       4.779  -2.204   0.000  0.00  0.00     0.002 A 
ENDBRANCH   4  12
TORSDOF 1
