REMARK  1 active torsions:
REMARK  status: ('A' for Active; 'I' for Inactive)
REMARK    1  A    between atoms: C_5  and  C_8 
ROOT
ATOM      1  C   UNL d   1       5.504  -3.242   0.000  0.00  0.00     0.084 A 
ATOM      2  C   UNL d   1       5.504  -2.419   0.000  0.00  0.00     0.057 A 
ATOM      3  N   UNL d   1       6.215  -3.654   0.000  0.00  0.00    -0.245 NA
ATOM      4  C   UNL d   1       6.210  -2.000   0.000  0.00  0.00     0.199 A 
ATOM      5  C   UNL d   1       6.926  -2.411   0.000  0.00  0.00     0.061 A 
ATOM      6  C   UNL d   1       6.926  -3.234   0.000  0.00  0.00     0.085 A 
ATOM      7  C   UNL d   1       4.078  -3.247   0.000  0.00  0.00     0.073 A 
ATOM      8  C   UNL d   1       4.789  -3.658   0.000  0.00  0.00     0.023 A 
ATOM      9  C   UNL d   1       4.789  -2.008   0.000  0.00  0.00     0.005 A 
ATOM     10  O   UNL d   1       6.202  -1.176   0.000  0.00  0.00    -0.286 OA
ATOM     11  C   UNL d   1       4.078  -2.419   0.000  0.00  0.00     0.004 A 
ATOM     12  C   UNL d   1       7.645  -3.646   0.000  0.00  0.00     0.021 C 
ENDROOT
BRANCH   7  13
ATOM     13  C   UNL d   1       3.359  -3.658   0.000  0.00  0.00     0.419 C 
ATOM     14  F   UNL d   1       2.710  -4.032   0.000  0.00  0.00    -0.166 F 
ATOM     15  F   UNL d   1       2.557  -3.346   0.000  0.00  0.00    -0.166 F 
ATOM     16  F   UNL d   1       3.222  -4.506   0.000  0.00  0.00    -0.166 F 
ENDBRANCH   7  13
TORSDOF 1
