REMARK  1 active torsions:
REMARK  status: ('A' for Active; 'I' for Inactive)
REMARK    1  A    between atoms: C_13  and  N_5 
ROOT
ATOM      1  C   UNL d   1       2.146  -0.954   0.000  0.00  0.00     0.170 A 
ATOM      2  C   UNL d   1       2.151  -0.156   0.000  0.00  0.00     0.093 A 
ATOM      3  C   UNL d   1       2.840   0.247   0.000  0.00  0.00     0.172 A 
ATOM      4  N   UNL d   1       3.529  -0.156   0.000  0.00  0.00    -0.190 N 
ATOM      5  N   UNL d   1       1.448  -1.357   0.000  0.00  0.00    -0.212 N 
ATOM      6  N   UNL d   1       2.840  -1.357   0.000  0.00  0.00    -0.205 NA
ATOM      7  N   UNL d   1       2.840   1.049   0.000  0.00  0.00    -0.206 NA
ATOM      8  N   UNL d   1       0.759  -0.941   0.000  0.00  0.00    -0.162 NA
ATOM      9  N   UNL d   1       4.219   0.243   0.000  0.00  0.00    -0.143 NA
ATOM     10  C   UNL d   1       3.525  -0.954   0.000  0.00  0.00     0.203 A 
ATOM     11  C   UNL d   1       0.767  -0.147   0.000  0.00  0.00     0.127 A 
ATOM     12  C   UNL d   1       4.219   1.036   0.000  0.00  0.00     0.184 A 
ATOM     13  C   UNL d   1       4.830   1.647   0.000  0.00  0.00     0.044 C 
ENDROOT
BRANCH   5  14
ATOM     14  C   UNL d   1       1.448  -2.176   0.000  0.00  0.00     0.085 A 
ATOM     15  C   UNL d   1       2.151  -2.580   0.000  0.00  0.00     0.019 A 
ATOM     16  C   UNL d   1       2.151  -3.412   0.000  0.00  0.00     0.002 A 
ATOM     17  C   UNL d   1       2.892  -3.854   0.000  0.00  0.00     0.000 C 
ATOM     18  C   UNL d   1       1.431  -3.828   0.000  0.00  0.00     0.000 A 
ATOM     19  C   UNL d   1       0.720  -3.399   0.000  0.00  0.00     0.002 A 
ATOM     20  C   UNL d   1       1.418  -4.683   0.000  0.00  0.00     0.000 C 
ATOM     21  C   UNL d   1       0.728  -2.580   0.000  0.00  0.00     0.019 A 
ENDBRANCH   5  14
TORSDOF 1
