REMARK  2 active torsions:
REMARK  status: ('A' for Active; 'I' for Inactive)
REMARK    1  A    between atoms: C_13  and  N_5 
REMARK    2  A    between atoms: C_19  and  C_12 
ROOT
ATOM      1  C   UNL d   1       2.152  -0.960   0.000  0.00  0.00     0.170 A 
ATOM      2  C   UNL d   1       2.161  -0.157   0.000  0.00  0.00     0.093 A 
ATOM      3  N   UNL d   1       3.549  -0.157   0.000  0.00  0.00    -0.256 N 
ATOM      4  C   UNL d   1       2.859   0.258   0.000  0.00  0.00     0.176 A 
ATOM      5  N   UNL d   1       1.458  -1.362   0.000  0.00  0.00    -0.212 N 
ATOM      6  N   UNL d   1       2.855  -1.362   0.000  0.00  0.00    -0.206 NA
ATOM      7  N   UNL d   1       2.859   1.056   0.000  0.00  0.00    -0.128 NA
ATOM      8  N   UNL d   1       0.764  -0.947   0.000  0.00  0.00    -0.162 NA
ATOM      9  C   UNL d   1       3.540  -0.960   0.000  0.00  0.00     0.187 A 
ATOM     10  N   UNL d   1       4.247   1.043   0.000  0.00  0.00    -0.128 NA
ATOM     11  C   UNL d   1       0.764  -0.148   0.000  0.00  0.00     0.127 A 
ATOM     12  C   UNL d   1       4.243   0.244   0.000  0.00  0.00     0.172 A 
ENDROOT
BRANCH   5  13
ATOM     13  C   UNL d   1       1.458  -2.187   0.000  0.00  0.00     0.085 A 
ATOM     14  C   UNL d   1       2.165  -2.597   0.000  0.00  0.00     0.019 A 
ATOM     15  C   UNL d   1       2.161  -3.435   0.000  0.00  0.00     0.002 A 
ATOM     16  C   UNL d   1       2.912  -3.881   0.000  0.00  0.00     0.000 C 
ATOM     17  C   UNL d   1       1.440  -3.850   0.000  0.00  0.00     0.000 A 
ATOM     18  C   UNL d   1       0.720  -3.422   0.000  0.00  0.00     0.002 A 
ATOM     19  C   UNL d   1       1.432  -4.719   0.000  0.00  0.00     0.000 C 
ATOM     20  C   UNL d   1       0.725  -2.597   0.000  0.00  0.00     0.019 A 
ENDBRANCH   5  13
BRANCH  12  21
ATOM     21  C   UNL d   1       4.941  -0.157   0.000  0.00  0.00     0.039 C 
ATOM     22  C   UNL d   1       5.631   0.244   0.000  0.00  0.00     0.003 C 
ENDBRANCH  12  21
TORSDOF 2
