REMARK  5 active torsions:
REMARK  status: ('A' for Active; 'I' for Inactive)
REMARK    1  A    between atoms: C_2  and  C_3 
REMARK    2  A    between atoms: S_14  and  C_6 
REMARK    3  A    between atoms: C_7  and  N_12 
REMARK       I    between atoms: N_12  and  C_13 
REMARK    4  A    between atoms: C_13  and  C_20 
REMARK    5  A    between atoms: C_20  and  S_14 
ROOT
ATOM      1  N   UNL d   1       2.964  -4.062   0.000  0.00  0.00    -0.208 NA
ATOM      2  C   UNL d   1       2.189  -4.350   0.000  0.00  0.00     0.286 C 
ATOM      3  O   UNL d   1       2.065  -5.170   0.000  0.00  0.00    -0.265 OA
ENDROOT
BRANCH   2   4
ATOM      4  C   UNL d   1       1.561  -3.833   0.000  0.00  0.00     0.099 C 
BRANCH   4   5
ATOM      5  S   UNL d   1       1.690  -3.022   0.000  0.00  0.00    -0.061 SA
BRANCH   5   6
ATOM      6  C   UNL d   1       1.053  -2.497   0.000  0.00  0.00     0.133 A 
ATOM      7  C   UNL d   1       0.279  -2.789   0.000  0.00  0.00     0.143 A 
ATOM      8  C   UNL d   1      -0.358  -2.264   0.000  0.00  0.00     0.185 A 
ATOM      9  N   UNL d   1      -0.021  -3.559   0.000  0.00  0.00    -0.219 NA
ATOM     10  N   UNL d   1      -1.045  -2.714   0.000  0.00  0.00    -0.203 NA
ATOM     11  N   UNL d   1      -0.225  -1.453   0.000  0.00  0.00    -0.203 NA
ATOM     12  C   UNL d   1      -0.837  -3.509   0.000  0.00  0.00     0.201 A 
ATOM     13  C   UNL d   1       0.541  -1.161   0.000  0.00  0.00     0.201 A 
ATOM     14  N   UNL d   1       1.186  -1.677   0.000  0.00  0.00    -0.216 NA
ENDBRANCH   5   6
ENDBRANCH   4   5
ENDBRANCH   2   4
BRANCH   1  15
ATOM     15  C   UNL d   1       3.609  -4.583   0.000  0.00  0.00     0.088 A 
ATOM     16  C   UNL d   1       4.375  -4.287   0.000  0.00  0.00     0.089 A 
ATOM     17  C   UNL d   1       5.011  -4.808   0.000  0.00  0.00     0.005 A 
ATOM     18  C   UNL d   1       4.883  -5.623   0.000  0.00  0.00     0.000 A 
ATOM     19  C   UNL d   1       4.112  -5.919   0.000  0.00  0.00     0.002 A 
ATOM     20  C   UNL d   1       3.471  -5.394   0.000  0.00  0.00     0.019 A 
BRANCH  16  21
ATOM     21  C   UNL d   1       4.508  -3.471   0.000  0.00  0.00     0.420 C 
ATOM     22  F   UNL d   1       4.624  -2.726   0.000  0.00  0.00    -0.166 F 
ATOM     23  F   UNL d   1       5.249  -3.039   0.000  0.00  0.00    -0.166 F 
ATOM     24  F   UNL d   1       3.933  -2.835   0.000  0.00  0.00    -0.166 F 
ENDBRANCH  16  21
ENDBRANCH   1  15
TORSDOF 5
