REMARK  5 active torsions:
REMARK  status: ('A' for Active; 'I' for Inactive)
REMARK    1  A    between atoms: S_10  and  C_1 
REMARK    2  A    between atoms: C_2  and  C_3 
REMARK    3  A    between atoms: C_13  and  C_6 
REMARK       I    between atoms: N_8  and  C_9 
REMARK    4  A    between atoms: C_9  and  C_11 
REMARK    5  A    between atoms: C_11  and  S_10 
ROOT
ATOM      1  C   UNL d   1       1.653  -0.405   0.000  0.00  0.00     0.194 A 
ATOM      2  C   UNL d   1       0.217  -0.405   0.000  0.00  0.00     0.156 A 
ATOM      3  N   UNL d   1       0.931  -0.818   0.000  0.00  0.00    -0.217 NA
ATOM      4  N   UNL d   1       1.653   0.401   0.000  0.00  0.00    -0.221 NA
ATOM      5  C   UNL d   1       0.931   0.814   0.000  0.00  0.00     0.085 A 
ATOM      6  C   UNL d   1       0.217   0.401   0.000  0.00  0.00     0.042 A 
ENDROOT
BRANCH   1   7
ATOM      7  S   UNL d   1       2.372  -0.831   0.000  0.00  0.00    -0.043 SA
BRANCH   7   8
ATOM      8  C   UNL d   1       2.372  -1.658   0.000  0.00  0.00     0.099 C 
BRANCH   8   9
ATOM      9  C   UNL d   1       3.086  -2.071   0.000  0.00  0.00     0.272 C 
ATOM     10  N   UNL d   1       3.808  -1.658   0.000  0.00  0.00    -0.267 N 
ATOM     11  C   UNL d   1       3.808  -0.831   0.000  0.00  0.00     0.110 A 
ATOM     12  C   UNL d   1       4.509  -2.071   0.000  0.00  0.00     0.110 A 
ATOM     13  C   UNL d   1       4.509  -0.418   0.000  0.00  0.00     0.142 A 
ATOM     14  O   UNL d   1       5.228  -0.831   0.000  0.00  0.00    -0.300 OA
ATOM     15  C   UNL d   1       5.228  -1.658   0.000  0.00  0.00     0.142 A 
ATOM     16  O   UNL d   1       3.086  -2.906   0.000  0.00  0.00    -0.266 OA
ENDBRANCH   8   9
ENDBRANCH   7   8
ENDBRANCH   1   7
BRANCH   2  17
ATOM     17  C   UNL d   1      -0.484  -0.831   0.000  0.00  0.00     0.435 C 
ATOM     18  F   UNL d   1      -1.202  -1.257   0.000  0.00  0.00    -0.165 F 
ATOM     19  F   UNL d   1      -0.902  -0.104   0.000  0.00  0.00    -0.165 F 
ATOM     20  F   UNL d   1      -0.063  -1.553   0.000  0.00  0.00    -0.165 F 
ENDBRANCH   2  17
BRANCH   5  21
ATOM     21  C   UNL d   1       0.931   1.649   0.000  0.00  0.00     0.018 A 
ATOM     22  C   UNL d   1       1.653   2.067   0.000  0.00  0.00     0.002 A 
ATOM     23  C   UNL d   1       1.653   2.889   0.000  0.00  0.00     0.000 A 
ATOM     24  C   UNL d   1       0.931   3.307   0.000  0.00  0.00     0.000 A 
ATOM     25  C   UNL d   1       0.217   2.902   0.000  0.00  0.00     0.000 A 
ATOM     26  C   UNL d   1       0.217   2.054   0.000  0.00  0.00     0.002 A 
ENDBRANCH   5  21
TORSDOF 5
