REMARK  3 active torsions:
REMARK  status: ('A' for Active; 'I' for Inactive)
REMARK    1  A    between atoms: N_2  and  S_1 
REMARK    2  A    between atoms: C_3  and  S_1 
REMARK    3  A    between atoms: C_4  and  N_2 
ROOT
ATOM      1  S   UNL d   1       3.546   2.853   0.000  0.00  0.00     0.287 S 
ATOM      2  O   UNL d   1       3.133   3.572   0.000  0.00  0.00    -0.198 OA
ATOM      3  O   UNL d   1       4.260   3.266   0.000  0.00  0.00    -0.198 OA
ENDROOT
BRANCH   1   4
ATOM      4  N   UNL d   1       2.829   2.446   0.000  0.00  0.00    -0.139 NA
BRANCH   4   5
ATOM      5  C   UNL d   1       2.114   2.853   0.000  0.00  0.00     0.175 A 
ATOM      6  N   UNL d   1       1.400   2.446   0.000  0.00  0.00    -0.226 NA
ATOM      7  C   UNL d   1       0.739   2.853   0.000  0.00  0.00     0.083 A 
ATOM      8  C   UNL d   1       0.000   2.470   0.000  0.00  0.00     0.021 C 
ATOM      9  C   UNL d   1       0.739   3.678   0.000  0.00  0.00     0.019 A 
ATOM     10  C   UNL d   1       1.400   4.039   0.000  0.00  0.00     0.005 A 
ATOM     11  C   UNL d   1       2.114   3.678   0.000  0.00  0.00     0.040 A 
ENDBRANCH   4   5
ENDBRANCH   1   4
BRANCH   1  12
ATOM     12  C   UNL d   1       3.956   2.148   0.000  0.00  0.00     0.105 A 
ATOM     13  C   UNL d   1       4.781   2.148   0.000  0.00  0.00     0.013 A 
ATOM     14  C   UNL d   1       5.193   1.434   0.000  0.00  0.00     0.001 A 
ATOM     15  C   UNL d   1       6.013   1.434   0.000  0.00  0.00     0.000 A 
ATOM     16  C   UNL d   1       4.781   0.719   0.000  0.00  0.00     0.000 A 
ATOM     17  C   UNL d   1       6.431   0.719   0.000  0.00  0.00     0.000 A 
ATOM     18  C   UNL d   1       6.013   0.000   0.000  0.00  0.00     0.000 A 
ATOM     19  C   UNL d   1       5.193   0.000   0.000  0.00  0.00     0.000 A 
ATOM     20  C   UNL d   1       3.956   0.719   0.000  0.00  0.00     0.001 A 
ATOM     21  C   UNL d   1       3.546   1.434   0.000  0.00  0.00     0.013 A 
ENDBRANCH   1  12
TORSDOF 3
