REMARK  4 active torsions:
REMARK  status: ('A' for Active; 'I' for Inactive)
REMARK       I    between atoms: C_2  and  N_1 
REMARK    1  A    between atoms: C_3  and  N_1 
REMARK       I    between atoms: N_6  and  C_2 
REMARK    2  A    between atoms: C_9  and  N_6 
REMARK    3  A    between atoms: C_10  and  C_9 
REMARK    4  A    between atoms: C_11  and  C_10 
ROOT
ATOM      1  N   UNL d   1       5.888  -1.729   0.000  0.00  0.00    -0.172 NA
ATOM      2  C   UNL d   1       5.175  -2.144   0.000  0.00  0.00     0.370 C 
ATOM      3  O   UNL d   1       5.175  -2.965   0.000  0.00  0.00    -0.242 OA
ATOM      4  N   UNL d   1       4.457  -1.729   0.000  0.00  0.00    -0.189 NA
ENDROOT
BRANCH   1   5
ATOM      5  C   UNL d   1       6.605  -2.144   0.000  0.00  0.00     0.167 A 
ATOM      6  N   UNL d   1       6.605  -2.965   0.000  0.00  0.00    -0.225 NA
ATOM      7  C   UNL d   1       7.318  -3.375   0.000  0.00  0.00     0.101 A 
ATOM      8  C   UNL d   1       8.036  -2.965   0.000  0.00  0.00     0.021 A 
ATOM      9  C   UNL d   1       8.027  -2.139   0.000  0.00  0.00     0.005 A 
ATOM     10  C   UNL d   1       7.318  -1.729   0.000  0.00  0.00     0.039 A 
ENDBRANCH   1   5
BRANCH   4  11
ATOM     11  C   UNL d   1       3.744  -2.144   0.000  0.00  0.00     0.104 C 
BRANCH  11  12
ATOM     12  C   UNL d   1       3.035  -1.729   0.000  0.00  0.00     0.021 C 
BRANCH  12  13
ATOM     13  C   UNL d   1       2.318  -2.144   0.000  0.00  0.00     0.002 C 
ATOM     14  C   UNL d   1       1.609  -1.733   0.000  0.00  0.00     0.000 C 
ENDBRANCH  12  13
ENDBRANCH  11  12
ENDBRANCH   4  11
TORSDOF 4
