REMARK  2 active torsions:
REMARK  status: ('A' for Active; 'I' for Inactive)
REMARK    1  A    between atoms: C_4  and  S_1 
REMARK    2  A    between atoms: C_6  and  C_4 
ROOT
ATOM      1  C   UNL d   1      -0.021  -0.175   0.000  0.00  0.00     0.013 A 
ATOM      2  C   UNL d   1       0.362   0.558   0.000  0.00  0.00     0.001 A 
ATOM      3  C   UNL d   1      -0.837  -0.217   0.000  0.00  0.00     0.001 A 
ATOM      4  C   UNL d   1      -1.283   0.471   0.000  0.00  0.00     0.000 A 
ATOM      5  C   UNL d   1      -0.083   1.250   0.000  0.00  0.00     0.000 A 
ATOM      6  C   UNL d   1      -0.908   1.212   0.000  0.00  0.00     0.000 A 
ENDROOT
BRANCH   1   7
ATOM      7  C   UNL d   1       0.429  -0.867   0.000  0.00  0.00     0.119 C 
BRANCH   7   8
ATOM      8  S   UNL d   1       1.254  -0.825   0.000  0.00  0.00     0.303 S 
ATOM      9  O   UNL d   1       1.287  -1.712   0.000  0.00  0.00    -0.197 OA
ATOM     10  O   UNL d   1       1.287   0.083   0.000  0.00  0.00    -0.197 OA
ATOM     11  N   UNL d   1       2.041  -0.804   0.000  0.00  0.00    -0.043 N 
ENDBRANCH   7   8
ENDBRANCH   1   7
TORSDOF 2
