REMARK  3 active torsions:
REMARK  status: ('A' for Active; 'I' for Inactive)
REMARK    1  A    between atoms: C_7  and  C_1 
REMARK    2  A    between atoms: C_10  and  C_7 
REMARK    3  A    between atoms: N_8  and  C_9 
ROOT
ATOM      1  C   UNL d   1       6.830  -4.381   0.000  0.00  0.00     0.129 A 
ATOM      2  C   UNL d   1       6.117  -3.970   0.000  0.00  0.00     0.024 A 
ATOM      3  C   UNL d   1       6.830  -5.201   0.000  0.00  0.00     0.050 A 
ATOM      4  C   UNL d   1       6.117  -5.620   0.000  0.00  0.00     0.121 A 
ATOM      5  C   UNL d   1       5.400  -5.214   0.000  0.00  0.00     0.119 A 
ATOM      6  C   UNL d   1       5.400  -4.381   0.000  0.00  0.00     0.028 A 
ATOM      7  O   UNL d   1       5.947  -6.428   0.000  0.00  0.00    -0.299 OA
ATOM      8  O   UNL d   1       4.791  -5.761   0.000  0.00  0.00    -0.300 OA
ATOM      9  C   UNL d   1       5.127  -6.515   0.000  0.00  0.00     0.304 A 
ENDROOT
BRANCH   2  10
ATOM     10  C   UNL d   1       6.122  -3.150   0.000  0.00  0.00     0.011 C 
BRANCH  10  11
ATOM     11  C   UNL d   1       5.400  -2.735   0.000  0.00  0.00     0.116 A 
ATOM     12  C   UNL d   1       5.400  -1.907   0.000  0.00  0.00     0.288 A 
ATOM     13  N   UNL d   1       4.692  -1.496   0.000  0.00  0.00    -0.152 NA
ATOM     14  O   UNL d   1       6.122  -1.496   0.000  0.00  0.00    -0.265 OA
ATOM     15  C   UNL d   1       3.983  -1.907   0.000  0.00  0.00     0.374 A 
ATOM     16  N   UNL d   1       3.983  -2.735   0.000  0.00  0.00    -0.152 NA
ATOM     17  O   UNL d   1       3.262  -1.496   0.000  0.00  0.00    -0.242 OA
ATOM     18  C   UNL d   1       4.692  -3.146   0.000  0.00  0.00     0.288 A 
ATOM     19  O   UNL d   1       4.692  -3.970   0.000  0.00  0.00    -0.265 OA
ENDBRANCH  10  11
ENDBRANCH   2  10
BRANCH   1  20
ATOM     20  N   UNL d   1       7.539  -3.970   0.000  0.00  0.00    -0.114 N 
ATOM     21  O   UNL d   1       8.256  -4.381   0.000  0.00  0.00    -0.532 OA
ATOM     22  O   UNL d   1       7.539  -3.150   0.000  0.00  0.00    -0.532 OA
ENDBRANCH   1  20
TORSDOF 3
