REMARK  6 active torsions:
REMARK  status: ('A' for Active; 'I' for Inactive)
REMARK    1  A    between atoms: C_10  and  C_3 
REMARK    2  A    between atoms: N_12  and  C_4 
REMARK    3  A    between atoms: N_11  and  C_20 
REMARK    4  A    between atoms: C_25  and  N_12 
REMARK    5  A    between atoms: C_20  and  C_21 
REMARK    6  A    between atoms: C_21  and  C_25 
ROOT
ATOM      1  C   UNL d   1      -4.748   3.135   0.000  0.00  0.00     0.168 A 
ATOM      2  N   UNL d   1      -4.748   3.985   0.000  0.00  0.00    -0.184 N 
ATOM      3  C   UNL d   1      -5.450   2.730   0.000  0.00  0.00     0.057 A 
ATOM      4  C   UNL d   1      -4.042   4.373   0.000  0.00  0.00     0.218 A 
ATOM      5  N   UNL d   1      -6.170   3.972   0.000  0.00  0.00    -0.160 NA
ATOM      6  N   UNL d   1      -4.042   2.730   0.000  0.00  0.00    -0.227 NA
ATOM      7  C   UNL d   1      -3.323   3.972   0.000  0.00  0.00     0.071 A 
ATOM      8  C   UNL d   1      -6.170   3.148   0.000  0.00  0.00     0.124 A 
ATOM      9  C   UNL d   1      -3.323   3.135   0.000  0.00  0.00     0.087 A 
ATOM     10  C   UNL d   1      -2.577   2.708   0.000  0.00  0.00     0.021 C 
ENDROOT
BRANCH   4  11
ATOM     11  N   UNL d   1      -4.038   5.232   0.000  0.00  0.00    -0.380 NA
BRANCH  11  12
ATOM     12  C   UNL d   1      -4.155   6.083   0.000  0.00  0.00     0.164 C 
BRANCH  12  13
ATOM     13  C   UNL d   1      -4.940   6.414   0.000  0.00  0.00     0.054 C 
BRANCH  13  14
ATOM     14  C   UNL d   1      -5.058   7.264   0.000  0.00  0.00     0.083 C 
BRANCH  14  15
ATOM     15  N   UNL d   1      -4.369   7.788   0.000  0.00  0.00    -0.299 N 
ATOM     16  C   UNL d   1      -3.571   7.448   0.000  0.00  0.00     0.107 A 
ATOM     17  C   UNL d   1      -2.891   7.971   0.000  0.00  0.00     0.142 A 
ATOM     18  O   UNL d   1      -2.996   8.821   0.000  0.00  0.00    -0.300 OA
ATOM     19  C   UNL d   1      -3.789   9.157   0.000  0.00  0.00     0.142 A 
ATOM     20  C   UNL d   1      -4.482   8.638   0.000  0.00  0.00     0.107 A 
ENDBRANCH  14  15
ENDBRANCH  13  14
ENDBRANCH  12  13
ENDBRANCH  11  12
ENDBRANCH   4  11
BRANCH   3  21
ATOM     21  C   UNL d   1      -5.450   1.905   0.000  0.00  0.00     0.005 A 
ATOM     22  C   UNL d   1      -4.744   1.500   0.000  0.00  0.00     0.001 A 
ATOM     23  C   UNL d   1      -4.744   0.689   0.000  0.00  0.00     0.011 A 
ATOM     24  C   UNL d   1      -5.450   0.270   0.000  0.00  0.00     0.058 A 
ATOM     25  C   UNL d   1      -6.157   0.676   0.000  0.00  0.00     0.011 A 
ATOM     26 CL   UNL d   1      -5.450  -0.593   0.000  0.00  0.00    -0.082 Cl
ATOM     27  C   UNL d   1      -6.157   1.500   0.000  0.00  0.00     0.001 A 
ENDBRANCH   3  21
TORSDOF 6
