REMARK  8 active torsions:
REMARK  status: ('A' for Active; 'I' for Inactive)
REMARK    1  A    between atoms: C_13  and  C_4 
REMARK    2  A    between atoms: N_16  and  C_5 
REMARK    3  A    between atoms: C_20  and  C_9 
REMARK    4  A    between atoms: N_11  and  C_18 
REMARK    5  A    between atoms: C_21  and  N_16 
REMARK    6  A    between atoms: C_18  and  C_19 
REMARK    7  A    between atoms: C_19  and  C_21 
REMARK    8  A    between atoms: C_24  and  C_20 
ROOT
ATOM      1  N   UNL d   1      -4.741   3.955   0.000  0.00  0.00    -0.184 N 
ATOM      2  C   UNL d   1      -4.741   3.122   0.000  0.00  0.00     0.168 A 
ATOM      3  N   UNL d   1      -6.156   3.955   0.000  0.00  0.00    -0.162 NA
ATOM      4  C   UNL d   1      -5.440   2.718   0.000  0.00  0.00     0.055 A 
ATOM      5  C   UNL d   1      -4.025   4.342   0.000  0.00  0.00     0.218 A 
ATOM      6  C   UNL d   1      -6.156   3.122   0.000  0.00  0.00     0.104 A 
ATOM      7  N   UNL d   1      -4.025   2.718   0.000  0.00  0.00    -0.227 NA
ATOM      8  C   UNL d   1      -3.317   3.955   0.000  0.00  0.00     0.071 A 
ATOM      9  C   UNL d   1      -3.317   3.122   0.000  0.00  0.00     0.087 A 
ATOM     10  C   UNL d   1      -6.864   2.722   0.000  0.00  0.00     0.023 C 
ENDROOT
BRANCH   5  11
ATOM     11  N   UNL d   1      -4.025   5.201   0.000  0.00  0.00    -0.380 NA
BRANCH  11  12
ATOM     12  C   UNL d   1      -4.098   6.056   0.000  0.00  0.00     0.164 C 
BRANCH  12  13
ATOM     13  C   UNL d   1      -4.871   6.412   0.000  0.00  0.00     0.054 C 
BRANCH  13  14
ATOM     14  C   UNL d   1      -4.945   7.259   0.000  0.00  0.00     0.084 C 
BRANCH  14  15
ATOM     15  N   UNL d   1      -4.255   7.741   0.000  0.00  0.00    -0.285 N 
ATOM     16  C   UNL d   1      -4.229   8.588   0.000  0.00  0.00     0.183 A 
ATOM     17  N   UNL d   1      -3.413   8.835   0.000  0.00  0.00    -0.222 NA
ATOM     18  C   UNL d   1      -2.926   8.145   0.000  0.00  0.00     0.120 A 
ATOM     19  C   UNL d   1      -3.438   7.468   0.000  0.00  0.00     0.102 A 
ENDBRANCH  14  15
ENDBRANCH  13  14
ENDBRANCH  12  13
ENDBRANCH  11  12
ENDBRANCH   5  11
BRANCH   9  20
ATOM     20  C   UNL d   1      -2.575   2.696   0.000  0.00  0.00     0.019 C 
BRANCH  20  21
ATOM     21  C   UNL d   1      -1.823   3.122   0.000  0.00  0.00     0.002 C 
ATOM     22  C   UNL d   1      -1.090   2.696   0.000  0.00  0.00     0.000 C 
ENDBRANCH  20  21
ENDBRANCH   9  20
BRANCH   4  23
ATOM     23  C   UNL d   1      -5.440   1.897   0.000  0.00  0.00     0.004 A 
ATOM     24  C   UNL d   1      -4.728   1.494   0.000  0.00  0.00     0.000 A 
ATOM     25  C   UNL d   1      -4.728   0.673   0.000  0.00  0.00     0.000 A 
ATOM     26  C   UNL d   1      -5.440   0.256   0.000  0.00  0.00     0.000 A 
ATOM     27  C   UNL d   1      -6.156   0.660   0.000  0.00  0.00     0.000 A 
ATOM     28  C   UNL d   1      -6.156   1.494   0.000  0.00  0.00     0.000 A 
ENDBRANCH   4  23
TORSDOF 8
