REMARK  4 active torsions:
REMARK  status: ('A' for Active; 'I' for Inactive)
REMARK    1  A    between atoms: N_11  and  C_4 
REMARK    2  A    between atoms: C_22  and  N_15 
REMARK    3  A    between atoms: O_29  and  C_17 
REMARK    4  A    between atoms: C_21  and  C_22 
ROOT
ATOM      1  N   UNL d   1      -4.602   3.843   0.000  0.00  0.00    -0.195 N 
ATOM      2  C   UNL d   1      -4.602   3.037   0.000  0.00  0.00     0.168 A 
ATOM      3  C   UNL d   1      -5.285   2.632   0.000  0.00  0.00     0.073 A 
ATOM      4  C   UNL d   1      -3.910   4.231   0.000  0.00  0.00     0.153 A 
ATOM      5  N   UNL d   1      -5.969   3.843   0.000  0.00  0.00    -0.143 NA
ATOM      6  C   UNL d   1      -5.969   3.037   0.000  0.00  0.00     0.185 A 
ATOM      7  N   UNL d   1      -3.910   2.641   0.000  0.00  0.00    -0.227 NA
ATOM      8  C   UNL d   1      -5.285   1.835   0.000  0.00  0.00     0.007 A 
ATOM      9  N   UNL d   1      -6.669   2.641   0.000  0.00  0.00    -0.225 NA
ATOM     10  C   UNL d   1      -3.223   3.843   0.000  0.00  0.00     0.057 A 
ATOM     11  C   UNL d   1      -5.969   1.430   0.000  0.00  0.00     0.019 A 
ATOM     12  C   UNL d   1      -3.223   3.037   0.000  0.00  0.00     0.086 A 
ATOM     13  C   UNL d   1      -6.669   1.835   0.000  0.00  0.00     0.083 A 
ATOM     14  C   UNL d   1      -4.590   1.438   0.000  0.00  0.00     0.000 C 
ATOM     15  C   UNL d   1      -2.501   2.628   0.000  0.00  0.00     0.021 C 
ATOM     16  C   UNL d   1      -7.353   1.438   0.000  0.00  0.00     0.021 C 
ENDROOT
BRANCH   4  17
ATOM     17  N   UNL d   1      -3.919   5.062   0.000  0.00  0.00    -0.286 N 
ATOM     18  C   UNL d   1      -3.400   5.712   0.000  0.00  0.00     0.101 A 
ATOM     19  C   UNL d   1      -3.691   6.484   0.000  0.00  0.00     0.100 A 
ATOM     20  N   UNL d   1      -4.514   6.606   0.000  0.00  0.00    -0.300 N 
ATOM     21  C   UNL d   1      -5.032   5.973   0.000  0.00  0.00     0.100 A 
ATOM     22  C   UNL d   1      -4.741   5.193   0.000  0.00  0.00     0.101 A 
BRANCH  20  23
ATOM     23  C   UNL d   1      -4.805   7.369   0.000  0.00  0.00     0.080 C 
BRANCH  23  24
ATOM     24  C   UNL d   1      -4.286   8.027   0.000  0.00  0.00     0.020 A 
ATOM     25  C   UNL d   1      -4.577   8.799   0.000  0.00  0.00     0.033 A 
ATOM     26  C   UNL d   1      -4.058   9.453   0.000  0.00  0.00     0.162 A 
ATOM     27  F   UNL d   1      -4.353  10.225   0.000  0.00  0.00    -0.202 F 
ATOM     28  C   UNL d   1      -3.235   9.318   0.000  0.00  0.00     0.121 A 
ATOM     29  C   UNL d   1      -2.932   8.546   0.000  0.00  0.00     0.027 A 
ATOM     30  C   UNL d   1      -3.450   7.897   0.000  0.00  0.00     0.004 A 
BRANCH  28  31
ATOM     31  O   UNL d   1      -2.717   9.964   0.000  0.00  0.00    -0.326 OA
ATOM     32  C   UNL d   1      -3.008  10.736   0.000  0.00  0.00     0.181 C 
ENDBRANCH  28  31
ENDBRANCH  23  24
ENDBRANCH  20  23
ENDBRANCH   4  17
TORSDOF 4
