REMARK  8 active torsions:
REMARK  status: ('A' for Active; 'I' for Inactive)
REMARK    1  A    between atoms: C_20  and  N_7 
REMARK    2  A    between atoms: C_10  and  C_8 
REMARK       I    between atoms: N_18  and  C_10 
REMARK    3  A    between atoms: N_14  and  C_22 
REMARK    4  A    between atoms: C_21  and  N_18 
REMARK    5  A    between atoms: C_23  and  C_20 
REMARK    6  A    between atoms: C_22  and  C_21 
REMARK    7  A    between atoms: C_30  and  C_23 
REMARK    8  A    between atoms: O_27  and  C_30 
ROOT
ATOM      1  C   UNL d   1       2.911   0.377   0.000  0.00  0.00     0.154 A 
ATOM      2  C   UNL d   1       2.911   1.202   0.000  0.00  0.00     0.093 A 
ATOM      3  N   UNL d   1       2.213  -0.030   0.000  0.00  0.00    -0.210 NA
ATOM      4  N   UNL d   1       1.527   1.202   0.000  0.00  0.00    -0.258 N 
ATOM      5  C   UNL d   1       1.527   0.377   0.000  0.00  0.00     0.152 A 
ATOM      6  C   UNL d   1       2.221   1.620   0.000  0.00  0.00     0.269 A 
ATOM      7  N   UNL d   1       3.592  -0.030   0.000  0.00  0.00    -0.285 N 
ATOM      8  C   UNL d   1       4.282   0.377   0.000  0.00  0.00     0.137 A 
ATOM      9  C   UNL d   1       4.282   1.189   0.000  0.00  0.00     0.031 A 
ATOM     10  C   UNL d   1       0.842  -0.025   0.000  0.00  0.00     0.035 A 
ATOM     11  C   UNL d   1       0.842   1.625   0.000  0.00  0.00     0.084 A 
ATOM     12  O   UNL d   1       2.221   2.445   0.000  0.00  0.00    -0.266 OA
ATOM     13  C   UNL d   1       0.157   1.202   0.000  0.00  0.00     0.019 A 
ATOM     14  C   UNL d   1       0.157   0.377   0.000  0.00  0.00     0.005 A 
ATOM     15  C   UNL d   1       0.850  -0.863   0.000  0.00  0.00     0.003 C 
ENDROOT
BRANCH   8  16
ATOM     16  C   UNL d   1       4.980  -0.042   0.000  0.00  0.00     0.344 C 
ATOM     17  O   UNL d   1       4.967  -0.863   0.000  0.00  0.00    -0.249 OA
ATOM     18  N   UNL d   1       5.703   0.377   0.000  0.00  0.00    -0.359 NA
BRANCH  18  19
ATOM     19  C   UNL d   1       6.427   0.787   0.000  0.00  0.00     0.184 C 
BRANCH  19  20
ATOM     20  C   UNL d   1       7.150   0.364   0.000  0.00  0.00     0.116 C 
BRANCH  20  21
ATOM     21  N   UNL d   1       7.873   0.783   0.000  0.00  0.00    -0.297 N 
ATOM     22  C   UNL d   1       8.313   1.493   0.000  0.00  0.00     0.107 A 
ATOM     23  C   UNL d   1       9.151   1.468   0.000  0.00  0.00     0.142 A 
ATOM     24  O   UNL d   1       9.549   0.724   0.000  0.00  0.00    -0.300 OA
ATOM     25  C   UNL d   1       9.105   0.008   0.000  0.00  0.00     0.142 A 
ATOM     26  C   UNL d   1       8.267   0.038   0.000  0.00  0.00     0.107 A 
ENDBRANCH  20  21
ENDBRANCH  19  20
ENDBRANCH  18  19
ENDBRANCH   8  16
BRANCH   7  27
ATOM     27  C   UNL d   1       3.583  -0.863   0.000  0.00  0.00     0.084 C 
BRANCH  27  28
ATOM     28  C   UNL d   1       2.860  -1.274   0.000  0.00  0.00     0.045 C 
BRANCH  28  29
ATOM     29  C   UNL d   1       2.860  -2.107   0.000  0.00  0.00     0.118 C 
BRANCH  29  30
ATOM     30  O   UNL d   1       2.137  -2.517   0.000  0.00  0.00    -0.326 OA
ATOM     31  C   UNL d   1       2.132  -3.355   0.000  0.00  0.00     0.181 C 
ENDBRANCH  29  30
ENDBRANCH  28  29
ENDBRANCH  27  28
ENDBRANCH   7  27
TORSDOF 8
