REMARK  5 active torsions:
REMARK  status: ('A' for Active; 'I' for Inactive)
REMARK    1  A    between atoms: C_8  and  N_1 
REMARK       I    between atoms: N_2  and  C_4 
REMARK    2  A    between atoms: C_3  and  N_2 
REMARK    3  A    between atoms: N_6  and  C_3 
REMARK    4  A    between atoms: C_4  and  C_12 
REMARK    5  A    between atoms: C_7  and  N_6 
ROOT
ATOM      1  N   UNL d   1       6.176  -2.949   0.000  0.00  0.00    -0.168 NA
ATOM      2  C   UNL d   1       5.460  -2.539   0.000  0.00  0.00     0.282 C 
ATOM      3  O   UNL d   1       5.455  -1.719   0.000  0.00  0.00    -0.265 OA
ENDROOT
BRANCH   2   4
ATOM      4  C   UNL d   1       4.747  -2.958   0.000  0.00  0.00     0.058 A 
ATOM      5  C   UNL d   1       4.030  -2.539   0.000  0.00  0.00     0.006 A 
ATOM      6  C   UNL d   1       3.322  -2.949   0.000  0.00  0.00     0.024 A 
ATOM      7  C   UNL d   1       3.322  -3.778   0.000  0.00  0.00     0.127 A 
ATOM      8  C   UNL d   1       4.039  -4.188   0.000  0.00  0.00     0.024 A 
ATOM      9  C   UNL d   1       4.751  -3.769   0.000  0.00  0.00     0.006 A 
BRANCH   7  10
ATOM     10  N   UNL d   1       2.610  -4.188   0.000  0.00  0.00    -0.114 N 
ATOM     11  O   UNL d   1       1.893  -3.778   0.000  0.00  0.00    -0.532 OA
ATOM     12  O   UNL d   1       2.614  -5.008   0.000  0.00  0.00    -0.532 OA
ENDBRANCH   7  10
ENDBRANCH   2   4
BRANCH   1  13
ATOM     13  C   UNL d   1       6.889  -2.539   0.000  0.00  0.00     0.275 C 
ATOM     14  S   UNL d   1       6.885  -1.715   0.000  0.00  0.00    -0.023 SA
BRANCH  13  15
ATOM     15  N   UNL d   1       7.605  -2.945   0.000  0.00  0.00    -0.369 NA
BRANCH  15  16
ATOM     16  C   UNL d   1       8.305  -3.347   0.000  0.00  0.00     0.180 A 
ATOM     17  C   UNL d   1       9.014  -3.148   0.000  0.00  0.00     0.255 A 
ATOM     18  S   UNL d   1       9.544  -3.670   0.000  0.00  0.00    -0.043 SA
ATOM     19  O   UNL d   1       9.200  -2.440   0.000  0.00  0.00    -0.277 OA
ATOM     20  C   UNL d   1       9.357  -4.378   0.000  0.00  0.00     0.041 A 
ATOM     21  C   UNL d   1       8.649  -4.577   0.000  0.00  0.00     0.043 A 
ENDBRANCH  15  16
ENDBRANCH  13  15
ENDBRANCH   1  13
TORSDOF 5
