REMARK  6 active torsions:
REMARK  status: ('A' for Active; 'I' for Inactive)
REMARK    1  A    between atoms: C_11  and  C_4 
REMARK    2  A    between atoms: N_10  and  C_5 
REMARK    3  A    between atoms: C_16  and  C_9 
REMARK    4  A    between atoms: C_13  and  N_10 
REMARK    5  A    between atoms: C_14  and  C_13 
REMARK    6  A    between atoms: C_21  and  C_16 
ROOT
ATOM      1  N   UNL d   1      -4.692   3.914   0.000  0.00  0.00    -0.195 N 
ATOM      2  C   UNL d   1      -4.692   3.089   0.000  0.00  0.00     0.167 A 
ATOM      3  N   UNL d   1      -6.093   3.914   0.000  0.00  0.00    -0.163 NA
ATOM      4  C   UNL d   1      -5.384   2.690   0.000  0.00  0.00     0.055 A 
ATOM      5  C   UNL d   1      -3.983   4.297   0.000  0.00  0.00     0.167 A 
ATOM      6  C   UNL d   1      -6.093   3.089   0.000  0.00  0.00     0.104 A 
ATOM      7  N   UNL d   1      -3.983   2.690   0.000  0.00  0.00    -0.227 NA
ATOM      8  C   UNL d   1      -3.283   3.914   0.000  0.00  0.00     0.058 A 
ATOM      9  C   UNL d   1      -3.283   3.089   0.000  0.00  0.00     0.086 A 
ATOM     10  C   UNL d   1      -6.793   2.694   0.000  0.00  0.00     0.023 C 
ENDROOT
BRANCH   5  11
ATOM     11  N   UNL d   1      -3.983   5.148   0.000  0.00  0.00    -0.224 NA
BRANCH  11  12
ATOM     12  C   UNL d   1      -3.463   5.814   0.000  0.00  0.00     0.120 C 
BRANCH  12  13
ATOM     13  C   UNL d   1      -3.764   6.600   0.000  0.00  0.00     0.101 A 
ATOM     14  N   UNL d   1      -3.231   7.262   0.000  0.00  0.00    -0.242 NA
ATOM     15  C   UNL d   1      -3.541   8.048   0.000  0.00  0.00     0.099 A 
ATOM     16  C   UNL d   1      -4.378   8.177   0.000  0.00  0.00     0.021 A 
ATOM     17  C   UNL d   1      -4.907   7.507   0.000  0.00  0.00     0.003 A 
ATOM     18  C   UNL d   1      -4.598   6.720   0.000  0.00  0.00     0.021 A 
ENDBRANCH  12  13
ENDBRANCH  11  12
ENDBRANCH   5  11
BRANCH   9  19
ATOM     19  C   UNL d   1      -2.548   2.668   0.000  0.00  0.00     0.019 C 
BRANCH  19  20
ATOM     20  C   UNL d   1      -1.805   3.089   0.000  0.00  0.00     0.002 C 
ATOM     21  C   UNL d   1      -1.079   2.668   0.000  0.00  0.00     0.000 C 
ENDBRANCH  19  20
ENDBRANCH   9  19
BRANCH   4  22
ATOM     22  C   UNL d   1      -5.384   1.878   0.000  0.00  0.00     0.004 A 
ATOM     23  C   UNL d   1      -4.679   1.478   0.000  0.00  0.00     0.000 A 
ATOM     24  C   UNL d   1      -4.679   0.666   0.000  0.00  0.00     0.000 A 
ATOM     25  C   UNL d   1      -5.384   0.254   0.000  0.00  0.00     0.000 A 
ATOM     26  C   UNL d   1      -6.093   0.653   0.000  0.00  0.00     0.000 A 
ATOM     27  C   UNL d   1      -6.093   1.478   0.000  0.00  0.00     0.000 A 
ENDBRANCH   4  22
TORSDOF 6
