REMARK  2 active torsions:
REMARK  status: ('A' for Active; 'I' for Inactive)
REMARK    1  A    between atoms: N_9  and  C_3 
REMARK    2  A    between atoms: C_11  and  C_4 
ROOT
ATOM      1  N   UNL d   1      -4.741   3.942   0.000  0.00  0.00    -0.196 N 
ATOM      2  C   UNL d   1      -4.737   3.113   0.000  0.00  0.00     0.167 A 
ATOM      3  C   UNL d   1      -4.021   4.355   0.000  0.00  0.00     0.153 A 
ATOM      4  C   UNL d   1      -5.440   2.696   0.000  0.00  0.00     0.057 A 
ATOM      5  N   UNL d   1      -6.170   3.942   0.000  0.00  0.00    -0.161 NA
ATOM      6  N   UNL d   1      -4.021   2.705   0.000  0.00  0.00    -0.227 NA
ATOM      7  C   UNL d   1      -3.317   3.942   0.000  0.00  0.00     0.057 A 
ATOM      8  C   UNL d   1      -6.161   3.113   0.000  0.00  0.00     0.124 A 
ATOM      9  C   UNL d   1      -3.317   3.113   0.000  0.00  0.00     0.086 A 
ATOM     10  C   UNL d   1      -2.601   2.705   0.000  0.00  0.00     0.021 C 
ENDROOT
BRANCH   4  11
ATOM     11  C   UNL d   1      -5.440   1.871   0.000  0.00  0.00     0.004 A 
ATOM     12  C   UNL d   1      -6.157   1.459   0.000  0.00  0.00     0.000 A 
ATOM     13  C   UNL d   1      -6.157   0.634   0.000  0.00  0.00     0.000 A 
ATOM     14  C   UNL d   1      -5.427   0.221   0.000  0.00  0.00     0.000 A 
ATOM     15  C   UNL d   1      -4.724   0.647   0.000  0.00  0.00     0.000 A 
ATOM     16  C   UNL d   1      -5.427  -0.604   0.000  0.00  0.00     0.000 C 
ATOM     17  C   UNL d   1      -4.724   1.468   0.000  0.00  0.00     0.000 A 
ENDBRANCH   4  11
BRANCH   3  18
ATOM     18  N   UNL d   1      -4.021   5.210   0.000  0.00  0.00    -0.285 N 
ATOM     19  C   UNL d   1      -3.278   5.631   0.000  0.00  0.00     0.108 A 
ATOM     20  C   UNL d   1      -3.283   6.478   0.000  0.00  0.00     0.142 A 
ATOM     21  O   UNL d   1      -4.034   6.917   0.000  0.00  0.00    -0.300 OA
ATOM     22  C   UNL d   1      -4.754   6.478   0.000  0.00  0.00     0.142 A 
ATOM     23  C   UNL d   1      -4.754   5.631   0.000  0.00  0.00     0.108 A 
ENDBRANCH   3  18
TORSDOF 2
