REMARK  3 active torsions:
REMARK  status: ('A' for Active; 'I' for Inactive)
REMARK    1  A    between atoms: N_10  and  C_3 
REMARK    2  A    between atoms: C_11  and  C_5 
REMARK    3  A    between atoms: C_15  and  N_10 
ROOT
ATOM      1  N   UNL d   1      -4.728   3.937   0.000  0.00  0.00    -0.184 N 
ATOM      2  C   UNL d   1      -4.728   3.094   0.000  0.00  0.00     0.168 A 
ATOM      3  C   UNL d   1      -4.006   4.348   0.000  0.00  0.00     0.217 A 
ATOM      4  N   UNL d   1      -6.154   3.937   0.000  0.00  0.00    -0.162 NA
ATOM      5  C   UNL d   1      -5.432   2.692   0.000  0.00  0.00     0.055 A 
ATOM      6  N   UNL d   1      -4.006   2.692   0.000  0.00  0.00    -0.227 NA
ATOM      7  C   UNL d   1      -3.302   3.937   0.000  0.00  0.00     0.066 A 
ATOM      8  C   UNL d   1      -6.154   3.107   0.000  0.00  0.00     0.104 A 
ATOM      9  C   UNL d   1      -3.293   3.094   0.000  0.00  0.00     0.087 A 
ATOM     10  C   UNL d   1      -2.524   4.179   0.000  0.00  0.00     0.006 A 
ATOM     11  C   UNL d   1      -6.863   2.692   0.000  0.00  0.00     0.023 C 
ATOM     12  C   UNL d   1      -2.511   2.839   0.000  0.00  0.00     0.019 A 
ATOM     13  C   UNL d   1      -2.031   3.522   0.000  0.00  0.00     0.002 A 
ENDROOT
BRANCH   5  14
ATOM     14  C   UNL d   1      -5.432   1.867   0.000  0.00  0.00     0.004 A 
ATOM     15  C   UNL d   1      -4.719   1.452   0.000  0.00  0.00     0.000 A 
ATOM     16  C   UNL d   1      -4.715   0.631   0.000  0.00  0.00     0.000 A 
ATOM     17  C   UNL d   1      -5.432   0.216   0.000  0.00  0.00     0.000 A 
ATOM     18  C   UNL d   1      -6.141   0.618   0.000  0.00  0.00     0.000 A 
ATOM     19  C   UNL d   1      -6.141   1.452   0.000  0.00  0.00     0.000 A 
ENDBRANCH   5  14
BRANCH   3  20
ATOM     20  N   UNL d   1      -4.002   5.199   0.000  0.00  0.00    -0.383 NA
BRANCH  20  21
ATOM     21  C   UNL d   1      -3.993   6.042   0.000  0.00  0.00     0.134 C 
ATOM     22  C   UNL d   1      -3.254   6.448   0.000  0.00  0.00     0.035 C 
ATOM     23  C   UNL d   1      -4.728   6.474   0.000  0.00  0.00     0.035 C 
ENDBRANCH  20  21
ENDBRANCH   3  20
TORSDOF 3
