REMARK  6 active torsions:
REMARK  status: ('A' for Active; 'I' for Inactive)
REMARK    1  A    between atoms: N_14  and  C_6 
REMARK    2  A    between atoms: C_20  and  N_14 
REMARK    3  A    between atoms: O_19  and  C_22 
REMARK    4  A    between atoms: C_23  and  O_19 
REMARK    5  A    between atoms: C_22  and  C_20 
REMARK    6  A    between atoms: C_21  and  C_23 
ROOT
ATOM      1  N   UNL d   1      -4.740   3.958   0.000  0.00  0.00    -0.193 N 
ATOM      2  C   UNL d   1      -4.740   3.128   0.000  0.00  0.00     0.168 A 
ATOM      3  C   UNL d   1      -5.444   2.711   0.000  0.00  0.00     0.073 A 
ATOM      4  C   UNL d   1      -6.147   3.128   0.000  0.00  0.00     0.185 A 
ATOM      5  N   UNL d   1      -6.147   3.958   0.000  0.00  0.00    -0.143 NA
ATOM      6  C   UNL d   1      -4.027   4.357   0.000  0.00  0.00     0.167 A 
ATOM      7  N   UNL d   1      -4.027   2.720   0.000  0.00  0.00    -0.227 NA
ATOM      8  C   UNL d   1      -5.444   1.890   0.000  0.00  0.00     0.007 A 
ATOM      9  N   UNL d   1      -6.868   2.720   0.000  0.00  0.00    -0.225 NA
ATOM     10  C   UNL d   1      -3.319   3.958   0.000  0.00  0.00     0.058 A 
ATOM     11  C   UNL d   1      -6.147   1.473   0.000  0.00  0.00     0.019 A 
ATOM     12  C   UNL d   1      -3.319   3.128   0.000  0.00  0.00     0.086 A 
ATOM     13  C   UNL d   1      -6.868   1.890   0.000  0.00  0.00     0.083 A 
ATOM     14  C   UNL d   1      -4.727   1.481   0.000  0.00  0.00     0.000 C 
ATOM     15  C   UNL d   1      -2.576   2.707   0.000  0.00  0.00     0.021 C 
ATOM     16  C   UNL d   1      -7.572   1.481   0.000  0.00  0.00     0.021 C 
ENDROOT
BRANCH   6  17
ATOM     17  N   UNL d   1      -4.036   5.213   0.000  0.00  0.00    -0.223 NA
BRANCH  17  18
ATOM     18  C   UNL d   1      -4.405   5.973   0.000  0.00  0.00     0.127 C 
BRANCH  18  19
ATOM     19  C   UNL d   1      -3.923   6.677   0.000  0.00  0.00     0.143 C 
BRANCH  19  20
ATOM     20  O   UNL d   1      -4.284   7.446   0.000  0.00  0.00    -0.298 OA
BRANCH  20  21
ATOM     21  C   UNL d   1      -3.801   8.150   0.000  0.00  0.00     0.168 C 
BRANCH  21  22
ATOM     22  C   UNL d   1      -4.171   8.919   0.000  0.00  0.00     0.261 C 
ATOM     23  O   UNL d   1      -3.684   9.623   0.000  0.00  0.00    -0.281 OA
ENDBRANCH  21  22
ENDBRANCH  20  21
ENDBRANCH  19  20
ENDBRANCH  18  19
ENDBRANCH  17  18
ENDBRANCH   6  17
TORSDOF 6
