REMARK  5 active torsions:
REMARK  status: ('A' for Active; 'I' for Inactive)
REMARK    1  A    between atoms: C_11  and  C_4 
REMARK    2  A    between atoms: N_10  and  C_6 
REMARK    3  A    between atoms: C_13  and  C_9 
REMARK    4  A    between atoms: C_14  and  N_10 
REMARK    5  A    between atoms: C_15  and  C_14 
ROOT
ATOM      1  C   UNL d   1      -4.668   3.074   0.000  0.00  0.00     0.167 A 
ATOM      2  N   UNL d   1      -4.668   3.894   0.000  0.00  0.00    -0.195 N 
ATOM      3  N   UNL d   1      -6.074   3.894   0.000  0.00  0.00    -0.163 NA
ATOM      4  C   UNL d   1      -5.361   2.676   0.000  0.00  0.00     0.055 A 
ATOM      5  N   UNL d   1      -3.963   2.676   0.000  0.00  0.00    -0.227 NA
ATOM      6  C   UNL d   1      -3.963   4.288   0.000  0.00  0.00     0.167 A 
ATOM      7  C   UNL d   1      -6.074   3.074   0.000  0.00  0.00     0.104 A 
ATOM      8  C   UNL d   1      -3.240   3.869   0.000  0.00  0.00     0.058 A 
ATOM      9  C   UNL d   1      -3.266   3.074   0.000  0.00  0.00     0.086 A 
ATOM     10  C   UNL d   1      -6.763   2.676   0.000  0.00  0.00     0.023 C 
ENDROOT
BRANCH   6  11
ATOM     11  N   UNL d   1      -3.958   5.130   0.000  0.00  0.00    -0.224 NA
BRANCH  11  12
ATOM     12  C   UNL d   1      -3.433   5.788   0.000  0.00  0.00     0.120 C 
BRANCH  12  13
ATOM     13  C   UNL d   1      -3.732   6.570   0.000  0.00  0.00     0.101 A 
ATOM     14  N   UNL d   1      -3.202   7.224   0.000  0.00  0.00    -0.242 NA
ATOM     15  C   UNL d   1      -3.501   8.007   0.000  0.00  0.00     0.099 A 
ATOM     16  C   UNL d   1      -4.335   8.135   0.000  0.00  0.00     0.021 A 
ATOM     17  C   UNL d   1      -4.869   7.481   0.000  0.00  0.00     0.003 A 
ATOM     18  C   UNL d   1      -4.561   6.699   0.000  0.00  0.00     0.021 A 
ENDBRANCH  12  13
ENDBRANCH  11  12
ENDBRANCH   6  11
BRANCH   9  19
ATOM     19  C   UNL d   1      -2.526   2.650   0.000  0.00  0.00     0.018 C 
ATOM     20  C   UNL d   1      -2.535   1.795   0.000  0.00  0.00     0.002 C 
ATOM     21  C   UNL d   1      -1.791   3.074   0.000  0.00  0.00     0.002 C 
ENDBRANCH   9  19
BRANCH   4  22
ATOM     22  C   UNL d   1      -5.361   1.847   0.000  0.00  0.00     0.004 A 
ATOM     23  C   UNL d   1      -6.061   1.445   0.000  0.00  0.00     0.000 A 
ATOM     24  C   UNL d   1      -6.061   0.628   0.000  0.00  0.00     0.000 A 
ATOM     25  C   UNL d   1      -5.361   0.231   0.000  0.00  0.00     0.000 A 
ATOM     26  C   UNL d   1      -4.655   0.641   0.000  0.00  0.00     0.000 A 
ATOM     27  C   UNL d   1      -4.664   1.445   0.000  0.00  0.00     0.000 A 
ENDBRANCH   4  22
TORSDOF 5
