REMARK  4 active torsions:
REMARK  status: ('A' for Active; 'I' for Inactive)
REMARK    1  A    between atoms: N_10  and  C_3 
REMARK    2  A    between atoms: C_12  and  C_5 
REMARK    3  A    between atoms: C_15  and  C_9 
REMARK    4  A    between atoms: C_19  and  N_11 
ROOT
ATOM      1  N   UNL d   1      -4.713   3.932   0.000  0.00  0.00    -0.196 N 
ATOM      2  C   UNL d   1      -4.713   3.103   0.000  0.00  0.00     0.167 A 
ATOM      3  C   UNL d   1      -4.001   4.329   0.000  0.00  0.00     0.152 A 
ATOM      4  N   UNL d   1      -6.133   3.932   0.000  0.00  0.00    -0.163 NA
ATOM      5  C   UNL d   1      -5.412   2.702   0.000  0.00  0.00     0.055 A 
ATOM      6  N   UNL d   1      -4.001   2.702   0.000  0.00  0.00    -0.227 NA
ATOM      7  C   UNL d   1      -3.272   3.906   0.000  0.00  0.00     0.057 A 
ATOM      8  C   UNL d   1      -6.133   3.103   0.000  0.00  0.00     0.104 A 
ATOM      9  C   UNL d   1      -3.297   3.103   0.000  0.00  0.00     0.086 A 
ATOM     10  C   UNL d   1      -6.828   2.702   0.000  0.00  0.00     0.023 C 
ENDROOT
BRANCH   3  11
ATOM     11  N   UNL d   1      -3.997   5.179   0.000  0.00  0.00    -0.286 N 
ATOM     12  C   UNL d   1      -3.289   5.650   0.000  0.00  0.00     0.101 A 
ATOM     13  C   UNL d   1      -3.341   6.492   0.000  0.00  0.00     0.100 A 
ATOM     14  N   UNL d   1      -4.100   6.876   0.000  0.00  0.00    -0.300 N 
ATOM     15  C   UNL d   1      -4.812   6.401   0.000  0.00  0.00     0.100 A 
ATOM     16  C   UNL d   1      -4.761   5.559   0.000  0.00  0.00     0.101 A 
BRANCH  14  17
ATOM     17  C   UNL d   1      -4.152   7.722   0.000  0.00  0.00     0.080 C 
ATOM     18  C   UNL d   1      -3.453   8.188   0.000  0.00  0.00     0.021 C 
ENDBRANCH  14  17
ENDBRANCH   3  11
BRANCH   9  19
ATOM     19  C   UNL d   1      -2.551   2.676   0.000  0.00  0.00     0.018 C 
ATOM     20  C   UNL d   1      -2.559   1.813   0.000  0.00  0.00     0.002 C 
ATOM     21  C   UNL d   1      -1.808   3.103   0.000  0.00  0.00     0.002 C 
ENDBRANCH   9  19
BRANCH   5  22
ATOM     22  C   UNL d   1      -5.412   1.865   0.000  0.00  0.00     0.004 A 
ATOM     23  C   UNL d   1      -6.120   1.459   0.000  0.00  0.00     0.000 A 
ATOM     24  C   UNL d   1      -6.120   0.634   0.000  0.00  0.00     0.000 A 
ATOM     25  C   UNL d   1      -5.412   0.233   0.000  0.00  0.00     0.000 A 
ATOM     26  C   UNL d   1      -4.700   0.647   0.000  0.00  0.00     0.000 A 
ATOM     27  C   UNL d   1      -4.709   1.459   0.000  0.00  0.00     0.000 A 
ENDBRANCH   5  22
TORSDOF 4
