REMARK  5 active torsions:
REMARK  status: ('A' for Active; 'I' for Inactive)
REMARK    1  A    between atoms: N_9  and  C_3 
REMARK    2  A    between atoms: C_13  and  C_5 
REMARK    3  A    between atoms: C_12  and  N_10 
REMARK    4  A    between atoms: C_20  and  C_11 
REMARK    5  A    between atoms: C_25  and  C_20 
ROOT
ATOM      1  N   UNL d   1      -4.692   3.914   0.000  0.00  0.00    -0.196 N 
ATOM      2  C   UNL d   1      -4.692   3.089   0.000  0.00  0.00     0.167 A 
ATOM      3  C   UNL d   1      -3.983   4.297   0.000  0.00  0.00     0.152 A 
ATOM      4  N   UNL d   1      -6.093   3.914   0.000  0.00  0.00    -0.163 NA
ATOM      5  C   UNL d   1      -5.384   2.690   0.000  0.00  0.00     0.055 A 
ATOM      6  C   UNL d   1      -6.093   3.089   0.000  0.00  0.00     0.104 A 
ATOM      7  N   UNL d   1      -3.983   2.690   0.000  0.00  0.00    -0.227 NA
ATOM      8  C   UNL d   1      -3.283   3.914   0.000  0.00  0.00     0.057 A 
ATOM      9  C   UNL d   1      -3.283   3.089   0.000  0.00  0.00     0.086 A 
ATOM     10  C   UNL d   1      -6.793   2.694   0.000  0.00  0.00     0.023 C 
ENDROOT
BRANCH   3  11
ATOM     11  N   UNL d   1      -3.983   5.148   0.000  0.00  0.00    -0.286 N 
ATOM     12  C   UNL d   1      -3.257   5.573   0.000  0.00  0.00     0.101 A 
ATOM     13  C   UNL d   1      -3.257   6.424   0.000  0.00  0.00     0.101 A 
ATOM     14  N   UNL d   1      -3.983   6.849   0.000  0.00  0.00    -0.286 N 
ATOM     15  C   UNL d   1      -4.726   6.424   0.000  0.00  0.00     0.101 A 
ATOM     16  C   UNL d   1      -4.726   5.573   0.000  0.00  0.00     0.101 A 
BRANCH  14  17
ATOM     17  C   UNL d   1      -3.983   7.696   0.000  0.00  0.00     0.148 A 
ATOM     18  N   UNL d   1      -4.726   8.113   0.000  0.00  0.00    -0.227 NA
ATOM     19  C   UNL d   1      -4.726   8.959   0.000  0.00  0.00     0.101 A 
ATOM     20  C   UNL d   1      -3.983   9.384   0.000  0.00  0.00     0.021 A 
ATOM     21  C   UNL d   1      -3.257   8.963   0.000  0.00  0.00     0.005 A 
ATOM     22  C   UNL d   1      -3.257   8.113   0.000  0.00  0.00     0.037 A 
ENDBRANCH  14  17
ENDBRANCH   3  11
BRANCH   9  23
ATOM     23  C   UNL d   1      -2.548   2.668   0.000  0.00  0.00     0.019 C 
BRANCH  23  24
ATOM     24  C   UNL d   1      -1.805   3.089   0.000  0.00  0.00     0.002 C 
ATOM     25  C   UNL d   1      -1.079   2.668   0.000  0.00  0.00     0.000 C 
ENDBRANCH  23  24
ENDBRANCH   9  23
BRANCH   5  26
ATOM     26  C   UNL d   1      -5.384   1.878   0.000  0.00  0.00     0.004 A 
ATOM     27  C   UNL d   1      -6.093   1.478   0.000  0.00  0.00     0.000 A 
ATOM     28  C   UNL d   1      -6.093   0.653   0.000  0.00  0.00     0.000 A 
ATOM     29  C   UNL d   1      -5.384   0.254   0.000  0.00  0.00     0.000 A 
ATOM     30  C   UNL d   1      -4.679   0.666   0.000  0.00  0.00     0.000 A 
ATOM     31  C   UNL d   1      -4.679   1.478   0.000  0.00  0.00     0.000 A 
ENDBRANCH   5  26
TORSDOF 5
