REMARK  1 active torsions:
REMARK  status: ('A' for Active; 'I' for Inactive)
REMARK    1  A    between atoms: N_11  and  C_4 
ROOT
ATOM      1  N   UNL d   1      -4.740   3.958   0.000  0.00  0.00    -0.195 N 
ATOM      2  C   UNL d   1      -4.740   3.128   0.000  0.00  0.00     0.168 A 
ATOM      3  C   UNL d   1      -5.444   2.711   0.000  0.00  0.00     0.073 A 
ATOM      4  C   UNL d   1      -4.027   4.357   0.000  0.00  0.00     0.153 A 
ATOM      5  N   UNL d   1      -6.147   3.958   0.000  0.00  0.00    -0.143 NA
ATOM      6  C   UNL d   1      -6.147   3.128   0.000  0.00  0.00     0.185 A 
ATOM      7  N   UNL d   1      -4.027   2.720   0.000  0.00  0.00    -0.227 NA
ATOM      8  C   UNL d   1      -5.444   1.890   0.000  0.00  0.00     0.007 A 
ATOM      9  N   UNL d   1      -6.868   2.720   0.000  0.00  0.00    -0.225 NA
ATOM     10  C   UNL d   1      -3.319   3.958   0.000  0.00  0.00     0.057 A 
ATOM     11  C   UNL d   1      -6.147   1.473   0.000  0.00  0.00     0.019 A 
ATOM     12  C   UNL d   1      -3.319   3.128   0.000  0.00  0.00     0.086 A 
ATOM     13  C   UNL d   1      -6.868   1.890   0.000  0.00  0.00     0.083 A 
ATOM     14  C   UNL d   1      -4.727   1.481   0.000  0.00  0.00     0.000 C 
ATOM     15  C   UNL d   1      -2.576   2.707   0.000  0.00  0.00     0.021 C 
ATOM     16  C   UNL d   1      -7.572   1.481   0.000  0.00  0.00     0.021 C 
ENDROOT
BRANCH   4  17
ATOM     17  N   UNL d   1      -4.036   5.213   0.000  0.00  0.00    -0.285 N 
ATOM     18  C   UNL d   1      -3.293   5.648   0.000  0.00  0.00     0.108 A 
ATOM     19  C   UNL d   1      -3.306   6.495   0.000  0.00  0.00     0.142 A 
ATOM     20  O   UNL d   1      -4.049   6.912   0.000  0.00  0.00    -0.300 OA
ATOM     21  C   UNL d   1      -4.779   6.477   0.000  0.00  0.00     0.142 A 
ATOM     22  C   UNL d   1      -4.766   5.630   0.000  0.00  0.00     0.108 A 
ENDBRANCH   4  17
TORSDOF 1
