REMARK  5 active torsions:
REMARK  status: ('A' for Active; 'I' for Inactive)
REMARK    1  A    between atoms: C_11  and  C_4 
REMARK    2  A    between atoms: N_10  and  C_5 
REMARK    3  A    between atoms: C_12  and  C_8 
REMARK    4  A    between atoms: C_16  and  N_10 
REMARK    5  A    between atoms: C_17  and  C_16 
ROOT
ATOM      1  C   UNL d   1      -4.688   3.089   0.000  0.00  0.00     0.167 A 
ATOM      2  N   UNL d   1      -4.688   3.919   0.000  0.00  0.00    -0.195 N 
ATOM      3  N   UNL d   1      -3.983   2.690   0.000  0.00  0.00    -0.231 NA
ATOM      4  C   UNL d   1      -5.384   2.690   0.000  0.00  0.00     0.057 A 
ATOM      5  C   UNL d   1      -3.983   4.310   0.000  0.00  0.00     0.167 A 
ATOM      6  N   UNL d   1      -6.080   3.914   0.000  0.00  0.00    -0.161 NA
ATOM      7  C   UNL d   1      -3.274   3.914   0.000  0.00  0.00     0.054 A 
ATOM      8  C   UNL d   1      -3.274   3.089   0.000  0.00  0.00     0.063 A 
ATOM      9  C   UNL d   1      -6.080   3.102   0.000  0.00  0.00     0.124 A 
ENDROOT
BRANCH   5  10
ATOM     10  N   UNL d   1      -3.983   5.156   0.000  0.00  0.00    -0.224 NA
BRANCH  10  11
ATOM     11  C   UNL d   1      -3.463   5.818   0.000  0.00  0.00     0.120 C 
BRANCH  11  12
ATOM     12  C   UNL d   1      -3.764   6.600   0.000  0.00  0.00     0.101 A 
ATOM     13  N   UNL d   1      -3.231   7.262   0.000  0.00  0.00    -0.242 NA
ATOM     14  C   UNL d   1      -3.541   8.048   0.000  0.00  0.00     0.099 A 
ATOM     15  C   UNL d   1      -4.378   8.177   0.000  0.00  0.00     0.021 A 
ATOM     16  C   UNL d   1      -4.907   7.507   0.000  0.00  0.00     0.003 A 
ATOM     17  C   UNL d   1      -4.598   6.729   0.000  0.00  0.00     0.021 A 
ENDBRANCH  11  12
ENDBRANCH  10  11
ENDBRANCH   5  10
BRANCH   8  18
ATOM     18  C   UNL d   1      -2.539   2.664   0.000  0.00  0.00     0.036 C 
ATOM     19  C   UNL d   1      -1.813   2.239   0.000  0.00  0.00     0.006 C 
ATOM     20  C   UNL d   1      -1.805   3.089   0.000  0.00  0.00     0.006 C 
ATOM     21  C   UNL d   1      -2.548   1.813   0.000  0.00  0.00     0.006 C 
ENDBRANCH   8  18
BRANCH   4  22
ATOM     22  C   UNL d   1      -5.384   1.878   0.000  0.00  0.00     0.005 A 
ATOM     23  C   UNL d   1      -4.679   1.465   0.000  0.00  0.00     0.001 A 
ATOM     24  C   UNL d   1      -4.679   0.666   0.000  0.00  0.00     0.011 A 
ATOM     25  C   UNL d   1      -5.384   0.245   0.000  0.00  0.00     0.058 A 
ATOM     26  C   UNL d   1      -6.080   0.644   0.000  0.00  0.00     0.011 A 
ATOM     27 CL   UNL d   1      -5.384  -0.597   0.000  0.00  0.00    -0.082 Cl
ATOM     28  C   UNL d   1      -6.080   1.465   0.000  0.00  0.00     0.001 A 
ENDBRANCH   4  22
TORSDOF 5
