REMARK  4 active torsions:
REMARK  status: ('A' for Active; 'I' for Inactive)
REMARK    1  A    between atoms: N_11  and  C_4 
REMARK    2  A    between atoms: C_13  and  C_17 
REMARK    3  A    between atoms: C_17  and  N_16 
REMARK    4  A    between atoms: O_29  and  C_18 
ROOT
ATOM      1  N   UNL d   1      -4.627   3.864   0.000  0.00  0.00    -0.195 N 
ATOM      2  C   UNL d   1      -4.627   3.054   0.000  0.00  0.00     0.168 A 
ATOM      3  C   UNL d   1      -5.314   2.647   0.000  0.00  0.00     0.073 A 
ATOM      4  C   UNL d   1      -3.932   4.254   0.000  0.00  0.00     0.153 A 
ATOM      5  N   UNL d   1      -6.002   3.864   0.000  0.00  0.00    -0.143 NA
ATOM      6  C   UNL d   1      -6.002   3.054   0.000  0.00  0.00     0.185 A 
ATOM      7  N   UNL d   1      -3.932   2.655   0.000  0.00  0.00    -0.227 NA
ATOM      8  C   UNL d   1      -5.314   1.845   0.000  0.00  0.00     0.007 A 
ATOM      9  N   UNL d   1      -6.706   2.655   0.000  0.00  0.00    -0.225 NA
ATOM     10  C   UNL d   1      -3.240   3.864   0.000  0.00  0.00     0.057 A 
ATOM     11  C   UNL d   1      -6.002   1.438   0.000  0.00  0.00     0.019 A 
ATOM     12  C   UNL d   1      -3.240   3.054   0.000  0.00  0.00     0.086 A 
ATOM     13  C   UNL d   1      -6.706   1.845   0.000  0.00  0.00     0.083 A 
ATOM     14  C   UNL d   1      -4.615   1.446   0.000  0.00  0.00     0.000 C 
ATOM     15  C   UNL d   1      -2.515   2.642   0.000  0.00  0.00     0.021 C 
ATOM     16  C   UNL d   1      -7.393   1.446   0.000  0.00  0.00     0.021 C 
ENDROOT
BRANCH   4  17
ATOM     17  N   UNL d   1      -3.940   5.090   0.000  0.00  0.00    -0.286 N 
ATOM     18  C   UNL d   1      -3.368   5.679   0.000  0.00  0.00     0.101 A 
ATOM     19  C   UNL d   1      -3.597   6.481   0.000  0.00  0.00     0.100 A 
ATOM     20  N   UNL d   1      -4.398   6.697   0.000  0.00  0.00    -0.300 N 
ATOM     21  C   UNL d   1      -4.984   6.086   0.000  0.00  0.00     0.100 A 
ATOM     22  C   UNL d   1      -4.746   5.285   0.000  0.00  0.00     0.101 A 
BRANCH  20  23
ATOM     23  C   UNL d   1      -4.627   7.495   0.000  0.00  0.00     0.082 C 
BRANCH  23  24
ATOM     24  C   UNL d   1      -4.059   8.093   0.000  0.00  0.00     0.042 A 
ATOM     25  C   UNL d   1      -4.296   8.894   0.000  0.00  0.00     0.096 A 
ATOM     26  C   UNL d   1      -3.716   9.484   0.000  0.00  0.00     0.027 A 
ATOM     27  C   UNL d   1      -2.910   9.293   0.000  0.00  0.00     0.032 A 
ATOM     28  C   UNL d   1      -2.672   8.491   0.000  0.00  0.00     0.140 A 
ATOM     29  C   UNL d   1      -3.253   7.893   0.000  0.00  0.00     0.033 A 
ATOM     30  F   UNL d   1      -1.866   8.288   0.000  0.00  0.00    -0.204 F 
BRANCH  25  31
ATOM     31  O   UNL d   1      -5.090   9.089   0.000  0.00  0.00    -0.328 OA
ATOM     32  C   UNL d   1      -5.671   8.491   0.000  0.00  0.00     0.181 C 
ENDBRANCH  25  31
ENDBRANCH  23  24
ENDBRANCH  20  23
ENDBRANCH   4  17
TORSDOF 4
