REMARK  2 active torsions:
REMARK  status: ('A' for Active; 'I' for Inactive)
REMARK    1  A    between atoms: N_10  and  C_3 
REMARK    2  A    between atoms: C_11  and  C_5 
ROOT
ATOM      1  N   UNL d   1      -4.701   3.919   0.000  0.00  0.00    -0.196 N 
ATOM      2  C   UNL d   1      -4.701   3.089   0.000  0.00  0.00     0.167 A 
ATOM      3  C   UNL d   1      -3.983   4.318   0.000  0.00  0.00     0.152 A 
ATOM      4  N   UNL d   1      -6.110   3.914   0.000  0.00  0.00    -0.163 NA
ATOM      5  C   UNL d   1      -5.397   2.677   0.000  0.00  0.00     0.055 A 
ATOM      6  N   UNL d   1      -3.983   2.677   0.000  0.00  0.00    -0.227 NA
ATOM      7  C   UNL d   1      -3.274   3.914   0.000  0.00  0.00     0.052 A 
ATOM      8  C   UNL d   1      -6.110   3.089   0.000  0.00  0.00     0.104 A 
ATOM      9  C   UNL d   1      -3.274   3.089   0.000  0.00  0.00     0.086 A 
ATOM     10  C   UNL d   1      -2.561   4.336   0.000  0.00  0.00     0.004 A 
ATOM     11  C   UNL d   1      -6.811   2.690   0.000  0.00  0.00     0.023 C 
ATOM     12  C   UNL d   1      -2.561   2.677   0.000  0.00  0.00     0.019 A 
ATOM     13  C   UNL d   1      -1.839   3.914   0.000  0.00  0.00     0.000 A 
ATOM     14  C   UNL d   1      -1.839   3.089   0.000  0.00  0.00     0.002 A 
ENDROOT
BRANCH   3  15
ATOM     15  N   UNL d   1      -3.979   5.161   0.000  0.00  0.00    -0.285 N 
ATOM     16  C   UNL d   1      -3.244   5.586   0.000  0.00  0.00     0.108 A 
ATOM     17  C   UNL d   1      -3.244   6.424   0.000  0.00  0.00     0.142 A 
ATOM     18  O   UNL d   1      -3.979   6.858   0.000  0.00  0.00    -0.300 OA
ATOM     19  C   UNL d   1      -4.705   6.424   0.000  0.00  0.00     0.142 A 
ATOM     20  C   UNL d   1      -4.705   5.586   0.000  0.00  0.00     0.108 A 
ENDBRANCH   3  15
BRANCH   5  21
ATOM     21  C   UNL d   1      -5.397   1.852   0.000  0.00  0.00     0.004 A 
ATOM     22  C   UNL d   1      -4.688   1.452   0.000  0.00  0.00     0.000 A 
ATOM     23  C   UNL d   1      -4.688   0.627   0.000  0.00  0.00     0.000 A 
ATOM     24  C   UNL d   1      -5.397   0.215   0.000  0.00  0.00     0.000 A 
ATOM     25  C   UNL d   1      -6.106   0.627   0.000  0.00  0.00     0.000 A 
ATOM     26  C   UNL d   1      -6.106   1.452   0.000  0.00  0.00     0.000 A 
ENDBRANCH   5  21
TORSDOF 2
