REMARK  3 active torsions:
REMARK  status: ('A' for Active; 'I' for Inactive)
REMARK    1  A    between atoms: C_11  and  C_8 
REMARK       I    between atoms: N_14  and  C_11 
REMARK    2  A    between atoms: C_20  and  N_14 
REMARK    3  A    between atoms: C_21  and  C_20 
ROOT
ATOM      1  C   UNL d   1       4.737  -5.417   0.000  0.00  0.00     0.154 A 
ATOM      2  C   UNL d   1       4.737  -4.592   0.000  0.00  0.00     0.093 A 
ATOM      3  N   UNL d   1       4.017  -5.829   0.000  0.00  0.00    -0.210 NA
ATOM      4  N   UNL d   1       3.304  -4.592   0.000  0.00  0.00    -0.258 N 
ATOM      5  C   UNL d   1       4.017  -4.179   0.000  0.00  0.00     0.269 A 
ATOM      6  N   UNL d   1       5.517  -5.675   0.000  0.00  0.00    -0.285 N 
ATOM      7  C   UNL d   1       3.304  -5.417   0.000  0.00  0.00     0.152 A 
ATOM      8  C   UNL d   1       6.004  -5.013   0.000  0.00  0.00     0.124 A 
ATOM      9  C   UNL d   1       5.517  -4.342   0.000  0.00  0.00     0.030 A 
ATOM     10  C   UNL d   1       2.592  -4.179   0.000  0.00  0.00     0.084 A 
ATOM     11  C   UNL d   1       2.592  -5.829   0.000  0.00  0.00     0.038 A 
ATOM     12  C   UNL d   1       1.879  -4.592   0.000  0.00  0.00     0.018 A 
ATOM     13  C   UNL d   1       1.879  -5.417   0.000  0.00  0.00     0.005 A 
ATOM     14  O   UNL d   1       4.017  -3.354   0.000  0.00  0.00    -0.266 OA
ATOM     15  C   UNL d   1       5.775  -6.463   0.000  0.00  0.00     0.101 C 
ATOM     16  C   UNL d   1       1.154  -4.179   0.000  0.00  0.00     0.002 C 
ENDROOT
BRANCH   8  17
ATOM     17  C   UNL d   1       6.829  -5.017   0.000  0.00  0.00     0.295 C 
ATOM     18  N   UNL d   1       7.242  -4.300   0.000  0.00  0.00    -0.203 NA
ATOM     19  O   UNL d   1       7.242  -5.729   0.000  0.00  0.00    -0.264 OA
BRANCH  18  20
ATOM     20  C   UNL d   1       8.067  -4.300   0.000  0.00  0.00     0.127 C 
BRANCH  20  21
ATOM     21  C   UNL d   1       8.479  -3.587   0.000  0.00  0.00     0.119 A 
ATOM     22  O   UNL d   1       9.292  -3.413   0.000  0.00  0.00    -0.304 OA
ATOM     23  C   UNL d   1       9.375  -2.592   0.000  0.00  0.00     0.123 A 
ATOM     24  C   UNL d   1       8.629  -2.254   0.000  0.00  0.00     0.029 A 
ATOM     25  C   UNL d   1       8.067  -2.867   0.000  0.00  0.00     0.028 A 
ENDBRANCH  20  21
ENDBRANCH  18  20
ENDBRANCH   8  17
TORSDOF 3
