REMARK  6 active torsions:
REMARK  status: ('A' for Active; 'I' for Inactive)
REMARK    1  A    between atoms: N_10  and  C_3 
REMARK    2  A    between atoms: C_9  and  C_4 
REMARK    3  A    between atoms: C_20  and  N_13 
REMARK    4  A    between atoms: O_24  and  C_14 
REMARK    5  A    between atoms: O_26  and  C_16 
REMARK    6  A    between atoms: C_25  and  C_20 
ROOT
ATOM      1  N   UNL d   1      -4.688   3.914   0.000  0.00  0.00    -0.196 N 
ATOM      2  C   UNL d   1      -4.688   3.089   0.000  0.00  0.00     0.167 A 
ATOM      3  C   UNL d   1      -3.979   4.310   0.000  0.00  0.00     0.152 A 
ATOM      4  C   UNL d   1      -5.384   2.677   0.000  0.00  0.00     0.055 A 
ATOM      5  N   UNL d   1      -6.093   3.914   0.000  0.00  0.00    -0.163 NA
ATOM      6  C   UNL d   1      -6.093   3.089   0.000  0.00  0.00     0.104 A 
ATOM      7  N   UNL d   1      -3.979   2.677   0.000  0.00  0.00    -0.227 NA
ATOM      8  C   UNL d   1      -3.270   3.914   0.000  0.00  0.00     0.057 A 
ATOM      9  C   UNL d   1      -3.270   3.089   0.000  0.00  0.00     0.086 A 
ATOM     10  C   UNL d   1      -6.793   2.690   0.000  0.00  0.00     0.023 C 
ATOM     11  C   UNL d   1      -2.535   2.664   0.000  0.00  0.00     0.021 C 
ENDROOT
BRANCH   3  12
ATOM     12  N   UNL d   1      -3.979   5.156   0.000  0.00  0.00    -0.286 N 
ATOM     13  C   UNL d   1      -4.804   5.341   0.000  0.00  0.00     0.101 A 
ATOM     14  C   UNL d   1      -5.049   6.149   0.000  0.00  0.00     0.100 A 
ATOM     15  N   UNL d   1      -4.482   6.772   0.000  0.00  0.00    -0.300 N 
ATOM     16  C   UNL d   1      -3.648   6.579   0.000  0.00  0.00     0.100 A 
ATOM     17  C   UNL d   1      -3.399   5.779   0.000  0.00  0.00     0.101 A 
BRANCH  15  18
ATOM     18  C   UNL d   1      -4.739   7.584   0.000  0.00  0.00     0.080 C 
BRANCH  18  19
ATOM     19  C   UNL d   1      -4.164   8.203   0.000  0.00  0.00     0.018 A 
ATOM     20  C   UNL d   1      -3.347   8.018   0.000  0.00  0.00     0.002 A 
ATOM     21  C   UNL d   1      -2.772   8.641   0.000  0.00  0.00     0.000 A 
ATOM     22  C   UNL d   1      -3.025   9.440   0.000  0.00  0.00     0.000 A 
ATOM     23  C   UNL d   1      -3.850   9.621   0.000  0.00  0.00     0.000 A 
ATOM     24  C   UNL d   1      -4.417   9.002   0.000  0.00  0.00     0.002 A 
ENDBRANCH  18  19
ENDBRANCH  15  18
ENDBRANCH   3  12
BRANCH   4  25
ATOM     25  C   UNL d   1      -5.384   1.865   0.000  0.00  0.00     0.007 A 
ATOM     26  C   UNL d   1      -6.093   1.465   0.000  0.00  0.00     0.026 A 
ATOM     27  C   UNL d   1      -6.093   0.640   0.000  0.00  0.00     0.116 A 
ATOM     28  C   UNL d   1      -5.384   0.232   0.000  0.00  0.00     0.116 A 
ATOM     29  C   UNL d   1      -4.688   0.644   0.000  0.00  0.00     0.026 A 
ATOM     30  C   UNL d   1      -4.688   1.465   0.000  0.00  0.00     0.002 A 
BRANCH  27  31
ATOM     31  O   UNL d   1      -6.811   0.219   0.000  0.00  0.00    -0.326 OA
ATOM     32  C   UNL d   1      -7.554   0.644   0.000  0.00  0.00     0.181 C 
ENDBRANCH  27  31
BRANCH  28  33
ATOM     33  O   UNL d   1      -5.384  -0.619   0.000  0.00  0.00    -0.326 OA
ATOM     34  C   UNL d   1      -4.641  -1.036   0.000  0.00  0.00     0.181 C 
ENDBRANCH  28  33
ENDBRANCH   4  25
TORSDOF 6
