REMARK  5 active torsions:
REMARK  status: ('A' for Active; 'I' for Inactive)
REMARK    1  A    between atoms: C_9  and  C_3 
REMARK    2  A    between atoms: N_11  and  C_4 
REMARK    3  A    between atoms: C_17  and  N_11 
REMARK    4  A    between atoms: O_19  and  C_13 
REMARK    5  A    between atoms: O_20  and  C_15 
ROOT
ATOM      1  N   UNL d   1      -4.757   3.972   0.000  0.00  0.00    -0.184 N 
ATOM      2  C   UNL d   1      -4.757   3.135   0.000  0.00  0.00     0.168 A 
ATOM      3  C   UNL d   1      -5.464   2.716   0.000  0.00  0.00     0.055 A 
ATOM      4  C   UNL d   1      -4.038   4.373   0.000  0.00  0.00     0.218 A 
ATOM      5  N   UNL d   1      -6.183   3.972   0.000  0.00  0.00    -0.162 NA
ATOM      6  C   UNL d   1      -6.183   3.135   0.000  0.00  0.00     0.104 A 
ATOM      7  N   UNL d   1      -4.038   2.716   0.000  0.00  0.00    -0.227 NA
ATOM      8  C   UNL d   1      -3.318   3.972   0.000  0.00  0.00     0.071 A 
ATOM      9  C   UNL d   1      -3.318   3.135   0.000  0.00  0.00     0.087 A 
ATOM     10  C   UNL d   1      -6.894   2.730   0.000  0.00  0.00     0.023 C 
ATOM     11  C   UNL d   1      -2.573   2.703   0.000  0.00  0.00     0.021 C 
ENDROOT
BRANCH   3  12
ATOM     12  C   UNL d   1      -5.464   1.892   0.000  0.00  0.00     0.007 A 
ATOM     13  C   UNL d   1      -6.183   1.487   0.000  0.00  0.00     0.026 A 
ATOM     14  C   UNL d   1      -6.183   0.650   0.000  0.00  0.00     0.116 A 
ATOM     15  C   UNL d   1      -5.464   0.235   0.000  0.00  0.00     0.116 A 
ATOM     16  C   UNL d   1      -4.757   0.654   0.000  0.00  0.00     0.026 A 
ATOM     17  C   UNL d   1      -4.757   1.487   0.000  0.00  0.00     0.002 A 
BRANCH  14  18
ATOM     18  O   UNL d   1      -6.911   0.222   0.000  0.00  0.00    -0.326 OA
ATOM     19  C   UNL d   1      -7.666   0.654   0.000  0.00  0.00     0.181 C 
ENDBRANCH  14  18
BRANCH  15  20
ATOM     20  O   UNL d   1      -5.464  -0.628   0.000  0.00  0.00    -0.326 OA
ATOM     21  C   UNL d   1      -4.709  -1.051   0.000  0.00  0.00     0.181 C 
ENDBRANCH  15  20
ENDBRANCH   3  12
BRANCH   4  22
ATOM     22  N   UNL d   1      -4.038   5.232   0.000  0.00  0.00    -0.383 NA
BRANCH  22  23
ATOM     23  C   UNL d   1      -4.038   5.996   0.000  0.00  0.00     0.134 A 
ATOM     24  C   UNL d   1      -3.371   6.371   0.000  0.00  0.00     0.032 A 
ATOM     25  C   UNL d   1      -3.371   7.134   0.000  0.00  0.00     0.003 A 
ATOM     26  C   UNL d   1      -4.692   7.142   0.000  0.00  0.00     0.003 A 
ATOM     27  C   UNL d   1      -4.692   6.375   0.000  0.00  0.00     0.032 A 
ENDBRANCH  22  23
ENDBRANCH   4  22
TORSDOF 5
