REMARK  7 active torsions:
REMARK  status: ('A' for Active; 'I' for Inactive)
REMARK    1  A    between atoms: C_10  and  C_3 
REMARK    2  A    between atoms: N_12  and  C_4 
REMARK    3  A    between atoms: O_23  and  C_11 
REMARK    4  A    between atoms: C_25  and  N_12 
REMARK    5  A    between atoms: O_26  and  C_13 
REMARK    6  A    between atoms: C_18  and  C_28 
REMARK    7  A    between atoms: C_28  and  C_25 
ROOT
ATOM      1  C   UNL d   1      -4.679   3.089   0.000  0.00  0.00     0.168 A 
ATOM      2  N   UNL d   1      -4.679   3.927   0.000  0.00  0.00    -0.184 N 
ATOM      3  C   UNL d   1      -5.371   2.690   0.000  0.00  0.00     0.057 A 
ATOM      4  C   UNL d   1      -3.983   4.310   0.000  0.00  0.00     0.218 A 
ATOM      5  N   UNL d   1      -6.080   3.914   0.000  0.00  0.00    -0.160 NA
ATOM      6  N   UNL d   1      -3.983   2.690   0.000  0.00  0.00    -0.227 NA
ATOM      7  C   UNL d   1      -3.274   3.914   0.000  0.00  0.00     0.071 A 
ATOM      8  C   UNL d   1      -6.080   3.102   0.000  0.00  0.00     0.124 A 
ATOM      9  C   UNL d   1      -3.274   3.089   0.000  0.00  0.00     0.087 A 
ATOM     10  C   UNL d   1      -2.539   2.668   0.000  0.00  0.00     0.021 C 
ENDROOT
BRANCH   4  11
ATOM     11  N   UNL d   1      -3.979   5.156   0.000  0.00  0.00    -0.380 NA
BRANCH  11  12
ATOM     12  C   UNL d   1      -4.250   5.955   0.000  0.00  0.00     0.163 C 
BRANCH  12  13
ATOM     13  C   UNL d   1      -3.682   6.574   0.000  0.00  0.00     0.035 C 
BRANCH  13  14
ATOM     14  C   UNL d   1      -3.953   7.373   0.000  0.00  0.00     0.005 A 
ATOM     15  C   UNL d   1      -3.377   8.005   0.000  0.00  0.00     0.026 A 
ATOM     16  C   UNL d   1      -3.644   8.817   0.000  0.00  0.00     0.116 A 
ATOM     17  C   UNL d   1      -4.482   8.985   0.000  0.00  0.00     0.116 A 
ATOM     18  C   UNL d   1      -5.036   8.357   0.000  0.00  0.00     0.026 A 
ATOM     19  C   UNL d   1      -4.765   7.545   0.000  0.00  0.00     0.002 A 
BRANCH  16  20
ATOM     20  O   UNL d   1      -3.089   9.440   0.000  0.00  0.00    -0.326 OA
ATOM     21  C   UNL d   1      -2.264   9.273   0.000  0.00  0.00     0.181 C 
ENDBRANCH  16  20
BRANCH  17  22
ATOM     22  O   UNL d   1      -4.744   9.784   0.000  0.00  0.00    -0.326 OA
ATOM     23  C   UNL d   1      -4.185  10.420   0.000  0.00  0.00     0.181 C 
ENDBRANCH  17  22
ENDBRANCH  13  14
ENDBRANCH  12  13
ENDBRANCH  11  12
ENDBRANCH   4  11
BRANCH   3  24
ATOM     24  C   UNL d   1      -5.371   1.878   0.000  0.00  0.00     0.005 A 
ATOM     25  C   UNL d   1      -6.067   1.478   0.000  0.00  0.00     0.001 A 
ATOM     26  C   UNL d   1      -6.067   0.666   0.000  0.00  0.00     0.011 A 
ATOM     27  C   UNL d   1      -5.371   0.266   0.000  0.00  0.00     0.058 A 
ATOM     28  C   UNL d   1      -4.675   0.679   0.000  0.00  0.00     0.011 A 
ATOM     29 CL   UNL d   1      -5.371  -0.584   0.000  0.00  0.00    -0.082 Cl
ATOM     30  C   UNL d   1      -4.675   1.478   0.000  0.00  0.00     0.001 A 
ENDBRANCH   3  24
TORSDOF 7
