REMARK  5 active torsions:
REMARK  status: ('A' for Active; 'I' for Inactive)
REMARK    1  A    between atoms: N_11  and  C_4 
REMARK    2  A    between atoms: C_18  and  N_15 
REMARK    3  A    between atoms: C_21  and  C_18 
REMARK    4  A    between atoms: O_28  and  C_23 
REMARK    5  A    between atoms: C_31  and  O_28 
ROOT
ATOM      1  N   UNL d   1      -4.618   3.856   0.000  0.00  0.00    -0.195 N 
ATOM      2  C   UNL d   1      -4.618   3.048   0.000  0.00  0.00     0.168 A 
ATOM      3  C   UNL d   1      -5.304   2.641   0.000  0.00  0.00     0.073 A 
ATOM      4  C   UNL d   1      -3.924   4.246   0.000  0.00  0.00     0.153 A 
ATOM      5  N   UNL d   1      -5.990   3.856   0.000  0.00  0.00    -0.143 NA
ATOM      6  C   UNL d   1      -5.990   3.048   0.000  0.00  0.00     0.185 A 
ATOM      7  N   UNL d   1      -3.924   2.650   0.000  0.00  0.00    -0.227 NA
ATOM      8  C   UNL d   1      -5.304   1.841   0.000  0.00  0.00     0.007 A 
ATOM      9  N   UNL d   1      -6.692   2.650   0.000  0.00  0.00    -0.225 NA
ATOM     10  C   UNL d   1      -3.234   3.856   0.000  0.00  0.00     0.057 A 
ATOM     11  C   UNL d   1      -5.990   1.435   0.000  0.00  0.00     0.019 A 
ATOM     12  C   UNL d   1      -3.234   3.048   0.000  0.00  0.00     0.086 A 
ATOM     13  C   UNL d   1      -6.692   1.841   0.000  0.00  0.00     0.083 A 
ATOM     14  C   UNL d   1      -4.606   1.443   0.000  0.00  0.00     0.000 C 
ATOM     15  C   UNL d   1      -2.510   2.637   0.000  0.00  0.00     0.021 C 
ATOM     16  C   UNL d   1      -7.378   1.443   0.000  0.00  0.00     0.021 C 
ENDROOT
BRANCH   4  17
ATOM     17  N   UNL d   1      -3.932   5.080   0.000  0.00  0.00    -0.286 N 
ATOM     18  C   UNL d   1      -4.758   5.122   0.000  0.00  0.00     0.101 A 
ATOM     19  C   UNL d   1      -5.126   5.859   0.000  0.00  0.00     0.100 A 
ATOM     20  N   UNL d   1      -4.669   6.557   0.000  0.00  0.00    -0.300 N 
ATOM     21  C   UNL d   1      -3.835   6.502   0.000  0.00  0.00     0.100 A 
ATOM     22  C   UNL d   1      -3.467   5.757   0.000  0.00  0.00     0.101 A 
BRANCH  20  23
ATOM     23  C   UNL d   1      -5.037   7.306   0.000  0.00  0.00     0.080 C 
BRANCH  23  24
ATOM     24  C   UNL d   1      -4.572   7.992   0.000  0.00  0.00     0.018 A 
ATOM     25  C   UNL d   1      -3.742   7.941   0.000  0.00  0.00     0.004 A 
ATOM     26  C   UNL d   1      -3.272   8.635   0.000  0.00  0.00     0.025 A 
ATOM     27  C   UNL d   1      -3.640   9.385   0.000  0.00  0.00     0.100 A 
ATOM     28  C   UNL d   1      -4.483   9.440   0.000  0.00  0.00     0.025 A 
ATOM     29  C   UNL d   1      -4.936   8.741   0.000  0.00  0.00     0.004 A 
BRANCH  27  30
ATOM     30  O   UNL d   1      -3.183  10.075   0.000  0.00  0.00    -0.305 OA
BRANCH  30  31
ATOM     31  C   UNL d   1      -2.349  10.024   0.000  0.00  0.00     0.123 C 
ATOM     32  C   UNL d   1      -1.977   9.274   0.000  0.00  0.00     0.029 C 
ENDBRANCH  30  31
ENDBRANCH  27  30
ENDBRANCH  23  24
ENDBRANCH  20  23
ENDBRANCH   4  17
TORSDOF 5
