REMARK  2 active torsions:
REMARK  status: ('A' for Active; 'I' for Inactive)
REMARK    1  A    between atoms: N_11  and  C_4 
REMARK    2  A    between atoms: C_16  and  N_12 
ROOT
ATOM      1  N   UNL d   1      -4.610   3.849   0.000  0.00  0.00    -0.195 N 
ATOM      2  C   UNL d   1      -4.610   3.042   0.000  0.00  0.00     0.168 A 
ATOM      3  C   UNL d   1      -5.294   2.636   0.000  0.00  0.00     0.073 A 
ATOM      4  C   UNL d   1      -3.917   4.238   0.000  0.00  0.00     0.153 A 
ATOM      5  N   UNL d   1      -5.979   3.849   0.000  0.00  0.00    -0.143 NA
ATOM      6  C   UNL d   1      -5.979   3.042   0.000  0.00  0.00     0.185 A 
ATOM      7  N   UNL d   1      -3.917   2.645   0.000  0.00  0.00    -0.227 NA
ATOM      8  C   UNL d   1      -5.294   1.838   0.000  0.00  0.00     0.007 A 
ATOM      9  N   UNL d   1      -6.680   2.645   0.000  0.00  0.00    -0.225 NA
ATOM     10  C   UNL d   1      -3.228   3.849   0.000  0.00  0.00     0.057 A 
ATOM     11  C   UNL d   1      -5.979   1.432   0.000  0.00  0.00     0.019 A 
ATOM     12  C   UNL d   1      -3.228   3.042   0.000  0.00  0.00     0.086 A 
ATOM     13  C   UNL d   1      -6.680   1.838   0.000  0.00  0.00     0.083 A 
ATOM     14  C   UNL d   1      -4.597   1.441   0.000  0.00  0.00     0.000 C 
ATOM     15  C   UNL d   1      -2.506   2.632   0.000  0.00  0.00     0.021 C 
ATOM     16  C   UNL d   1      -7.364   1.441   0.000  0.00  0.00     0.021 C 
ENDROOT
BRANCH   4  17
ATOM     17  N   UNL d   1      -3.925   5.070   0.000  0.00  0.00    -0.286 N 
ATOM     18  C   UNL d   1      -4.665   5.450   0.000  0.00  0.00     0.101 A 
ATOM     19  C   UNL d   1      -4.711   6.279   0.000  0.00  0.00     0.100 A 
ATOM     20  N   UNL d   1      -4.014   6.722   0.000  0.00  0.00    -0.301 N 
ATOM     21  C   UNL d   1      -3.270   6.351   0.000  0.00  0.00     0.100 A 
ATOM     22  C   UNL d   1      -3.228   5.518   0.000  0.00  0.00     0.101 A 
BRANCH  20  23
ATOM     23  C   UNL d   1      -4.056   7.546   0.000  0.00  0.00     0.065 A 
ATOM     24  C   UNL d   1      -3.359   8.003   0.000  0.00  0.00     0.029 A 
ATOM     25  C   UNL d   1      -3.405   8.839   0.000  0.00  0.00     0.059 A 
ATOM     26 CL   UNL d   1      -2.713   9.296   0.000  0.00  0.00    -0.082 Cl
ATOM     27  C   UNL d   1      -4.153   9.215   0.000  0.00  0.00     0.011 A 
ATOM     28  C   UNL d   1      -4.851   8.750   0.000  0.00  0.00     0.002 A 
ATOM     29  C   UNL d   1      -4.800   7.926   0.000  0.00  0.00     0.018 A 
ENDBRANCH  20  23
ENDBRANCH   4  17
TORSDOF 2
