REMARK  6 active torsions:
REMARK  status: ('A' for Active; 'I' for Inactive)
REMARK    1  A    between atoms: C_12  and  C_3 
REMARK    2  A    between atoms: N_16  and  C_4 
REMARK    3  A    between atoms: N_11  and  C_23 
REMARK    4  A    between atoms: C_26  and  N_16 
REMARK    5  A    between atoms: C_23  and  C_24 
REMARK    6  A    between atoms: C_24  and  C_26 
ROOT
ATOM      1  C   UNL d   1      -4.754   3.139   0.000  0.00  0.00     0.168 A 
ATOM      2  N   UNL d   1      -4.754   3.990   0.000  0.00  0.00    -0.184 N 
ATOM      3  C   UNL d   1      -5.456   2.732   0.000  0.00  0.00     0.057 A 
ATOM      4  C   UNL d   1      -4.046   4.378   0.000  0.00  0.00     0.218 A 
ATOM      5  N   UNL d   1      -6.177   3.977   0.000  0.00  0.00    -0.160 NA
ATOM      6  N   UNL d   1      -4.046   2.732   0.000  0.00  0.00    -0.227 NA
ATOM      7  C   UNL d   1      -3.326   3.977   0.000  0.00  0.00     0.071 A 
ATOM      8  C   UNL d   1      -6.177   3.152   0.000  0.00  0.00     0.124 A 
ATOM      9  C   UNL d   1      -3.326   3.139   0.000  0.00  0.00     0.087 A 
ATOM     10  C   UNL d   1      -2.580   2.711   0.000  0.00  0.00     0.021 C 
ENDROOT
BRANCH   4  11
ATOM     11  N   UNL d   1      -4.042   5.238   0.000  0.00  0.00    -0.380 NA
BRANCH  11  12
ATOM     12  C   UNL d   1      -4.112   6.094   0.000  0.00  0.00     0.164 C 
BRANCH  12  13
ATOM     13  C   UNL d   1      -4.885   6.447   0.000  0.00  0.00     0.054 C 
BRANCH  13  14
ATOM     14  C   UNL d   1      -4.959   7.298   0.000  0.00  0.00     0.084 C 
BRANCH  14  15
ATOM     15  N   UNL d   1      -4.252   7.792   0.000  0.00  0.00    -0.285 N 
ATOM     16  C   UNL d   1      -4.230   8.647   0.000  0.00  0.00     0.183 A 
ATOM     17  N   UNL d   1      -3.413   8.892   0.000  0.00  0.00    -0.222 NA
ATOM     18  C   UNL d   1      -2.929   8.184   0.000  0.00  0.00     0.120 A 
ATOM     19  C   UNL d   1      -3.444   7.508   0.000  0.00  0.00     0.102 A 
ENDBRANCH  14  15
ENDBRANCH  13  14
ENDBRANCH  12  13
ENDBRANCH  11  12
ENDBRANCH   4  11
BRANCH   3  20
ATOM     20  C   UNL d   1      -5.456   1.907   0.000  0.00  0.00     0.005 A 
ATOM     21  C   UNL d   1      -6.163   1.502   0.000  0.00  0.00     0.001 A 
ATOM     22  C   UNL d   1      -6.163   0.677   0.000  0.00  0.00     0.011 A 
ATOM     23  C   UNL d   1      -5.456   0.271   0.000  0.00  0.00     0.058 A 
ATOM     24  C   UNL d   1      -4.749   0.690   0.000  0.00  0.00     0.011 A 
ATOM     25 CL   UNL d   1      -5.456  -0.594   0.000  0.00  0.00    -0.082 Cl
ATOM     26  C   UNL d   1      -4.749   1.502   0.000  0.00  0.00     0.001 A 
ENDBRANCH   3  20
TORSDOF 6
