REMARK  8 active torsions:
REMARK  status: ('A' for Active; 'I' for Inactive)
REMARK    1  A    between atoms: N_6  and  C_1 
REMARK       I    between atoms: C_2  and  N_3 
REMARK    2  A    between atoms: C_7  and  C_2 
REMARK    3  A    between atoms: N_3  and  C_4 
REMARK    4  A    between atoms: C_4  and  N_6 
REMARK    5  A    between atoms: C_10  and  C_8 
REMARK    6  A    between atoms: C_12  and  C_10 
REMARK    7  A    between atoms: O_18  and  C_12 
REMARK    8  A    between atoms: C_21  and  O_18 
ROOT
ATOM      1  C   UNL d   1       7.141  -2.953   0.000  0.00  0.00     0.277 C 
ATOM      2  S   UNL d   1       7.133  -2.127   0.000  0.00  0.00    -0.023 SA
ENDROOT
BRANCH   1   3
ATOM      3  N   UNL d   1       6.424  -3.363   0.000  0.00  0.00    -0.168 NA
ATOM      4  C   UNL d   1       5.710  -2.953   0.000  0.00  0.00     0.282 C 
ATOM      5  O   UNL d   1       5.702  -2.132   0.000  0.00  0.00    -0.265 OA
BRANCH   4   6
ATOM      6  C   UNL d   1       4.993  -3.372   0.000  0.00  0.00     0.064 A 
ATOM      7  C   UNL d   1       5.001  -4.193   0.000  0.00  0.00     0.039 A 
ATOM      8 BR   UNL d   1       5.710  -4.603   0.000  0.00  0.00    -0.049 Br
ATOM      9  C   UNL d   1       4.284  -4.603   0.000  0.00  0.00     0.007 A 
ATOM     10  C   UNL d   1       3.562  -4.193   0.000  0.00  0.00     0.001 A 
ATOM     11  C   UNL d   1       3.571  -3.363   0.000  0.00  0.00     0.000 A 
ATOM     12  C   UNL d   1       4.284  -2.953   0.000  0.00  0.00     0.005 A 
ENDBRANCH   4   6
ENDBRANCH   1   3
BRANCH   1  13
ATOM     13  N   UNL d   1       7.854  -3.359   0.000  0.00  0.00    -0.347 NA
BRANCH  13  14
ATOM     14  C   UNL d   1       8.572  -3.770   0.000  0.00  0.00     0.248 A 
ATOM     15  N   UNL d   1       8.663  -4.595   0.000  0.00  0.00    -0.210 NA
ATOM     16  C   UNL d   1       9.472  -4.757   0.000  0.00  0.00     0.096 A 
ATOM     17  C   UNL d   1       9.882  -4.035   0.000  0.00  0.00     0.059 A 
ATOM     18  S   UNL d   1       9.322  -3.434   0.000  0.00  0.00    -0.033 SA
BRANCH  16  19
ATOM     19  C   UNL d   1       9.816  -5.503   0.000  0.00  0.00     0.088 C 
BRANCH  19  20
ATOM     20  C   UNL d   1      10.637  -5.590   0.000  0.00  0.00     0.302 C 
ATOM     21  O   UNL d   1      11.114  -4.918   0.000  0.00  0.00    -0.259 OA
BRANCH  20  22
ATOM     22  O   UNL d   1      10.977  -6.337   0.000  0.00  0.00    -0.271 OA
BRANCH  22  23
ATOM     23  C   UNL d   1      10.492  -7.008   0.000  0.00  0.00     0.126 C 
ATOM     24  C   UNL d   1      10.836  -7.755   0.000  0.00  0.00     0.029 C 
ENDBRANCH  22  23
ENDBRANCH  20  22
ENDBRANCH  19  20
ENDBRANCH  16  19
ENDBRANCH  13  14
ENDBRANCH   1  13
TORSDOF 8
