REMARK  4 active torsions:
REMARK  status: ('A' for Active; 'I' for Inactive)
REMARK    1  A    between atoms: N_9  and  C_3 
REMARK    2  A    between atoms: C_11  and  C_5 
REMARK    3  A    between atoms: C_15  and  C_10 
REMARK    4  A    between atoms: C_18  and  C_15 
ROOT
ATOM      1  N   UNL d   1      -4.756   3.968   0.000  0.00  0.00    -0.196 N 
ATOM      2  C   UNL d   1      -4.756   3.132   0.000  0.00  0.00     0.167 A 
ATOM      3  C   UNL d   1      -4.038   4.356   0.000  0.00  0.00     0.152 A 
ATOM      4  N   UNL d   1      -6.176   3.968   0.000  0.00  0.00    -0.163 NA
ATOM      5  C   UNL d   1      -5.458   2.727   0.000  0.00  0.00     0.055 A 
ATOM      6  C   UNL d   1      -6.176   3.132   0.000  0.00  0.00     0.104 A 
ATOM      7  N   UNL d   1      -4.038   2.727   0.000  0.00  0.00    -0.227 NA
ATOM      8  C   UNL d   1      -3.328   3.968   0.000  0.00  0.00     0.057 A 
ATOM      9  C   UNL d   1      -3.328   3.132   0.000  0.00  0.00     0.086 A 
ATOM     10  C   UNL d   1      -6.886   2.731   0.000  0.00  0.00     0.023 C 
ENDROOT
BRANCH   5  11
ATOM     11  C   UNL d   1      -5.458   1.903   0.000  0.00  0.00     0.004 A 
ATOM     12  C   UNL d   1      -4.743   1.498   0.000  0.00  0.00     0.000 A 
ATOM     13  C   UNL d   1      -4.743   0.675   0.000  0.00  0.00     0.000 A 
ATOM     14  C   UNL d   1      -5.458   0.257   0.000  0.00  0.00     0.000 A 
ATOM     15  C   UNL d   1      -6.176   0.662   0.000  0.00  0.00     0.000 A 
ATOM     16  C   UNL d   1      -6.176   1.498   0.000  0.00  0.00     0.000 A 
ENDBRANCH   5  11
BRANCH   3  17
ATOM     17  N   UNL d   1      -4.038   5.218   0.000  0.00  0.00    -0.289 N 
ATOM     18  C   UNL d   1      -4.687   5.597   0.000  0.00  0.00     0.082 A 
ATOM     19  C   UNL d   1      -4.687   6.342   0.000  0.00  0.00     0.021 A 
ATOM     20  C   UNL d   1      -3.393   6.342   0.000  0.00  0.00     0.021 A 
ATOM     21  C   UNL d   1      -3.393   5.584   0.000  0.00  0.00     0.082 A 
ENDBRANCH   3  17
BRANCH   9  22
ATOM     22  C   UNL d   1      -2.583   2.705   0.000  0.00  0.00     0.019 C 
BRANCH  22  23
ATOM     23  C   UNL d   1      -1.829   3.132   0.000  0.00  0.00     0.002 C 
ATOM     24  C   UNL d   1      -1.093   2.705   0.000  0.00  0.00     0.000 C 
ENDBRANCH  22  23
ENDBRANCH   9  22
TORSDOF 4
