REMARK  9 active torsions:
REMARK  status: ('A' for Active; 'I' for Inactive)
REMARK    1  A    between atoms: N_6  and  C_1 
REMARK    2  A    between atoms: N_2  and  C_12 
REMARK    3  A    between atoms: C_3  and  N_6 
REMARK    4  A    between atoms: N_4  and  C_3 
REMARK       I    between atoms: C_7  and  N_4 
REMARK    5  A    between atoms: C_16  and  C_7 
REMARK    6  A    between atoms: C_10  and  C_8 
REMARK    7  A    between atoms: C_13  and  C_10 
REMARK    8  A    between atoms: O_24  and  C_13 
REMARK    9  A    between atoms: C_25  and  O_24 
ROOT
ATOM      1  C   UNL d   1       7.871  -2.543   0.000  0.00  0.00     0.277 C 
ATOM      2  S   UNL d   1       7.867  -1.718   0.000  0.00  0.00    -0.023 SA
ENDROOT
BRANCH   1   3
ATOM      3  N   UNL d   1       8.589  -2.950   0.000  0.00  0.00    -0.347 NA
BRANCH   3   4
ATOM      4  C   UNL d   1       9.302  -3.361   0.000  0.00  0.00     0.248 A 
ATOM      5  N   UNL d   1       9.398  -4.186   0.000  0.00  0.00    -0.210 NA
ATOM      6  C   UNL d   1      10.207  -4.348   0.000  0.00  0.00     0.096 A 
ATOM      7  C   UNL d   1      10.609  -3.626   0.000  0.00  0.00     0.059 A 
ATOM      8  S   UNL d   1      10.057  -3.025   0.000  0.00  0.00    -0.033 SA
BRANCH   6   9
ATOM      9  C   UNL d   1      10.547  -5.095   0.000  0.00  0.00     0.088 C 
BRANCH   9  10
ATOM     10  C   UNL d   1      11.364  -5.182   0.000  0.00  0.00     0.302 C 
ATOM     11  O   UNL d   1      11.841  -4.510   0.000  0.00  0.00    -0.259 OA
BRANCH  10  12
ATOM     12  O   UNL d   1      11.704  -5.929   0.000  0.00  0.00    -0.271 OA
BRANCH  12  13
ATOM     13  C   UNL d   1      11.227  -6.601   0.000  0.00  0.00     0.126 C 
ATOM     14  C   UNL d   1      11.568  -7.348   0.000  0.00  0.00     0.029 C 
ENDBRANCH  12  13
ENDBRANCH  10  12
ENDBRANCH   9  10
ENDBRANCH   6   9
ENDBRANCH   3   4
ENDBRANCH   1   3
BRANCH   1  15
ATOM     15  N   UNL d   1       7.157  -2.954   0.000  0.00  0.00    -0.168 NA
ATOM     16  C   UNL d   1       6.439  -2.543   0.000  0.00  0.00     0.282 C 
ATOM     17  O   UNL d   1       6.435  -1.722   0.000  0.00  0.00    -0.265 OA
BRANCH  16  18
ATOM     18  C   UNL d   1       5.726  -2.962   0.000  0.00  0.00     0.058 A 
ATOM     19  C   UNL d   1       5.730  -3.776   0.000  0.00  0.00     0.006 A 
ATOM     20  C   UNL d   1       5.016  -4.195   0.000  0.00  0.00     0.024 A 
ATOM     21  C   UNL d   1       4.298  -3.784   0.000  0.00  0.00     0.127 A 
ATOM     22  C   UNL d   1       4.298  -2.954   0.000  0.00  0.00     0.024 A 
ATOM     23  C   UNL d   1       5.008  -2.543   0.000  0.00  0.00     0.006 A 
BRANCH  21  24
ATOM     24  N   UNL d   1       3.585  -4.195   0.000  0.00  0.00    -0.114 N 
ATOM     25  O   UNL d   1       2.867  -3.784   0.000  0.00  0.00    -0.532 OA
ATOM     26  O   UNL d   1       3.589  -5.016   0.000  0.00  0.00    -0.532 OA
ENDBRANCH  21  24
ENDBRANCH  16  18
ENDBRANCH   1  15
TORSDOF 9
