REMARK  4 active torsions:
REMARK  status: ('A' for Active; 'I' for Inactive)
REMARK    1  A    between atoms: N_14  and  C_6 
REMARK    2  A    between atoms: C_19  and  N_14 
REMARK    3  A    between atoms: O_17  and  C_20 
REMARK    4  A    between atoms: C_20  and  C_19 
ROOT
ATOM      1  N   UNL d   1      -4.740   3.958   0.000  0.00  0.00    -0.183 N 
ATOM      2  C   UNL d   1      -4.740   3.128   0.000  0.00  0.00     0.169 A 
ATOM      3  C   UNL d   1      -5.444   2.711   0.000  0.00  0.00     0.073 A 
ATOM      4  C   UNL d   1      -6.147   3.128   0.000  0.00  0.00     0.185 A 
ATOM      5  N   UNL d   1      -6.147   3.958   0.000  0.00  0.00    -0.142 NA
ATOM      6  C   UNL d   1      -4.027   4.357   0.000  0.00  0.00     0.218 A 
ATOM      7  N   UNL d   1      -4.027   2.720   0.000  0.00  0.00    -0.226 NA
ATOM      8  C   UNL d   1      -5.444   1.890   0.000  0.00  0.00     0.007 A 
ATOM      9  N   UNL d   1      -6.868   2.720   0.000  0.00  0.00    -0.225 NA
ATOM     10  C   UNL d   1      -3.319   3.958   0.000  0.00  0.00     0.071 A 
ATOM     11  C   UNL d   1      -6.147   1.473   0.000  0.00  0.00     0.019 A 
ATOM     12  C   UNL d   1      -3.319   3.128   0.000  0.00  0.00     0.087 A 
ATOM     13  C   UNL d   1      -6.868   1.890   0.000  0.00  0.00     0.083 A 
ATOM     14  C   UNL d   1      -4.727   1.481   0.000  0.00  0.00     0.000 C 
ATOM     15  C   UNL d   1      -2.576   2.707   0.000  0.00  0.00     0.021 C 
ATOM     16  C   UNL d   1      -7.572   1.481   0.000  0.00  0.00     0.021 C 
ENDROOT
BRANCH   6  17
ATOM     17  N   UNL d   1      -4.036   5.213   0.000  0.00  0.00    -0.378 NA
BRANCH  17  18
ATOM     18  C   UNL d   1      -4.218   6.039   0.000  0.00  0.00     0.189 C 
BRANCH  18  19
ATOM     19  C   UNL d   1      -3.593   6.612   0.000  0.00  0.00     0.151 C 
BRANCH  19  20
ATOM     20  O   UNL d   1      -3.775   7.433   0.000  0.00  0.00    -0.323 OA
ATOM     21  C   UNL d   1      -4.583   7.707   0.000  0.00  0.00     0.182 C 
ENDBRANCH  19  20
ENDBRANCH  18  19
ENDBRANCH  17  18
ENDBRANCH   6  17
TORSDOF 4
