REMARK  6 active torsions:
REMARK  status: ('A' for Active; 'I' for Inactive)
REMARK    1  A    between atoms: C_11  and  N_3 
REMARK    2  A    between atoms: C_10  and  C_7 
REMARK       I    between atoms: N_19  and  C_10 
REMARK    3  A    between atoms: C_21  and  C_11 
REMARK    4  A    between atoms: N_15  and  C_23 
REMARK    5  A    between atoms: C_22  and  N_19 
REMARK    6  A    between atoms: C_23  and  C_22 
ROOT
ATOM      1  C   UNL d   1       3.804  -4.104   0.000  0.00  0.00     0.154 A 
ATOM      2  C   UNL d   1       3.804  -3.279   0.000  0.00  0.00     0.093 A 
ATOM      3  N   UNL d   1       4.592  -4.354   0.000  0.00  0.00    -0.286 N 
ATOM      4  N   UNL d   1       3.092  -4.517   0.000  0.00  0.00    -0.210 NA
ATOM      5  C   UNL d   1       3.092  -2.867   0.000  0.00  0.00     0.269 A 
ATOM      6  N   UNL d   1       2.379  -3.279   0.000  0.00  0.00    -0.258 N 
ATOM      7  C   UNL d   1       5.075  -3.692   0.000  0.00  0.00     0.124 A 
ATOM      8  C   UNL d   1       2.379  -4.104   0.000  0.00  0.00     0.152 A 
ATOM      9  C   UNL d   1       4.592  -3.025   0.000  0.00  0.00     0.030 A 
ATOM     10  C   UNL d   1       1.667  -2.867   0.000  0.00  0.00     0.084 A 
ATOM     11  O   UNL d   1       3.092  -2.042   0.000  0.00  0.00    -0.266 OA
ATOM     12  C   UNL d   1       1.667  -4.517   0.000  0.00  0.00     0.038 A 
ATOM     13  C   UNL d   1       0.950  -3.279   0.000  0.00  0.00     0.019 A 
ATOM     14  C   UNL d   1       0.950  -4.104   0.000  0.00  0.00     0.005 A 
ENDROOT
BRANCH   7  15
ATOM     15  C   UNL d   1       5.900  -3.700   0.000  0.00  0.00     0.295 C 
ATOM     16  O   UNL d   1       6.312  -4.412   0.000  0.00  0.00    -0.264 OA
ATOM     17  N   UNL d   1       6.312  -2.979   0.000  0.00  0.00    -0.204 NA
BRANCH  17  18
ATOM     18  C   UNL d   1       7.142  -2.979   0.000  0.00  0.00     0.121 C 
BRANCH  18  19
ATOM     19  C   UNL d   1       7.554  -2.267   0.000  0.00  0.00     0.101 C 
BRANCH  19  20
ATOM     20  N   UNL d   1       8.379  -2.267   0.000  0.00  0.00    -0.298 N 
ATOM     21  C   UNL d   1       8.792  -2.987   0.000  0.00  0.00     0.107 A 
ATOM     22  C   UNL d   1       9.625  -2.987   0.000  0.00  0.00     0.142 A 
ATOM     23  O   UNL d   1      10.037  -2.267   0.000  0.00  0.00    -0.300 OA
ATOM     24  C   UNL d   1       9.625  -1.554   0.000  0.00  0.00     0.142 A 
ATOM     25  C   UNL d   1       8.792  -1.554   0.000  0.00  0.00     0.107 A 
ENDBRANCH  19  20
ENDBRANCH  18  19
ENDBRANCH  17  18
ENDBRANCH   7  15
BRANCH   3  26
ATOM     26  C   UNL d   1       4.842  -5.142   0.000  0.00  0.00     0.082 C 
BRANCH  26  27
ATOM     27  C   UNL d   1       4.292  -5.754   0.000  0.00  0.00     0.018 A 
ATOM     28  C   UNL d   1       3.487  -5.588   0.000  0.00  0.00     0.002 A 
ATOM     29  C   UNL d   1       2.942  -6.192   0.000  0.00  0.00     0.000 A 
ATOM     30  C   UNL d   1       3.192  -6.979   0.000  0.00  0.00     0.000 A 
ATOM     31  C   UNL d   1       3.992  -7.154   0.000  0.00  0.00     0.000 A 
ATOM     32  C   UNL d   1       4.542  -6.542   0.000  0.00  0.00     0.002 A 
ENDBRANCH  26  27
ENDBRANCH   3  26
TORSDOF 6
