REMARK  4 active torsions:
REMARK  status: ('A' for Active; 'I' for Inactive)
REMARK    1  A    between atoms: C_12  and  N_3 
REMARK    2  A    between atoms: C_10  and  C_5 
REMARK       I    between atoms: N_11  and  C_10 
REMARK    3  A    between atoms: C_24  and  C_12 
REMARK    4  A    between atoms: C_25  and  N_14 
ROOT
ATOM      1  C   UNL d   1       4.292  -4.100   0.000  0.00  0.00     0.154 A 
ATOM      2  C   UNL d   1       4.292  -3.275   0.000  0.00  0.00     0.093 A 
ATOM      3  N   UNL d   1       5.079  -4.354   0.000  0.00  0.00    -0.286 N 
ATOM      4  N   UNL d   1       3.579  -4.504   0.000  0.00  0.00    -0.210 NA
ATOM      5  C   UNL d   1       5.562  -3.692   0.000  0.00  0.00     0.122 A 
ATOM      6  C   UNL d   1       3.579  -2.862   0.000  0.00  0.00     0.269 A 
ATOM      7  N   UNL d   1       2.867  -3.275   0.000  0.00  0.00    -0.258 N 
ATOM      8  C   UNL d   1       2.867  -4.100   0.000  0.00  0.00     0.152 A 
ATOM      9  C   UNL d   1       5.079  -3.017   0.000  0.00  0.00     0.030 A 
ATOM     10  C   UNL d   1       2.154  -2.862   0.000  0.00  0.00     0.084 A 
ATOM     11  O   UNL d   1       3.579  -2.038   0.000  0.00  0.00    -0.266 OA
ATOM     12  C   UNL d   1       2.154  -4.504   0.000  0.00  0.00     0.038 A 
ATOM     13  C   UNL d   1       1.438  -3.275   0.000  0.00  0.00     0.019 A 
ATOM     14  C   UNL d   1       1.438  -4.100   0.000  0.00  0.00     0.005 A 
ENDROOT
BRANCH   5  15
ATOM     15  C   UNL d   1       6.388  -3.692   0.000  0.00  0.00     0.281 C 
ATOM     16  N   UNL d   1       6.800  -2.979   0.000  0.00  0.00    -0.268 N 
ATOM     17  C   UNL d   1       6.388  -2.267   0.000  0.00  0.00     0.102 A 
ATOM     18  C   UNL d   1       7.629  -2.979   0.000  0.00  0.00     0.102 A 
ATOM     19  C   UNL d   1       6.800  -1.550   0.000  0.00  0.00     0.100 A 
ATOM     20  N   UNL d   1       7.629  -1.550   0.000  0.00  0.00    -0.300 N 
ATOM     21  C   UNL d   1       8.042  -2.267   0.000  0.00  0.00     0.100 A 
ATOM     22  O   UNL d   1       6.800  -4.404   0.000  0.00  0.00    -0.265 OA
BRANCH  20  23
ATOM     23  C   UNL d   1       8.050  -0.829   0.000  0.00  0.00     0.080 C 
ATOM     24  C   UNL d   1       8.879  -0.829   0.000  0.00  0.00     0.021 C 
ENDBRANCH  20  23
ENDBRANCH   5  15
BRANCH   3  25
ATOM     25  C   UNL d   1       5.329  -5.142   0.000  0.00  0.00     0.082 C 
BRANCH  25  26
ATOM     26  C   UNL d   1       4.779  -5.750   0.000  0.00  0.00     0.018 A 
ATOM     27  C   UNL d   1       5.029  -6.537   0.000  0.00  0.00     0.002 A 
ATOM     28  C   UNL d   1       4.479  -7.150   0.000  0.00  0.00     0.000 A 
ATOM     29  C   UNL d   1       3.679  -6.979   0.000  0.00  0.00     0.000 A 
ATOM     30  C   UNL d   1       3.425  -6.192   0.000  0.00  0.00     0.000 A 
ATOM     31  C   UNL d   1       3.975  -5.579   0.000  0.00  0.00     0.002 A 
ENDBRANCH  25  26
ENDBRANCH   3  25
TORSDOF 4
