REMARK  7 active torsions:
REMARK  status: ('A' for Active; 'I' for Inactive)
REMARK    1  A    between atoms: C_13  and  C_4 
REMARK    2  A    between atoms: N_16  and  C_6 
REMARK    3  A    between atoms: C_17  and  C_9 
REMARK    4  A    between atoms: N_11  and  C_19 
REMARK    5  A    between atoms: C_21  and  N_16 
REMARK    6  A    between atoms: C_19  and  C_20 
REMARK    7  A    between atoms: C_20  and  C_21 
ROOT
ATOM      1  C   UNL d   1      -4.713   3.103   0.000  0.00  0.00     0.168 A 
ATOM      2  N   UNL d   1      -4.713   3.932   0.000  0.00  0.00    -0.184 N 
ATOM      3  N   UNL d   1      -6.133   3.932   0.000  0.00  0.00    -0.162 NA
ATOM      4  C   UNL d   1      -5.412   2.702   0.000  0.00  0.00     0.055 A 
ATOM      5  N   UNL d   1      -4.001   2.702   0.000  0.00  0.00    -0.227 NA
ATOM      6  C   UNL d   1      -4.001   4.329   0.000  0.00  0.00     0.218 A 
ATOM      7  C   UNL d   1      -6.133   3.103   0.000  0.00  0.00     0.104 A 
ATOM      8  C   UNL d   1      -3.272   3.906   0.000  0.00  0.00     0.071 A 
ATOM      9  C   UNL d   1      -3.297   3.103   0.000  0.00  0.00     0.087 A 
ATOM     10  C   UNL d   1      -6.828   2.702   0.000  0.00  0.00     0.023 C 
ENDROOT
BRANCH   6  11
ATOM     11  N   UNL d   1      -3.997   5.179   0.000  0.00  0.00    -0.380 NA
BRANCH  11  12
ATOM     12  C   UNL d   1      -4.066   6.025   0.000  0.00  0.00     0.164 C 
BRANCH  12  13
ATOM     13  C   UNL d   1      -4.830   6.375   0.000  0.00  0.00     0.054 C 
BRANCH  13  14
ATOM     14  C   UNL d   1      -4.903   7.217   0.000  0.00  0.00     0.084 C 
BRANCH  14  15
ATOM     15  N   UNL d   1      -4.204   7.704   0.000  0.00  0.00    -0.285 N 
ATOM     16  C   UNL d   1      -4.182   8.546   0.000  0.00  0.00     0.183 A 
ATOM     17  N   UNL d   1      -3.367   8.792   0.000  0.00  0.00    -0.222 NA
ATOM     18  C   UNL d   1      -2.888   8.093   0.000  0.00  0.00     0.120 A 
ATOM     19  C   UNL d   1      -3.401   7.424   0.000  0.00  0.00     0.102 A 
ENDBRANCH  14  15
ENDBRANCH  13  14
ENDBRANCH  12  13
ENDBRANCH  11  12
ENDBRANCH   6  11
BRANCH   9  20
ATOM     20  C   UNL d   1      -2.551   2.676   0.000  0.00  0.00     0.018 C 
ATOM     21  C   UNL d   1      -2.559   1.813   0.000  0.00  0.00     0.002 C 
ATOM     22  C   UNL d   1      -1.808   3.103   0.000  0.00  0.00     0.002 C 
ENDBRANCH   9  20
BRANCH   4  23
ATOM     23  C   UNL d   1      -5.412   1.865   0.000  0.00  0.00     0.004 A 
ATOM     24  C   UNL d   1      -6.120   1.459   0.000  0.00  0.00     0.000 A 
ATOM     25  C   UNL d   1      -6.120   0.634   0.000  0.00  0.00     0.000 A 
ATOM     26  C   UNL d   1      -5.412   0.233   0.000  0.00  0.00     0.000 A 
ATOM     27  C   UNL d   1      -4.700   0.647   0.000  0.00  0.00     0.000 A 
ATOM     28  C   UNL d   1      -4.709   1.459   0.000  0.00  0.00     0.000 A 
ENDBRANCH   4  23
TORSDOF 7
