REMARK  3 active torsions:
REMARK  status: ('A' for Active; 'I' for Inactive)
REMARK    1  A    between atoms: N_11  and  C_4 
REMARK    2  A    between atoms: C_18  and  N_15 
REMARK    3  A    between atoms: C_22  and  C_18 
ROOT
ATOM      1  N   UNL d   1      -4.625   3.862   0.000  0.00  0.00    -0.195 N 
ATOM      2  C   UNL d   1      -4.625   3.053   0.000  0.00  0.00     0.168 A 
ATOM      3  C   UNL d   1      -5.312   2.646   0.000  0.00  0.00     0.073 A 
ATOM      4  C   UNL d   1      -3.930   4.252   0.000  0.00  0.00     0.153 A 
ATOM      5  N   UNL d   1      -5.999   3.862   0.000  0.00  0.00    -0.143 NA
ATOM      6  C   UNL d   1      -5.999   3.053   0.000  0.00  0.00     0.185 A 
ATOM      7  N   UNL d   1      -3.930   2.654   0.000  0.00  0.00    -0.227 NA
ATOM      8  C   UNL d   1      -5.312   1.844   0.000  0.00  0.00     0.007 A 
ATOM      9  N   UNL d   1      -6.703   2.654   0.000  0.00  0.00    -0.225 NA
ATOM     10  C   UNL d   1      -3.239   3.862   0.000  0.00  0.00     0.057 A 
ATOM     11  C   UNL d   1      -5.999   1.437   0.000  0.00  0.00     0.019 A 
ATOM     12  C   UNL d   1      -3.239   3.053   0.000  0.00  0.00     0.086 A 
ATOM     13  C   UNL d   1      -6.703   1.844   0.000  0.00  0.00     0.083 A 
ATOM     14  C   UNL d   1      -4.613   1.446   0.000  0.00  0.00     0.000 C 
ATOM     15  C   UNL d   1      -2.514   2.641   0.000  0.00  0.00     0.021 C 
ATOM     16  C   UNL d   1      -7.390   1.446   0.000  0.00  0.00     0.021 C 
ENDROOT
BRANCH   4  17
ATOM     17  N   UNL d   1      -3.938   5.088   0.000  0.00  0.00    -0.286 N 
ATOM     18  C   UNL d   1      -4.744   5.257   0.000  0.00  0.00     0.101 A 
ATOM     19  C   UNL d   1      -4.994   6.058   0.000  0.00  0.00     0.100 A 
ATOM     20  N   UNL d   1      -4.439   6.682   0.000  0.00  0.00    -0.300 N 
ATOM     21  C   UNL d   1      -3.621   6.499   0.000  0.00  0.00     0.100 A 
ATOM     22  C   UNL d   1      -3.366   5.702   0.000  0.00  0.00     0.101 A 
BRANCH  20  23
ATOM     23  C   UNL d   1      -4.693   7.470   0.000  0.00  0.00     0.080 C 
BRANCH  23  24
ATOM     24  C   UNL d   1      -4.134   8.093   0.000  0.00  0.00     0.018 A 
ATOM     25  C   UNL d   1      -3.328   7.915   0.000  0.00  0.00     0.002 A 
ATOM     26  C   UNL d   1      -2.760   8.526   0.000  0.00  0.00     0.000 A 
ATOM     27  C   UNL d   1      -3.010   9.323   0.000  0.00  0.00     0.000 A 
ATOM     28  C   UNL d   1      -3.828   9.501   0.000  0.00  0.00     0.000 A 
ATOM     29  C   UNL d   1      -4.384   8.882   0.000  0.00  0.00     0.002 A 
ENDBRANCH  23  24
ENDBRANCH  20  23
ENDBRANCH   4  17
TORSDOF 3
