REMARK  2 active torsions:
REMARK  status: ('A' for Active; 'I' for Inactive)
REMARK    1  A    between atoms: N_11  and  C_4 
REMARK    2  A    between atoms: C_16  and  N_12 
ROOT
ATOM      1  N   UNL d   1      -4.627   3.863   0.000  0.00  0.00    -0.195 N 
ATOM      2  C   UNL d   1      -4.627   3.053   0.000  0.00  0.00     0.168 A 
ATOM      3  C   UNL d   1      -5.314   2.646   0.000  0.00  0.00     0.073 A 
ATOM      4  C   UNL d   1      -3.931   4.254   0.000  0.00  0.00     0.153 A 
ATOM      5  N   UNL d   1      -6.001   3.863   0.000  0.00  0.00    -0.143 NA
ATOM      6  C   UNL d   1      -6.001   3.053   0.000  0.00  0.00     0.185 A 
ATOM      7  N   UNL d   1      -3.931   2.655   0.000  0.00  0.00    -0.227 NA
ATOM      8  C   UNL d   1      -5.314   1.845   0.000  0.00  0.00     0.007 A 
ATOM      9  N   UNL d   1      -6.705   2.655   0.000  0.00  0.00    -0.225 NA
ATOM     10  C   UNL d   1      -3.240   3.863   0.000  0.00  0.00     0.057 A 
ATOM     11  C   UNL d   1      -6.001   1.438   0.000  0.00  0.00     0.019 A 
ATOM     12  C   UNL d   1      -3.240   3.053   0.000  0.00  0.00     0.086 A 
ATOM     13  C   UNL d   1      -6.705   1.845   0.000  0.00  0.00     0.083 A 
ATOM     14  C   UNL d   1      -4.614   1.446   0.000  0.00  0.00     0.000 C 
ATOM     15  C   UNL d   1      -2.515   2.642   0.000  0.00  0.00     0.021 C 
ATOM     16  C   UNL d   1      -7.392   1.446   0.000  0.00  0.00     0.021 C 
ENDROOT
BRANCH   4  17
ATOM     17  N   UNL d   1      -3.940   5.089   0.000  0.00  0.00    -0.286 N 
ATOM     18  C   UNL d   1      -3.244   5.538   0.000  0.00  0.00     0.101 A 
ATOM     19  C   UNL d   1      -3.291   6.365   0.000  0.00  0.00     0.100 A 
ATOM     20  N   UNL d   1      -4.029   6.747   0.000  0.00  0.00    -0.301 N 
ATOM     21  C   UNL d   1      -4.741   6.298   0.000  0.00  0.00     0.100 A 
ATOM     22  C   UNL d   1      -4.690   5.471   0.000  0.00  0.00     0.101 A 
BRANCH  20  23
ATOM     23  C   UNL d   1      -4.071   7.574   0.000  0.00  0.00     0.064 A 
ATOM     24  C   UNL d   1      -3.380   8.028   0.000  0.00  0.00     0.016 A 
ATOM     25  C   UNL d   1      -2.642   7.659   0.000  0.00  0.00     0.002 C 
ATOM     26  C   UNL d   1      -3.422   8.868   0.000  0.00  0.00     0.001 A 
ATOM     27  C   UNL d   1      -4.169   9.249   0.000  0.00  0.00     0.000 A 
ATOM     28  C   UNL d   1      -4.868   8.783   0.000  0.00  0.00     0.002 A 
ATOM     29  C   UNL d   1      -4.817   7.952   0.000  0.00  0.00     0.018 A 
ENDBRANCH  20  23
ENDBRANCH   4  17
TORSDOF 2
