REMARK  7 active torsions:
REMARK  status: ('A' for Active; 'I' for Inactive)
REMARK    1  A    between atoms: C_10  and  C_3 
REMARK    2  A    between atoms: N_11  and  C_4 
REMARK    3  A    between atoms: C_21  and  N_11 
REMARK    4  A    between atoms: O_20  and  C_23 
REMARK    5  A    between atoms: C_24  and  O_20 
REMARK    6  A    between atoms: C_23  and  C_21 
REMARK    7  A    between atoms: C_22  and  C_24 
ROOT
ATOM      1  C   UNL d   1      -4.754   3.139   0.000  0.00  0.00     0.167 A 
ATOM      2  N   UNL d   1      -4.754   3.990   0.000  0.00  0.00    -0.195 N 
ATOM      3  C   UNL d   1      -5.456   2.732   0.000  0.00  0.00     0.057 A 
ATOM      4  C   UNL d   1      -4.046   4.378   0.000  0.00  0.00     0.167 A 
ATOM      5  N   UNL d   1      -6.177   3.977   0.000  0.00  0.00    -0.161 NA
ATOM      6  N   UNL d   1      -4.046   2.732   0.000  0.00  0.00    -0.227 NA
ATOM      7  C   UNL d   1      -3.326   3.977   0.000  0.00  0.00     0.058 A 
ATOM      8  C   UNL d   1      -6.177   3.152   0.000  0.00  0.00     0.124 A 
ATOM      9  C   UNL d   1      -3.326   3.139   0.000  0.00  0.00     0.086 A 
ATOM     10  C   UNL d   1      -2.580   2.711   0.000  0.00  0.00     0.021 C 
ENDROOT
BRANCH   3  11
ATOM     11  C   UNL d   1      -5.456   1.907   0.000  0.00  0.00     0.005 A 
ATOM     12  C   UNL d   1      -4.749   1.502   0.000  0.00  0.00     0.001 A 
ATOM     13  C   UNL d   1      -4.749   0.690   0.000  0.00  0.00     0.011 A 
ATOM     14  C   UNL d   1      -5.456   0.271   0.000  0.00  0.00     0.058 A 
ATOM     15  C   UNL d   1      -6.163   0.677   0.000  0.00  0.00     0.011 A 
ATOM     16 CL   UNL d   1      -5.456  -0.594   0.000  0.00  0.00    -0.082 Cl
ATOM     17  C   UNL d   1      -6.163   1.502   0.000  0.00  0.00     0.001 A 
ENDBRANCH   3  11
BRANCH   4  18
ATOM     18  N   UNL d   1      -4.042   5.238   0.000  0.00  0.00    -0.223 NA
BRANCH  18  19
ATOM     19  C   UNL d   1      -4.422   6.002   0.000  0.00  0.00     0.127 C 
BRANCH  19  20
ATOM     20  C   UNL d   1      -3.924   6.709   0.000  0.00  0.00     0.143 C 
BRANCH  20  21
ATOM     21  O   UNL d   1      -4.278   7.490   0.000  0.00  0.00    -0.298 OA
BRANCH  21  22
ATOM     22  C   UNL d   1      -3.784   8.198   0.000  0.00  0.00     0.168 C 
BRANCH  22  23
ATOM     23  C   UNL d   1      -4.147   8.975   0.000  0.00  0.00     0.261 C 
ATOM     24  O   UNL d   1      -3.654   9.682   0.000  0.00  0.00    -0.281 OA
ENDBRANCH  22  23
ENDBRANCH  21  22
ENDBRANCH  20  21
ENDBRANCH  19  20
ENDBRANCH  18  19
ENDBRANCH   4  18
TORSDOF 7
