REMARK  5 active torsions:
REMARK  status: ('A' for Active; 'I' for Inactive)
REMARK    1  A    between atoms: N_10  and  C_3 
REMARK    2  A    between atoms: C_11  and  C_5 
REMARK    3  A    between atoms: C_16  and  C_7 
REMARK    4  A    between atoms: C_15  and  N_10 
REMARK       I    between atoms: C_12  and  N_13 
REMARK    5  A    between atoms: N_13  and  C_17 
ROOT
ATOM      1  N   UNL d   1      -4.616   3.854   0.000  0.00  0.00    -0.184 N 
ATOM      2  C   UNL d   1      -4.616   3.029   0.000  0.00  0.00     0.168 A 
ATOM      3  C   UNL d   1      -3.922   4.252   0.000  0.00  0.00     0.217 A 
ATOM      4  N   UNL d   1      -5.999   3.854   0.000  0.00  0.00    -0.162 NA
ATOM      5  C   UNL d   1      -5.301   2.636   0.000  0.00  0.00     0.055 A 
ATOM      6  N   UNL d   1      -3.922   2.636   0.000  0.00  0.00    -0.227 NA
ATOM      7  C   UNL d   1      -3.224   3.854   0.000  0.00  0.00     0.066 A 
ATOM      8  C   UNL d   1      -5.999   3.042   0.000  0.00  0.00     0.104 A 
ATOM      9  C   UNL d   1      -3.224   3.029   0.000  0.00  0.00     0.087 A 
ATOM     10  C   UNL d   1      -6.689   2.636   0.000  0.00  0.00     0.023 C 
ATOM     11  C   UNL d   1      -2.496   2.610   0.000  0.00  0.00     0.021 C 
ENDROOT
BRANCH   3  12
ATOM     12  N   UNL d   1      -3.930   5.081   0.000  0.00  0.00    -0.383 NA
BRANCH  12  13
ATOM     13  C   UNL d   1      -4.032   5.902   0.000  0.00  0.00     0.134 A 
ATOM     14  C   UNL d   1      -4.793   6.223   0.000  0.00  0.00     0.034 A 
ATOM     15  C   UNL d   1      -4.886   7.048   0.000  0.00  0.00     0.022 A 
ATOM     16  C   UNL d   1      -4.226   7.543   0.000  0.00  0.00     0.085 A 
ATOM     17  C   UNL d   1      -3.461   7.226   0.000  0.00  0.00     0.022 A 
ATOM     18  C   UNL d   1      -3.359   6.397   0.000  0.00  0.00     0.034 A 
BRANCH  16  19
ATOM     19  N   UNL d   1      -4.337   8.368   0.000  0.00  0.00    -0.208 NA
ATOM     20  C   UNL d   1      -3.668   8.864   0.000  0.00  0.00     0.279 C 
ATOM     21  O   UNL d   1      -3.765   9.676   0.000  0.00  0.00    -0.265 OA
ATOM     22  C   UNL d   1      -2.906   8.546   0.000  0.00  0.00     0.068 C 
ENDBRANCH  16  19
ENDBRANCH  12  13
ENDBRANCH   3  12
BRANCH   7  23
ATOM     23  C   UNL d   1      -2.496   4.252   0.000  0.00  0.00     0.006 C 
ATOM     24  C   UNL d   1      -1.773   3.829   0.000  0.00  0.00     0.000 C 
ENDBRANCH   7  23
BRANCH   5  25
ATOM     25  C   UNL d   1      -5.301   1.836   0.000  0.00  0.00     0.004 A 
ATOM     26  C   UNL d   1      -5.987   1.430   0.000  0.00  0.00     0.000 A 
ATOM     27  C   UNL d   1      -5.987   0.618   0.000  0.00  0.00     0.000 A 
ATOM     28  C   UNL d   1      -5.301   0.224   0.000  0.00  0.00     0.000 A 
ATOM     29  C   UNL d   1      -4.603   0.630   0.000  0.00  0.00     0.000 A 
ATOM     30  C   UNL d   1      -4.603   1.430   0.000  0.00  0.00     0.000 A 
ENDBRANCH   5  25
TORSDOF 5
