REMARK  5 active torsions:
REMARK  status: ('A' for Active; 'I' for Inactive)
REMARK    1  A    between atoms: N_2  and  S_1 
REMARK    2  A    between atoms: C_5  and  S_1 
REMARK    3  A    between atoms: C_3  and  N_2 
REMARK    4  A    between atoms: C_4  and  C_3 
REMARK       I    between atoms: N_8  and  C_4 
REMARK    5  A    between atoms: C_13  and  N_8 
ROOT
ATOM      1  N   UNL d   1       4.879  -2.275   0.000  0.00  0.00    -0.223 N 
ATOM      2  C   UNL d   1       4.879  -3.100   0.000  0.00  0.00     0.112 C 
ENDROOT
BRANCH   1   3
ATOM      3  S   UNL d   1       4.167  -1.867   0.000  0.00  0.00     0.272 S 
ATOM      4  O   UNL d   1       4.162  -1.042   0.000  0.00  0.00    -0.200 OA
ATOM      5  O   UNL d   1       4.379  -2.663   0.000  0.00  0.00    -0.200 OA
BRANCH   3   6
ATOM      6  C   UNL d   1       3.454  -2.279   0.000  0.00  0.00     0.104 A 
ATOM      7  C   UNL d   1       2.737  -1.867   0.000  0.00  0.00     0.013 A 
ATOM      8  C   UNL d   1       2.025  -2.288   0.000  0.00  0.00     0.001 A 
ATOM      9  C   UNL d   1       2.025  -3.112   0.000  0.00  0.00     0.000 A 
ATOM     10  C   UNL d   1       2.737  -3.525   0.000  0.00  0.00     0.001 A 
ATOM     11  C   UNL d   1       1.304  -3.525   0.000  0.00  0.00     0.000 C 
ATOM     12  C   UNL d   1       3.454  -3.112   0.000  0.00  0.00     0.013 A 
ENDBRANCH   3   6
ENDBRANCH   1   3
BRANCH   1  13
ATOM     13  C   UNL d   1       5.592  -1.863   0.000  0.00  0.00     0.154 C 
BRANCH  13  14
ATOM     14  C   UNL d   1       6.312  -2.267   0.000  0.00  0.00     0.298 C 
ATOM     15  N   UNL d   1       7.025  -1.854   0.000  0.00  0.00    -0.207 NA
ATOM     16  O   UNL d   1       6.312  -3.092   0.000  0.00  0.00    -0.264 OA
BRANCH  15  17
ATOM     17  C   UNL d   1       7.737  -2.267   0.000  0.00  0.00     0.088 A 
ATOM     18  C   UNL d   1       7.729  -3.087   0.000  0.00  0.00     0.040 A 
ATOM     19  C   UNL d   1       8.442  -3.500   0.000  0.00  0.00     0.101 A 
ATOM     20  N   UNL d   1       9.154  -3.087   0.000  0.00  0.00    -0.242 NA
ATOM     21  C   UNL d   1       9.154  -2.263   0.000  0.00  0.00     0.101 A 
ATOM     22  C   UNL d   1       8.442  -1.854   0.000  0.00  0.00     0.040 A 
ENDBRANCH  15  17
ENDBRANCH  13  14
ENDBRANCH   1  13
TORSDOF 5
