REMARK  5 active torsions:
REMARK  status: ('A' for Active; 'I' for Inactive)
REMARK    1  A    between atoms: N_19  and  C_6 
REMARK    2  A    between atoms: N_15  and  C_21 
REMARK    3  A    between atoms: C_25  and  N_19 
REMARK    4  A    between atoms: C_21  and  C_22 
REMARK    5  A    between atoms: C_22  and  C_25 
ROOT
ATOM      1  N   UNL d   1      -4.713   3.935   0.000  0.00  0.00    -0.183 N 
ATOM      2  C   UNL d   1      -4.713   3.110   0.000  0.00  0.00     0.169 A 
ATOM      3  C   UNL d   1      -5.412   2.695   0.000  0.00  0.00     0.073 A 
ATOM      4  C   UNL d   1      -6.112   3.110   0.000  0.00  0.00     0.185 A 
ATOM      5  N   UNL d   1      -6.112   3.935   0.000  0.00  0.00    -0.142 NA
ATOM      6  C   UNL d   1      -4.004   4.332   0.000  0.00  0.00     0.218 A 
ATOM      7  N   UNL d   1      -4.004   2.704   0.000  0.00  0.00    -0.226 NA
ATOM      8  C   UNL d   1      -5.412   1.879   0.000  0.00  0.00     0.007 A 
ATOM      9  N   UNL d   1      -6.829   2.704   0.000  0.00  0.00    -0.225 NA
ATOM     10  C   UNL d   1      -3.300   3.935   0.000  0.00  0.00     0.071 A 
ATOM     11  C   UNL d   1      -6.112   1.464   0.000  0.00  0.00     0.019 A 
ATOM     12  C   UNL d   1      -3.300   3.110   0.000  0.00  0.00     0.087 A 
ATOM     13  C   UNL d   1      -6.829   1.879   0.000  0.00  0.00     0.083 A 
ATOM     14  C   UNL d   1      -4.700   1.473   0.000  0.00  0.00     0.000 C 
ATOM     15  C   UNL d   1      -2.562   2.691   0.000  0.00  0.00     0.021 C 
ATOM     16  C   UNL d   1      -7.529   1.473   0.000  0.00  0.00     0.021 C 
ENDROOT
BRANCH   6  17
ATOM     17  N   UNL d   1      -4.013   5.184   0.000  0.00  0.00    -0.380 NA
BRANCH  17  18
ATOM     18  C   UNL d   1      -4.091   6.026   0.000  0.00  0.00     0.164 C 
BRANCH  18  19
ATOM     19  C   UNL d   1      -4.855   6.376   0.000  0.00  0.00     0.054 C 
BRANCH  19  20
ATOM     20  C   UNL d   1      -4.933   7.209   0.000  0.00  0.00     0.084 C 
BRANCH  20  21
ATOM     21  N   UNL d   1      -4.246   7.702   0.000  0.00  0.00    -0.285 N 
ATOM     22  C   UNL d   1      -4.233   8.540   0.000  0.00  0.00     0.183 A 
ATOM     23  N   UNL d   1      -3.417   8.790   0.000  0.00  0.00    -0.222 NA
ATOM     24  C   UNL d   1      -2.929   8.099   0.000  0.00  0.00     0.120 A 
ATOM     25  C   UNL d   1      -3.443   7.417   0.000  0.00  0.00     0.102 A 
ENDBRANCH  20  21
ENDBRANCH  19  20
ENDBRANCH  18  19
ENDBRANCH  17  18
ENDBRANCH   6  17
TORSDOF 5
