REMARK  1 active torsions:
REMARK  status: ('A' for Active; 'I' for Inactive)
REMARK    1  A    between atoms: C_10  and  C_4 
ROOT
ATOM      1  N   UNL d   1       4.210  -0.014   0.000  0.00  0.00    -0.202 N 
ATOM      2  C   UNL d   1       3.385  -0.014   0.000  0.00  0.00     0.166 A 
ATOM      3  N   UNL d   1       4.465   0.780   0.000  0.00  0.00    -0.163 NA
ATOM      4  C   UNL d   1       3.128   0.780   0.000  0.00  0.00     0.055 A 
ATOM      5  C   UNL d   1       4.623  -0.732   0.000  0.00  0.00     0.143 A 
ATOM      6  C   UNL d   1       3.798   1.254   0.000  0.00  0.00     0.104 A 
ATOM      7  N   UNL d   1       2.973  -0.725   0.000  0.00  0.00    -0.227 NA
ATOM      8  C   UNL d   1       4.207  -1.447   0.000  0.00  0.00     0.050 A 
ATOM      9  C   UNL d   1       3.375  -1.444   0.000  0.00  0.00     0.086 A 
ATOM     10 CL   UNL d   1       5.447  -0.736   0.000  0.00  0.00    -0.061 Cl
ATOM     11  C   UNL d   1       3.798   2.079   0.000  0.00  0.00     0.023 C 
ATOM     12  C   UNL d   1       2.963  -2.155   0.000  0.00  0.00     0.021 C 
ENDROOT
BRANCH   4  13
ATOM     13  C   UNL d   1       2.344   1.038   0.000  0.00  0.00     0.004 A 
ATOM     14  C   UNL d   1       2.176   1.846   0.000  0.00  0.00     0.001 A 
ATOM     15  C   UNL d   1       1.395   2.100   0.000  0.00  0.00     0.011 A 
ATOM     16  C   UNL d   1       0.777   1.554   0.000  0.00  0.00     0.058 A 
ATOM     17  C   UNL d   1       0.942   0.749   0.000  0.00  0.00     0.011 A 
ATOM     18 CL   UNL d   1       0.000   1.811   0.000  0.00  0.00    -0.082 Cl
ATOM     19  C   UNL d   1       1.725   0.485   0.000  0.00  0.00     0.001 A 
ENDBRANCH   4  13
TORSDOF 1
