REMARK  7 active torsions:
REMARK  status: ('A' for Active; 'I' for Inactive)
REMARK    1  A    between atoms: C_11  and  C_4 
REMARK    2  A    between atoms: N_12  and  C_5 
REMARK    3  A    between atoms: C_10  and  C_8 
REMARK    4  A    between atoms: C_15  and  N_12 
REMARK    5  A    between atoms: N_13  and  C_19 
REMARK    6  A    between atoms: C_14  and  C_15 
REMARK    7  A    between atoms: C_19  and  C_14 
ROOT
ATOM      1  C   UNL d   1      -4.713   3.110   0.000  0.00  0.00     0.168 A 
ATOM      2  N   UNL d   1      -4.713   3.948   0.000  0.00  0.00    -0.184 N 
ATOM      3  N   UNL d   1      -4.004   2.704   0.000  0.00  0.00    -0.231 NA
ATOM      4  C   UNL d   1      -5.412   2.704   0.000  0.00  0.00     0.057 A 
ATOM      5  C   UNL d   1      -4.004   4.332   0.000  0.00  0.00     0.217 A 
ATOM      6  N   UNL d   1      -6.112   3.935   0.000  0.00  0.00    -0.160 NA
ATOM      7  C   UNL d   1      -3.287   3.935   0.000  0.00  0.00     0.067 A 
ATOM      8  C   UNL d   1      -3.287   3.110   0.000  0.00  0.00     0.064 A 
ATOM      9  C   UNL d   1      -6.112   3.110   0.000  0.00  0.00     0.124 A 
ENDROOT
BRANCH   5  10
ATOM     10  N   UNL d   1      -4.004   5.184   0.000  0.00  0.00    -0.380 NA
BRANCH  10  11
ATOM     11  C   UNL d   1      -4.078   6.026   0.000  0.00  0.00     0.164 C 
BRANCH  11  12
ATOM     12  C   UNL d   1      -3.369   6.497   0.000  0.00  0.00     0.054 C 
BRANCH  12  13
ATOM     13  C   UNL d   1      -3.434   7.352   0.000  0.00  0.00     0.083 C 
BRANCH  13  14
ATOM     14  N   UNL d   1      -4.199   7.715   0.000  0.00  0.00    -0.300 N 
ATOM     15  C   UNL d   1      -3.857   8.492   0.000  0.00  0.00     0.100 C 
ATOM     16  C   UNL d   1      -5.050   7.637   0.000  0.00  0.00     0.100 C 
ENDBRANCH  13  14
ENDBRANCH  12  13
ENDBRANCH  11  12
ENDBRANCH  10  11
ENDBRANCH   5  10
BRANCH   8  17
ATOM     17  C   UNL d   1      -2.549   2.682   0.000  0.00  0.00     0.036 C 
ATOM     18  C   UNL d   1      -1.823   2.255   0.000  0.00  0.00     0.006 C 
ATOM     19  C   UNL d   1      -1.814   3.110   0.000  0.00  0.00     0.006 C 
ATOM     20  C   UNL d   1      -2.553   1.827   0.000  0.00  0.00     0.006 C 
ENDBRANCH   8  17
BRANCH   4  21
ATOM     21  C   UNL d   1      -5.412   1.879   0.000  0.00  0.00     0.004 A 
ATOM     22  C   UNL d   1      -6.112   1.486   0.000  0.00  0.00     0.000 A 
ATOM     23  C   UNL d   1      -6.112   0.661   0.000  0.00  0.00     0.000 A 
ATOM     24  C   UNL d   1      -5.412   0.255   0.000  0.00  0.00     0.000 A 
ATOM     25  C   UNL d   1      -4.704   0.661   0.000  0.00  0.00     0.000 A 
ATOM     26  C   UNL d   1      -4.704   1.486   0.000  0.00  0.00     0.000 A 
ENDBRANCH   4  21
TORSDOF 7
