REMARK  4 active torsions:
REMARK  status: ('A' for Active; 'I' for Inactive)
REMARK    1  A    between atoms: N_9  and  C_3 
REMARK    2  A    between atoms: C_11  and  C_4 
REMARK    3  A    between atoms: C_15  and  C_10 
REMARK    4  A    between atoms: C_20  and  C_15 
ROOT
ATOM      1  N   UNL d   1      -4.713   3.948   0.000  0.00  0.00    -0.196 N 
ATOM      2  C   UNL d   1      -4.713   3.110   0.000  0.00  0.00     0.167 A 
ATOM      3  C   UNL d   1      -4.004   4.332   0.000  0.00  0.00     0.153 A 
ATOM      4  C   UNL d   1      -5.412   2.704   0.000  0.00  0.00     0.057 A 
ATOM      5  N   UNL d   1      -6.125   3.935   0.000  0.00  0.00    -0.161 NA
ATOM      6  N   UNL d   1      -4.004   2.704   0.000  0.00  0.00    -0.227 NA
ATOM      7  C   UNL d   1      -3.287   3.935   0.000  0.00  0.00     0.057 A 
ATOM      8  C   UNL d   1      -6.125   3.110   0.000  0.00  0.00     0.124 A 
ATOM      9  C   UNL d   1      -3.287   3.110   0.000  0.00  0.00     0.086 A 
ENDROOT
BRANCH   3  10
ATOM     10  N   UNL d   1      -4.004   5.184   0.000  0.00  0.00    -0.285 N 
ATOM     11  C   UNL d   1      -3.266   5.615   0.000  0.00  0.00     0.108 A 
ATOM     12  C   UNL d   1      -3.274   6.458   0.000  0.00  0.00     0.142 A 
ATOM     13  O   UNL d   1      -4.013   6.885   0.000  0.00  0.00    -0.300 OA
ATOM     14  C   UNL d   1      -4.739   6.445   0.000  0.00  0.00     0.142 A 
ATOM     15  C   UNL d   1      -4.739   5.603   0.000  0.00  0.00     0.108 A 
ENDBRANCH   3  10
BRANCH   9  16
ATOM     16  C   UNL d   1      -2.549   2.682   0.000  0.00  0.00     0.019 C 
BRANCH  16  17
ATOM     17  C   UNL d   1      -1.810   3.097   0.000  0.00  0.00     0.002 C 
ATOM     18  C   UNL d   1      -1.071   2.678   0.000  0.00  0.00     0.000 C 
ENDBRANCH  16  17
ENDBRANCH   9  16
BRANCH   4  19
ATOM     19  C   UNL d   1      -5.399   1.875   0.000  0.00  0.00     0.004 A 
ATOM     20  C   UNL d   1      -6.112   1.473   0.000  0.00  0.00     0.000 A 
ATOM     21  C   UNL d   1      -6.112   0.648   0.000  0.00  0.00     0.000 A 
ATOM     22  C   UNL d   1      -5.399   0.242   0.000  0.00  0.00     0.000 A 
ATOM     23  C   UNL d   1      -4.704   0.648   0.000  0.00  0.00     0.000 A 
ATOM     24  C   UNL d   1      -4.704   1.473   0.000  0.00  0.00     0.000 A 
ENDBRANCH   4  19
TORSDOF 4
