REMARK  4 active torsions:
REMARK  status: ('A' for Active; 'I' for Inactive)
REMARK    1  A    between atoms: N_10  and  C_3 
REMARK    2  A    between atoms: C_13  and  C_5 
REMARK    3  A    between atoms: C_19  and  C_9 
REMARK    4  A    between atoms: C_12  and  N_11 
ROOT
ATOM      1  N   UNL d   1      -4.628   3.861   0.000  0.00  0.00    -0.196 N 
ATOM      2  C   UNL d   1      -4.628   3.047   0.000  0.00  0.00     0.167 A 
ATOM      3  C   UNL d   1      -3.928   4.250   0.000  0.00  0.00     0.152 A 
ATOM      4  N   UNL d   1      -6.022   3.861   0.000  0.00  0.00    -0.163 NA
ATOM      5  C   UNL d   1      -5.314   2.653   0.000  0.00  0.00     0.055 A 
ATOM      6  N   UNL d   1      -3.928   2.653   0.000  0.00  0.00    -0.227 NA
ATOM      7  C   UNL d   1      -3.212   3.835   0.000  0.00  0.00     0.057 A 
ATOM      8  C   UNL d   1      -6.022   3.047   0.000  0.00  0.00     0.104 A 
ATOM      9  C   UNL d   1      -3.237   3.047   0.000  0.00  0.00     0.086 A 
ATOM     10  C   UNL d   1      -6.704   2.653   0.000  0.00  0.00     0.023 C 
ENDROOT
BRANCH   3  11
ATOM     11  N   UNL d   1      -3.924   5.085   0.000  0.00  0.00    -0.286 N 
ATOM     12  C   UNL d   1      -3.204   5.496   0.000  0.00  0.00     0.101 A 
ATOM     13  C   UNL d   1      -3.199   6.335   0.000  0.00  0.00     0.101 A 
ATOM     14  N   UNL d   1      -3.916   6.755   0.000  0.00  0.00    -0.286 N 
ATOM     15  C   UNL d   1      -4.640   6.344   0.000  0.00  0.00     0.101 A 
ATOM     16  C   UNL d   1      -4.649   5.509   0.000  0.00  0.00     0.101 A 
BRANCH  14  17
ATOM     17  C   UNL d   1      -3.911   7.590   0.000  0.00  0.00     0.148 A 
ATOM     18  N   UNL d   1      -4.636   8.009   0.000  0.00  0.00    -0.227 NA
ATOM     19  C   UNL d   1      -4.628   8.840   0.000  0.00  0.00     0.101 A 
ATOM     20  C   UNL d   1      -3.903   9.259   0.000  0.00  0.00     0.021 A 
ATOM     21  C   UNL d   1      -3.187   8.840   0.000  0.00  0.00     0.005 A 
ATOM     22  C   UNL d   1      -3.191   8.001   0.000  0.00  0.00     0.037 A 
ENDBRANCH  14  17
ENDBRANCH   3  11
BRANCH   9  23
ATOM     23  C   UNL d   1      -2.505   2.627   0.000  0.00  0.00     0.018 C 
ATOM     24  C   UNL d   1      -1.776   3.047   0.000  0.00  0.00     0.002 C 
ATOM     25  C   UNL d   1      -2.513   1.780   0.000  0.00  0.00     0.002 C 
ENDBRANCH   9  23
BRANCH   5  26
ATOM     26  C   UNL d   1      -5.314   1.831   0.000  0.00  0.00     0.004 A 
ATOM     27  C   UNL d   1      -4.623   1.432   0.000  0.00  0.00     0.000 A 
ATOM     28  C   UNL d   1      -4.615   0.636   0.000  0.00  0.00     0.000 A 
ATOM     29  C   UNL d   1      -5.314   0.229   0.000  0.00  0.00     0.000 A 
ATOM     30  C   UNL d   1      -6.009   0.623   0.000  0.00  0.00     0.000 A 
ATOM     31  C   UNL d   1      -6.009   1.432   0.000  0.00  0.00     0.000 A 
ENDBRANCH   5  26
TORSDOF 4
