REMARK  7 active torsions:
REMARK  status: ('A' for Active; 'I' for Inactive)
REMARK    1  A    between atoms: C_14  and  C_4 
REMARK    2  A    between atoms: N_17  and  C_5 
REMARK    3  A    between atoms: C_13  and  C_8 
REMARK    4  A    between atoms: N_11  and  C_18 
REMARK    5  A    between atoms: C_20  and  N_17 
REMARK    6  A    between atoms: C_18  and  C_19 
REMARK    7  A    between atoms: C_19  and  C_20 
ROOT
ATOM      1  C   UNL d   1      -4.713   3.110   0.000  0.00  0.00     0.168 A 
ATOM      2  N   UNL d   1      -4.713   3.948   0.000  0.00  0.00    -0.184 N 
ATOM      3  N   UNL d   1      -4.004   2.704   0.000  0.00  0.00    -0.231 NA
ATOM      4  C   UNL d   1      -5.412   2.704   0.000  0.00  0.00     0.057 A 
ATOM      5  C   UNL d   1      -4.004   4.332   0.000  0.00  0.00     0.217 A 
ATOM      6  N   UNL d   1      -6.112   3.935   0.000  0.00  0.00    -0.160 NA
ATOM      7  C   UNL d   1      -3.287   3.935   0.000  0.00  0.00     0.067 A 
ATOM      8  C   UNL d   1      -3.287   3.110   0.000  0.00  0.00     0.064 A 
ATOM      9  C   UNL d   1      -6.112   3.110   0.000  0.00  0.00     0.124 A 
ENDROOT
BRANCH   5  10
ATOM     10  N   UNL d   1      -4.004   5.184   0.000  0.00  0.00    -0.380 NA
BRANCH  10  11
ATOM     11  C   UNL d   1      -4.078   6.030   0.000  0.00  0.00     0.164 C 
BRANCH  11  12
ATOM     12  C   UNL d   1      -4.842   6.380   0.000  0.00  0.00     0.054 C 
BRANCH  12  13
ATOM     13  C   UNL d   1      -4.920   7.222   0.000  0.00  0.00     0.084 C 
BRANCH  13  14
ATOM     14  N   UNL d   1      -4.220   7.710   0.000  0.00  0.00    -0.285 N 
ATOM     15  C   UNL d   1      -4.207   8.553   0.000  0.00  0.00     0.183 A 
ATOM     16  N   UNL d   1      -3.395   8.799   0.000  0.00  0.00    -0.222 NA
ATOM     17  C   UNL d   1      -2.911   8.104   0.000  0.00  0.00     0.120 A 
ATOM     18  C   UNL d   1      -3.421   7.430   0.000  0.00  0.00     0.102 A 
ENDBRANCH  13  14
ENDBRANCH  12  13
ENDBRANCH  11  12
ENDBRANCH  10  11
ENDBRANCH   5  10
BRANCH   8  19
ATOM     19  C   UNL d   1      -2.549   2.682   0.000  0.00  0.00     0.036 C 
ATOM     20  C   UNL d   1      -2.553   1.827   0.000  0.00  0.00     0.006 C 
ATOM     21  C   UNL d   1      -1.823   2.255   0.000  0.00  0.00     0.006 C 
ATOM     22  C   UNL d   1      -1.814   3.110   0.000  0.00  0.00     0.006 C 
ENDBRANCH   8  19
BRANCH   4  23
ATOM     23  C   UNL d   1      -5.412   1.879   0.000  0.00  0.00     0.004 A 
ATOM     24  C   UNL d   1      -6.112   1.486   0.000  0.00  0.00     0.000 A 
ATOM     25  C   UNL d   1      -6.112   0.661   0.000  0.00  0.00     0.000 A 
ATOM     26  C   UNL d   1      -5.412   0.255   0.000  0.00  0.00     0.000 A 
ATOM     27  C   UNL d   1      -4.704   0.661   0.000  0.00  0.00     0.000 A 
ATOM     28  C   UNL d   1      -4.704   1.486   0.000  0.00  0.00     0.000 A 
ENDBRANCH   4  23
TORSDOF 7
