REMARK  4 active torsions:
REMARK  status: ('A' for Active; 'I' for Inactive)
REMARK    1  A    between atoms: N_10  and  C_3 
REMARK    2  A    between atoms: C_11  and  C_5 
REMARK    3  A    between atoms: C_12  and  N_10 
REMARK    4  A    between atoms: O_21  and  C_14 
ROOT
ATOM      1  N   UNL d   1      -4.707   3.919   0.000  0.00  0.00    -0.184 N 
ATOM      2  C   UNL d   1      -4.707   3.080   0.000  0.00  0.00     0.168 A 
ATOM      3  C   UNL d   1      -3.988   4.328   0.000  0.00  0.00     0.217 A 
ATOM      4  N   UNL d   1      -6.126   3.919   0.000  0.00  0.00    -0.162 NA
ATOM      5  C   UNL d   1      -5.408   2.680   0.000  0.00  0.00     0.055 A 
ATOM      6  N   UNL d   1      -3.988   2.680   0.000  0.00  0.00    -0.227 NA
ATOM      7  C   UNL d   1      -3.287   3.919   0.000  0.00  0.00     0.066 A 
ATOM      8  C   UNL d   1      -6.126   3.093   0.000  0.00  0.00     0.104 A 
ATOM      9  C   UNL d   1      -3.278   3.080   0.000  0.00  0.00     0.087 A 
ATOM     10  C   UNL d   1      -2.512   4.160   0.000  0.00  0.00     0.006 A 
ATOM     11  C   UNL d   1      -6.832   2.680   0.000  0.00  0.00     0.023 C 
ATOM     12  C   UNL d   1      -2.499   2.826   0.000  0.00  0.00     0.019 A 
ATOM     13  C   UNL d   1      -2.022   3.506   0.000  0.00  0.00     0.002 A 
ENDROOT
BRANCH   3  14
ATOM     14  N   UNL d   1      -3.984   5.175   0.000  0.00  0.00    -0.383 NA
BRANCH  14  15
ATOM     15  C   UNL d   1      -4.022   6.014   0.000  0.00  0.00     0.134 A 
ATOM     16  C   UNL d   1      -4.750   6.414   0.000  0.00  0.00     0.034 A 
ATOM     17  C   UNL d   1      -4.784   7.253   0.000  0.00  0.00     0.027 A 
ATOM     18  C   UNL d   1      -4.074   7.709   0.000  0.00  0.00     0.094 A 
ATOM     19  C   UNL d   1      -3.317   7.305   0.000  0.00  0.00     0.027 A 
ATOM     20  C   UNL d   1      -3.287   6.466   0.000  0.00  0.00     0.034 A 
BRANCH  18  21
ATOM     21  O   UNL d   1      -4.104   8.548   0.000  0.00  0.00    -0.328 OA
ATOM     22  C   UNL d   1      -3.390   9.000   0.000  0.00  0.00     0.181 C 
ENDBRANCH  18  21
ENDBRANCH  14  15
ENDBRANCH   3  14
BRANCH   5  23
ATOM     23  C   UNL d   1      -5.408   1.859   0.000  0.00  0.00     0.004 A 
ATOM     24  C   UNL d   1      -4.698   1.446   0.000  0.00  0.00     0.000 A 
ATOM     25  C   UNL d   1      -4.694   0.628   0.000  0.00  0.00     0.000 A 
ATOM     26  C   UNL d   1      -5.408   0.215   0.000  0.00  0.00     0.000 A 
ATOM     27  C   UNL d   1      -6.113   0.615   0.000  0.00  0.00     0.000 A 
ATOM     28  C   UNL d   1      -6.113   1.446   0.000  0.00  0.00     0.000 A 
ENDBRANCH   5  23
TORSDOF 4
