REMARK  5 active torsions:
REMARK  status: ('A' for Active; 'I' for Inactive)
REMARK    1  A    between atoms: N_2  and  S_1 
REMARK    2  A    between atoms: C_5  and  S_1 
REMARK    3  A    between atoms: C_3  and  N_2 
REMARK    4  A    between atoms: C_4  and  C_3 
REMARK       I    between atoms: N_8  and  C_4 
REMARK    5  A    between atoms: C_12  and  N_8 
ROOT
ATOM      1  N   UNL d   1       5.678  -2.534   0.000  0.00  0.00    -0.223 N 
ATOM      2  C   UNL d   1       5.678  -3.361   0.000  0.00  0.00     0.112 C 
ENDROOT
BRANCH   1   3
ATOM      3  S   UNL d   1       4.960  -2.129   0.000  0.00  0.00     0.272 S 
ATOM      4  O   UNL d   1       4.952  -1.303   0.000  0.00  0.00    -0.200 OA
ATOM      5  O   UNL d   1       5.177  -2.923   0.000  0.00  0.00    -0.200 OA
BRANCH   3   6
ATOM      6  C   UNL d   1       4.246  -2.547   0.000  0.00  0.00     0.104 A 
ATOM      7  C   UNL d   1       4.246  -3.374   0.000  0.00  0.00     0.013 A 
ATOM      8  C   UNL d   1       3.524  -3.787   0.000  0.00  0.00     0.001 A 
ATOM      9  C   UNL d   1       2.810  -3.374   0.000  0.00  0.00     0.000 A 
ATOM     10  C   UNL d   1       2.810  -2.547   0.000  0.00  0.00     0.001 A 
ATOM     11  C   UNL d   1       2.096  -3.787   0.000  0.00  0.00     0.000 C 
ATOM     12  C   UNL d   1       3.524  -2.134   0.000  0.00  0.00     0.013 A 
ENDBRANCH   3   6
ENDBRANCH   1   3
BRANCH   1  13
ATOM     13  C   UNL d   1       6.392  -2.121   0.000  0.00  0.00     0.154 C 
BRANCH  13  14
ATOM     14  C   UNL d   1       7.106  -2.534   0.000  0.00  0.00     0.298 C 
ATOM     15  N   UNL d   1       7.820  -2.117   0.000  0.00  0.00    -0.207 NA
ATOM     16  O   UNL d   1       7.106  -3.361   0.000  0.00  0.00    -0.264 OA
BRANCH  15  17
ATOM     17  C   UNL d   1       8.534  -2.530   0.000  0.00  0.00     0.085 A 
ATOM     18  C   UNL d   1       8.534  -3.349   0.000  0.00  0.00     0.019 A 
ATOM     19  C   UNL d   1       9.248  -3.762   0.000  0.00  0.00     0.002 A 
ATOM     20  C   UNL d   1       9.962  -3.349   0.000  0.00  0.00     0.000 A 
ATOM     21  C   UNL d   1       9.958  -2.522   0.000  0.00  0.00     0.002 A 
ATOM     22  C   UNL d   1       9.244  -2.117   0.000  0.00  0.00     0.019 A 
ENDBRANCH  15  17
ENDBRANCH  13  14
ENDBRANCH   1  13
TORSDOF 5
