REMARK  5 active torsions:
REMARK  status: ('A' for Active; 'I' for Inactive)
REMARK    1  A    between atoms: C_11  and  C_8 
REMARK       I    between atoms: N_22  and  C_11 
REMARK    2  A    between atoms: N_14  and  C_24 
REMARK    3  A    between atoms: C_27  and  N_22 
REMARK    4  A    between atoms: C_24  and  C_25 
REMARK    5  A    between atoms: C_25  and  C_27 
ROOT
ATOM      1  C   UNL d   1       4.888  -5.713   0.000  0.00  0.00     0.154 A 
ATOM      2  C   UNL d   1       4.888  -4.888   0.000  0.00  0.00     0.093 A 
ATOM      3  N   UNL d   1       4.167  -6.125   0.000  0.00  0.00    -0.210 NA
ATOM      4  N   UNL d   1       3.454  -4.888   0.000  0.00  0.00    -0.258 N 
ATOM      5  C   UNL d   1       4.167  -4.475   0.000  0.00  0.00     0.269 A 
ATOM      6  N   UNL d   1       5.667  -5.967   0.000  0.00  0.00    -0.285 N 
ATOM      7  C   UNL d   1       3.454  -5.713   0.000  0.00  0.00     0.152 A 
ATOM      8  C   UNL d   1       6.154  -5.304   0.000  0.00  0.00     0.124 A 
ATOM      9  C   UNL d   1       5.667  -4.629   0.000  0.00  0.00     0.030 A 
ATOM     10  C   UNL d   1       2.742  -4.475   0.000  0.00  0.00     0.084 A 
ATOM     11  C   UNL d   1       2.742  -6.125   0.000  0.00  0.00     0.038 A 
ATOM     12  C   UNL d   1       2.029  -4.888   0.000  0.00  0.00     0.018 A 
ATOM     13  C   UNL d   1       2.029  -5.713   0.000  0.00  0.00     0.005 A 
ATOM     14  O   UNL d   1       4.167  -3.650   0.000  0.00  0.00    -0.266 OA
ATOM     15  C   UNL d   1       5.925  -6.754   0.000  0.00  0.00     0.101 C 
ATOM     16  C   UNL d   1       1.304  -4.475   0.000  0.00  0.00     0.002 C 
ENDROOT
BRANCH   8  17
ATOM     17  C   UNL d   1       6.979  -5.304   0.000  0.00  0.00     0.295 C 
ATOM     18  O   UNL d   1       7.392  -6.017   0.000  0.00  0.00    -0.264 OA
ATOM     19  N   UNL d   1       7.392  -4.592   0.000  0.00  0.00    -0.205 NA
BRANCH  19  20
ATOM     20  C   UNL d   1       8.217  -4.592   0.000  0.00  0.00     0.104 C 
BRANCH  20  21
ATOM     21  C   UNL d   1       8.629  -3.879   0.000  0.00  0.00     0.040 C 
BRANCH  21  22
ATOM     22  C   UNL d   1       9.463  -3.879   0.000  0.00  0.00     0.083 C 
BRANCH  22  23
ATOM     23  N   UNL d   1       9.875  -3.167   0.000  0.00  0.00    -0.285 N 
ATOM     24  C   UNL d   1      10.679  -2.992   0.000  0.00  0.00     0.183 A 
ATOM     25  N   UNL d   1      10.767  -2.175   0.000  0.00  0.00    -0.222 NA
ATOM     26  C   UNL d   1      10.017  -1.829   0.000  0.00  0.00     0.120 A 
ATOM     27  C   UNL d   1       9.463  -2.450   0.000  0.00  0.00     0.102 A 
ENDBRANCH  22  23
ENDBRANCH  21  22
ENDBRANCH  20  21
ENDBRANCH  19  20
ENDBRANCH   8  17
TORSDOF 5
