REMARK  4 active torsions:
REMARK  status: ('A' for Active; 'I' for Inactive)
REMARK    1  A    between atoms: N_2  and  C_1 
REMARK    2  A    between atoms: N_3  and  C_1 
REMARK       I    between atoms: C_4  and  N_2 
REMARK    3  A    between atoms: C_5  and  N_3 
REMARK    4  A    between atoms: C_9  and  C_4 
ROOT
ATOM      1  C   UNL d   1       6.818  -3.244   0.000  0.00  0.00     0.276 C 
ATOM      2  S   UNL d   1       6.810  -2.419   0.000  0.00  0.00    -0.023 SA
ENDROOT
BRANCH   1   3
ATOM      3  N   UNL d   1       6.105  -3.657   0.000  0.00  0.00    -0.168 NA
ATOM      4  C   UNL d   1       5.383  -3.253   0.000  0.00  0.00     0.282 C 
ATOM      5  O   UNL d   1       5.383  -2.427   0.000  0.00  0.00    -0.265 OA
BRANCH   4   6
ATOM      6  C   UNL d   1       4.670  -3.670   0.000  0.00  0.00     0.058 C 
ATOM      7  C   UNL d   1       4.679  -4.483   0.000  0.00  0.00     0.005 C 
ATOM      8  C   UNL d   1       3.957  -3.257   0.000  0.00  0.00     0.005 C 
ENDBRANCH   4   6
ENDBRANCH   1   3
BRANCH   1   9
ATOM      9  N   UNL d   1       7.535  -3.657   0.000  0.00  0.00    -0.353 NA
BRANCH   9  10
ATOM     10  C   UNL d   1       8.248  -4.066   0.000  0.00  0.00     0.216 A 
ATOM     11  N   UNL d   1       8.961  -3.645   0.000  0.00  0.00    -0.215 NA
ATOM     12  C   UNL d   1       9.674  -4.057   0.000  0.00  0.00     0.102 A 
ATOM     13  C   UNL d   1       9.674  -4.883   0.000  0.00  0.00     0.021 A 
ATOM     14  C   UNL d   1       8.970  -5.296   0.000  0.00  0.00     0.006 A 
ATOM     15  C   UNL d   1       8.248  -4.896   0.000  0.00  0.00     0.052 A 
ENDBRANCH   9  10
ENDBRANCH   1   9
TORSDOF 4
