REMARK  7 active torsions:
REMARK  status: ('A' for Active; 'I' for Inactive)
REMARK    1  A    between atoms: C_10  and  C_4 
REMARK    2  A    between atoms: N_12  and  C_5 
REMARK    3  A    between atoms: C_11  and  C_8 
REMARK    4  A    between atoms: C_21  and  N_12 
REMARK    5  A    between atoms: N_16  and  C_25 
REMARK    6  A    between atoms: C_20  and  C_21 
REMARK    7  A    between atoms: C_25  and  C_20 
ROOT
ATOM      1  C   UNL d   1      -4.712   3.105   0.000  0.00  0.00     0.168 A 
ATOM      2  N   UNL d   1      -4.712   3.939   0.000  0.00  0.00    -0.184 N 
ATOM      3  N   UNL d   1      -4.004   2.704   0.000  0.00  0.00    -0.231 NA
ATOM      4  C   UNL d   1      -5.412   2.704   0.000  0.00  0.00     0.057 A 
ATOM      5  C   UNL d   1      -4.004   4.332   0.000  0.00  0.00     0.217 A 
ATOM      6  N   UNL d   1      -6.111   3.935   0.000  0.00  0.00    -0.160 NA
ATOM      7  C   UNL d   1      -3.291   3.935   0.000  0.00  0.00     0.067 A 
ATOM      8  C   UNL d   1      -3.291   3.105   0.000  0.00  0.00     0.064 A 
ATOM      9  C   UNL d   1      -6.111   3.118   0.000  0.00  0.00     0.124 A 
ENDROOT
BRANCH   4  10
ATOM     10  C   UNL d   1      -5.412   1.887   0.000  0.00  0.00     0.005 A 
ATOM     11  C   UNL d   1      -6.111   1.473   0.000  0.00  0.00     0.001 A 
ATOM     12  C   UNL d   1      -6.111   0.648   0.000  0.00  0.00     0.011 A 
ATOM     13  C   UNL d   1      -5.412   0.246   0.000  0.00  0.00     0.058 A 
ATOM     14  C   UNL d   1      -4.703   0.669   0.000  0.00  0.00     0.011 A 
ATOM     15 CL   UNL d   1      -5.412  -0.600   0.000  0.00  0.00    -0.082 Cl
ATOM     16  C   UNL d   1      -4.703   1.473   0.000  0.00  0.00     0.001 A 
ENDBRANCH   4  10
BRANCH   5  17
ATOM     17  N   UNL d   1      -4.004   5.183   0.000  0.00  0.00    -0.380 NA
BRANCH  17  18
ATOM     18  C   UNL d   1      -4.077   6.025   0.000  0.00  0.00     0.164 C 
BRANCH  18  19
ATOM     19  C   UNL d   1      -3.377   6.496   0.000  0.00  0.00     0.054 C 
BRANCH  19  20
ATOM     20  C   UNL d   1      -3.447   7.351   0.000  0.00  0.00     0.083 C 
BRANCH  20  21
ATOM     21  N   UNL d   1      -4.211   7.710   0.000  0.00  0.00    -0.300 N 
ATOM     22  C   UNL d   1      -3.874   8.491   0.000  0.00  0.00     0.100 C 
ATOM     23  C   UNL d   1      -5.053   7.632   0.000  0.00  0.00     0.100 C 
ENDBRANCH  20  21
ENDBRANCH  19  20
ENDBRANCH  18  19
ENDBRANCH  17  18
ENDBRANCH   5  17
BRANCH   8  24
ATOM     24  C   UNL d   1      -2.553   2.678   0.000  0.00  0.00     0.036 C 
ATOM     25  C   UNL d   1      -1.823   2.250   0.000  0.00  0.00     0.006 C 
ATOM     26  C   UNL d   1      -1.814   3.105   0.000  0.00  0.00     0.006 C 
ATOM     27  C   UNL d   1      -2.561   1.823   0.000  0.00  0.00     0.006 C 
ENDBRANCH   8  24
TORSDOF 7
