REMARK  4 active torsions:
REMARK  status: ('A' for Active; 'I' for Inactive)
REMARK    1  A    between atoms: N_10  and  C_3 
REMARK    2  A    between atoms: C_12  and  C_5 
REMARK    3  A    between atoms: C_20  and  N_11 
REMARK    4  A    between atoms: C_24  and  C_20 
ROOT
ATOM      1  N   UNL d   1      -4.701   3.919   0.000  0.00  0.00    -0.196 N 
ATOM      2  C   UNL d   1      -4.701   3.089   0.000  0.00  0.00     0.167 A 
ATOM      3  C   UNL d   1      -3.983   4.318   0.000  0.00  0.00     0.152 A 
ATOM      4  N   UNL d   1      -6.110   3.914   0.000  0.00  0.00    -0.163 NA
ATOM      5  C   UNL d   1      -5.397   2.677   0.000  0.00  0.00     0.055 A 
ATOM      6  N   UNL d   1      -3.983   2.677   0.000  0.00  0.00    -0.227 NA
ATOM      7  C   UNL d   1      -3.274   3.914   0.000  0.00  0.00     0.052 A 
ATOM      8  C   UNL d   1      -6.110   3.089   0.000  0.00  0.00     0.104 A 
ATOM      9  C   UNL d   1      -3.274   3.089   0.000  0.00  0.00     0.086 A 
ATOM     10  C   UNL d   1      -2.561   4.336   0.000  0.00  0.00     0.004 A 
ATOM     11  C   UNL d   1      -6.811   2.690   0.000  0.00  0.00     0.023 C 
ATOM     12  C   UNL d   1      -2.561   2.677   0.000  0.00  0.00     0.019 A 
ATOM     13  C   UNL d   1      -1.839   3.914   0.000  0.00  0.00     0.000 A 
ATOM     14  C   UNL d   1      -1.839   3.089   0.000  0.00  0.00     0.002 A 
ENDROOT
BRANCH   3  15
ATOM     15  N   UNL d   1      -3.979   5.161   0.000  0.00  0.00    -0.286 N 
ATOM     16  C   UNL d   1      -4.752   5.521   0.000  0.00  0.00     0.101 A 
ATOM     17  C   UNL d   1      -4.830   6.368   0.000  0.00  0.00     0.100 A 
ATOM     18  N   UNL d   1      -4.134   6.858   0.000  0.00  0.00    -0.297 N 
ATOM     19  C   UNL d   1      -3.373   6.501   0.000  0.00  0.00     0.100 A 
ATOM     20  C   UNL d   1      -3.296   5.650   0.000  0.00  0.00     0.101 A 
BRANCH  18  21
ATOM     21  C   UNL d   1      -4.211   7.700   0.000  0.00  0.00     0.126 C 
BRANCH  21  22
ATOM     22  C   UNL d   1      -3.528   8.203   0.000  0.00  0.00     0.253 C 
ATOM     23  O   UNL d   1      -3.605   9.041   0.000  0.00  0.00    -0.281 OA
ENDBRANCH  21  22
ENDBRANCH  18  21
ENDBRANCH   3  15
BRANCH   5  24
ATOM     24  C   UNL d   1      -5.397   1.852   0.000  0.00  0.00     0.004 A 
ATOM     25  C   UNL d   1      -4.688   1.452   0.000  0.00  0.00     0.000 A 
ATOM     26  C   UNL d   1      -4.688   0.627   0.000  0.00  0.00     0.000 A 
ATOM     27  C   UNL d   1      -5.397   0.215   0.000  0.00  0.00     0.000 A 
ATOM     28  C   UNL d   1      -6.106   0.627   0.000  0.00  0.00     0.000 A 
ATOM     29  C   UNL d   1      -6.106   1.452   0.000  0.00  0.00     0.000 A 
ENDBRANCH   5  24
TORSDOF 4
