REMARK  5 active torsions:
REMARK  status: ('A' for Active; 'I' for Inactive)
REMARK    1  A    between atoms: N_10  and  C_3 
REMARK    2  A    between atoms: C_11  and  C_5 
REMARK    3  A    between atoms: C_15  and  C_9 
REMARK    4  A    between atoms: C_16  and  N_10 
REMARK       I    between atoms: C_12  and  N_13 
REMARK    5  A    between atoms: N_13  and  C_17 
ROOT
ATOM      1  C   UNL d   1      -4.648   3.061   0.000  0.00  0.00     0.168 A 
ATOM      2  N   UNL d   1      -4.648   3.878   0.000  0.00  0.00    -0.184 N 
ATOM      3  C   UNL d   1      -3.946   4.269   0.000  0.00  0.00     0.218 A 
ATOM      4  N   UNL d   1      -6.049   3.878   0.000  0.00  0.00    -0.162 NA
ATOM      5  C   UNL d   1      -5.338   2.665   0.000  0.00  0.00     0.055 A 
ATOM      6  N   UNL d   1      -3.946   2.665   0.000  0.00  0.00    -0.227 NA
ATOM      7  C   UNL d   1      -3.227   3.852   0.000  0.00  0.00     0.071 A 
ATOM      8  C   UNL d   1      -6.049   3.061   0.000  0.00  0.00     0.104 A 
ATOM      9  C   UNL d   1      -3.252   3.061   0.000  0.00  0.00     0.087 A 
ATOM     10  C   UNL d   1      -6.734   2.665   0.000  0.00  0.00     0.023 C 
ENDROOT
BRANCH   3  11
ATOM     11  N   UNL d   1      -3.942   5.108   0.000  0.00  0.00    -0.383 NA
BRANCH  11  12
ATOM     12  C   UNL d   1      -4.044   5.930   0.000  0.00  0.00     0.134 A 
ATOM     13  C   UNL d   1      -4.797   6.262   0.000  0.00  0.00     0.034 A 
ATOM     14  C   UNL d   1      -4.891   7.104   0.000  0.00  0.00     0.022 A 
ATOM     15  C   UNL d   1      -4.223   7.598   0.000  0.00  0.00     0.085 A 
ATOM     16  C   UNL d   1      -3.456   7.266   0.000  0.00  0.00     0.022 A 
ATOM     17  C   UNL d   1      -3.354   6.428   0.000  0.00  0.00     0.034 A 
BRANCH  15  18
ATOM     18  N   UNL d   1      -4.312   8.428   0.000  0.00  0.00    -0.208 NA
ATOM     19  C   UNL d   1      -3.648   8.918   0.000  0.00  0.00     0.279 C 
ATOM     20  O   UNL d   1      -3.737   9.744   0.000  0.00  0.00    -0.265 OA
ATOM     21  C   UNL d   1      -2.882   8.586   0.000  0.00  0.00     0.068 C 
ENDBRANCH  15  18
ENDBRANCH  11  12
ENDBRANCH   3  11
BRANCH   9  22
ATOM     22  C   UNL d   1      -2.516   2.639   0.000  0.00  0.00     0.018 C 
ATOM     23  C   UNL d   1      -2.524   1.788   0.000  0.00  0.00     0.002 C 
ATOM     24  C   UNL d   1      -1.784   3.061   0.000  0.00  0.00     0.002 C 
ENDBRANCH   9  22
BRANCH   5  25
ATOM     25  C   UNL d   1      -5.338   1.839   0.000  0.00  0.00     0.004 A 
ATOM     26  C   UNL d   1      -6.036   1.439   0.000  0.00  0.00     0.000 A 
ATOM     27  C   UNL d   1      -6.036   0.626   0.000  0.00  0.00     0.000 A 
ATOM     28  C   UNL d   1      -5.338   0.230   0.000  0.00  0.00     0.000 A 
ATOM     29  C   UNL d   1      -4.636   0.638   0.000  0.00  0.00     0.000 A 
ATOM     30  C   UNL d   1      -4.644   1.439   0.000  0.00  0.00     0.000 A 
ENDBRANCH   5  25
TORSDOF 5
