REMARK  1 active torsions:
REMARK  status: ('A' for Active; 'I' for Inactive)
REMARK    1  A    between atoms: C_7  and  N_1 
ROOT
ATOM      1  N   UNL d   1       0.329   0.037   0.000  0.00  0.00    -0.259 N 
ATOM      2  C   UNL d   1      -0.395   0.458   0.000  0.00  0.00     0.267 A 
ATOM      3  C   UNL d   1       0.337  -0.790   0.000  0.00  0.00     0.150 A 
ATOM      4  N   UNL d   1      -0.383  -1.210   0.000  0.00  0.00    -0.228 NA
ATOM      5  C   UNL d   1      -1.106   0.033   0.000  0.00  0.00     0.074 A 
ATOM      6  C   UNL d   1      -1.098  -0.803   0.000  0.00  0.00     0.088 A 
ATOM      7  O   UNL d   1      -0.395   1.281   0.000  0.00  0.00    -0.267 OA
ATOM      8  C   UNL d   1       1.052  -1.202   0.000  0.00  0.00     0.041 C 
ATOM      9  C   UNL d   1      -1.818   0.445   0.000  0.00  0.00     0.006 A 
ATOM     10  C   UNL d   1      -1.818  -1.210   0.000  0.00  0.00     0.019 A 
ATOM     11  C   UNL d   1      -2.529   0.025   0.000  0.00  0.00     0.000 A 
ATOM     12  C   UNL d   1      -2.529  -0.799   0.000  0.00  0.00     0.002 A 
ENDROOT
BRANCH   1  13
ATOM     13  C   UNL d   1       1.040   0.449   0.000  0.00  0.00     0.068 A 
ATOM     14  C   UNL d   1       1.760   0.037   0.000  0.00  0.00     0.020 A 
ATOM     15  C   UNL d   1       2.471   0.458   0.000  0.00  0.00     0.031 A 
ATOM     16  C   UNL d   1       2.471   1.281   0.000  0.00  0.00     0.140 A 
ATOM     17  C   UNL d   1       1.751   1.685   0.000  0.00  0.00     0.031 A 
ATOM     18  F   UNL d   1       3.182   1.693   0.000  0.00  0.00    -0.204 F 
ATOM     19  C   UNL d   1       1.040   1.269   0.000  0.00  0.00     0.020 A 
ENDBRANCH   1  13
TORSDOF 1
