REMARK  4 active torsions:
REMARK  status: ('A' for Active; 'I' for Inactive)
REMARK    1  A    between atoms: N_10  and  C_3 
REMARK    2  A    between atoms: C_11  and  C_4 
REMARK    3  A    between atoms: C_17  and  N_10 
REMARK       I    between atoms: C_12  and  N_13 
REMARK    4  A    between atoms: N_13  and  C_18 
ROOT
ATOM      1  C   UNL d   1      -4.693   3.098   0.000  0.00  0.00     0.168 A 
ATOM      2  N   UNL d   1      -4.693   3.939   0.000  0.00  0.00    -0.184 N 
ATOM      3  C   UNL d   1      -3.995   4.322   0.000  0.00  0.00     0.218 A 
ATOM      4  C   UNL d   1      -5.387   2.698   0.000  0.00  0.00     0.057 A 
ATOM      5  N   UNL d   1      -6.098   3.926   0.000  0.00  0.00    -0.160 NA
ATOM      6  N   UNL d   1      -3.995   2.698   0.000  0.00  0.00    -0.227 NA
ATOM      7  C   UNL d   1      -3.284   3.926   0.000  0.00  0.00     0.071 A 
ATOM      8  C   UNL d   1      -6.098   3.111   0.000  0.00  0.00     0.124 A 
ATOM      9  C   UNL d   1      -3.284   3.098   0.000  0.00  0.00     0.087 A 
ATOM     10  C   UNL d   1      -2.547   2.676   0.000  0.00  0.00     0.021 C 
ENDROOT
BRANCH   3  11
ATOM     11  N   UNL d   1      -3.990   5.171   0.000  0.00  0.00    -0.383 NA
BRANCH  11  12
ATOM     12  C   UNL d   1      -4.094   6.003   0.000  0.00  0.00     0.134 A 
ATOM     13  C   UNL d   1      -4.856   6.339   0.000  0.00  0.00     0.034 A 
ATOM     14  C   UNL d   1      -4.951   7.192   0.000  0.00  0.00     0.022 A 
ATOM     15  C   UNL d   1      -4.275   7.692   0.000  0.00  0.00     0.085 A 
ATOM     16  C   UNL d   1      -3.499   7.356   0.000  0.00  0.00     0.022 A 
ATOM     17  C   UNL d   1      -3.400   6.507   0.000  0.00  0.00     0.034 A 
BRANCH  15  18
ATOM     18  N   UNL d   1      -4.370   8.532   0.000  0.00  0.00    -0.208 NA
ATOM     19  C   UNL d   1      -3.693   9.037   0.000  0.00  0.00     0.279 C 
ATOM     20  O   UNL d   1      -3.784   9.868   0.000  0.00  0.00    -0.265 OA
ATOM     21  C   UNL d   1      -2.917   8.700   0.000  0.00  0.00     0.068 C 
ENDBRANCH  15  18
ENDBRANCH  11  12
ENDBRANCH   3  11
BRANCH   4  22
ATOM     22  C   UNL d   1      -5.387   1.883   0.000  0.00  0.00     0.005 A 
ATOM     23  C   UNL d   1      -6.085   1.482   0.000  0.00  0.00     0.001 A 
ATOM     24  C   UNL d   1      -6.085   0.668   0.000  0.00  0.00     0.011 A 
ATOM     25  C   UNL d   1      -5.387   0.267   0.000  0.00  0.00     0.058 A 
ATOM     26  C   UNL d   1      -4.689   0.681   0.000  0.00  0.00     0.011 A 
ATOM     27 CL   UNL d   1      -5.387  -0.586   0.000  0.00  0.00    -0.082 Cl
ATOM     28  C   UNL d   1      -4.689   1.482   0.000  0.00  0.00     0.001 A 
ENDBRANCH   4  22
TORSDOF 4
