REMARK  9 active torsions:
REMARK  status: ('A' for Active; 'I' for Inactive)
REMARK    1  A    between atoms: N_6  and  C_1 
REMARK    2  A    between atoms: N_2  and  C_10 
REMARK    3  A    between atoms: C_3  and  N_6 
REMARK    4  A    between atoms: N_4  and  C_3 
REMARK       I    between atoms: C_7  and  N_4 
REMARK    5  A    between atoms: C_12  and  C_7 
REMARK    6  A    between atoms: C_11  and  C_8 
REMARK    7  A    between atoms: C_15  and  C_11 
REMARK    8  A    between atoms: O_21  and  C_15 
REMARK    9  A    between atoms: C_25  and  O_21 
ROOT
ATOM      1  C   UNL d   1       7.886  -3.155   0.000  0.00  0.00     0.277 C 
ATOM      2  S   UNL d   1       7.882  -2.324   0.000  0.00  0.00    -0.023 SA
ENDROOT
BRANCH   1   3
ATOM      3  N   UNL d   1       8.605  -3.558   0.000  0.00  0.00    -0.347 NA
BRANCH   3   4
ATOM      4  C   UNL d   1       9.320  -3.970   0.000  0.00  0.00     0.248 A 
ATOM      5  N   UNL d   1       9.415  -4.801   0.000  0.00  0.00    -0.210 NA
ATOM      6  C   UNL d   1      10.226  -4.963   0.000  0.00  0.00     0.096 A 
ATOM      7  C   UNL d   1      10.629  -4.244   0.000  0.00  0.00     0.059 A 
ATOM      8  S   UNL d   1      10.076  -3.633   0.000  0.00  0.00    -0.033 SA
BRANCH   6   9
ATOM      9  C   UNL d   1      10.567  -5.716   0.000  0.00  0.00     0.088 C 
BRANCH   9  10
ATOM     10  C   UNL d   1      11.386  -5.799   0.000  0.00  0.00     0.302 C 
ATOM     11  O   UNL d   1      11.864  -5.125   0.000  0.00  0.00    -0.259 OA
BRANCH  10  12
ATOM     12  O   UNL d   1      11.727  -6.551   0.000  0.00  0.00    -0.271 OA
BRANCH  12  13
ATOM     13  C   UNL d   1      11.249  -7.221   0.000  0.00  0.00     0.126 C 
ATOM     14  C   UNL d   1      11.590  -7.973   0.000  0.00  0.00     0.029 C 
ENDBRANCH  12  13
ENDBRANCH  10  12
ENDBRANCH   9  10
ENDBRANCH   6   9
ENDBRANCH   3   4
ENDBRANCH   1   3
BRANCH   1  15
ATOM     15  N   UNL d   1       7.171  -3.567   0.000  0.00  0.00    -0.168 NA
ATOM     16  C   UNL d   1       6.452  -3.159   0.000  0.00  0.00     0.282 C 
ATOM     17  O   UNL d   1       6.447  -2.332   0.000  0.00  0.00    -0.265 OA
BRANCH  16  18
ATOM     18  C   UNL d   1       5.737  -3.571   0.000  0.00  0.00     0.060 A 
ATOM     19  C   UNL d   1       5.018  -3.159   0.000  0.00  0.00     0.028 A 
ATOM     20  C   UNL d   1       4.307  -3.571   0.000  0.00  0.00     0.127 A 
ATOM     21  C   UNL d   1       4.302  -4.394   0.000  0.00  0.00     0.024 A 
ATOM     22  C   UNL d   1       5.018  -4.806   0.000  0.00  0.00     0.002 A 
ATOM     23  C   UNL d   1       5.741  -4.394   0.000  0.00  0.00     0.005 A 
BRANCH  20  24
ATOM     24  N   UNL d   1       3.596  -3.147   0.000  0.00  0.00    -0.114 N 
ATOM     25  O   UNL d   1       3.596  -2.324   0.000  0.00  0.00    -0.532 OA
ATOM     26  O   UNL d   1       2.881  -3.558   0.000  0.00  0.00    -0.532 OA
ENDBRANCH  20  24
ENDBRANCH  16  18
ENDBRANCH   1  15
TORSDOF 9
