REMARK  5 active torsions:
REMARK  status: ('A' for Active; 'I' for Inactive)
REMARK    1  A    between atoms: N_8  and  C_1 
REMARK    2  A    between atoms: C_11  and  N_4 
REMARK    3  A    between atoms: N_6  and  C_7 
REMARK       I    between atoms: C_9  and  N_6 
REMARK    4  A    between atoms: C_7  and  N_8 
REMARK    5  A    between atoms: C_14  and  C_9 
ROOT
ATOM      1  C   UNL d   1       8.686  -3.915   0.000  0.00  0.00     0.209 A 
ATOM      2  C   UNL d   1      10.000  -3.563   0.000  0.00  0.00     0.310 A 
ATOM      3  N   UNL d   1       9.647  -4.876   0.000  0.00  0.00    -0.237 N 
ATOM      4  N   UNL d   1      10.201  -4.322   0.000  0.00  0.00    -0.208 N 
ATOM      5  C   UNL d   1       8.888  -4.670   0.000  0.00  0.00     0.116 A 
ATOM      6  O   UNL d   1      10.428  -2.812   0.000  0.00  0.00    -0.262 OA
ATOM      7  C   UNL d   1       9.849  -5.631   0.000  0.00  0.00     0.120 C 
ATOM      8  C   UNL d   1       8.334  -5.229   0.000  0.00  0.00     0.024 C 
ENDROOT
BRANCH   1   9
ATOM      9  N   UNL d   1       7.935  -3.479   0.000  0.00  0.00    -0.366 NA
BRANCH   9  10
ATOM     10  C   UNL d   1       7.218  -3.063   0.000  0.00  0.00     0.275 C 
ATOM     11  S   UNL d   1       7.218  -2.232   0.000  0.00  0.00    -0.023 SA
BRANCH  10  12
ATOM     12  N   UNL d   1       6.500  -3.479   0.000  0.00  0.00    -0.168 NA
ATOM     13  C   UNL d   1       5.783  -3.063   0.000  0.00  0.00     0.282 C 
ATOM     14  O   UNL d   1       5.783  -2.232   0.000  0.00  0.00    -0.265 OA
BRANCH  13  15
ATOM     15  C   UNL d   1       5.065  -3.479   0.000  0.00  0.00     0.058 A 
ATOM     16  C   UNL d   1       5.065  -4.305   0.000  0.00  0.00     0.005 A 
ATOM     17  C   UNL d   1       4.343  -4.721   0.000  0.00  0.00     0.000 A 
ATOM     18  C   UNL d   1       3.617  -4.297   0.000  0.00  0.00     0.000 A 
ATOM     19  C   UNL d   1       3.626  -3.466   0.000  0.00  0.00     0.000 A 
ATOM     20  C   UNL d   1       4.343  -3.059   0.000  0.00  0.00     0.005 A 
ENDBRANCH  13  15
ENDBRANCH  10  12
ENDBRANCH   9  10
ENDBRANCH   1   9
BRANCH   4  21
ATOM     21  C   UNL d   1      10.957  -4.524   0.000  0.00  0.00     0.085 A 
ATOM     22  C   UNL d   1      11.158  -5.279   0.000  0.00  0.00     0.019 A 
ATOM     23  C   UNL d   1      11.913  -5.489   0.000  0.00  0.00     0.002 A 
ATOM     24  C   UNL d   1      12.476  -4.926   0.000  0.00  0.00     0.000 A 
ATOM     25  C   UNL d   1      12.266  -4.171   0.000  0.00  0.00     0.002 A 
ATOM     26  C   UNL d   1      11.511  -3.970   0.000  0.00  0.00     0.019 A 
ENDBRANCH   4  21
TORSDOF 5
