REMARK  5 active torsions:
REMARK  status: ('A' for Active; 'I' for Inactive)
REMARK    1  A    between atoms: C_10  and  C_3 
REMARK    2  A    between atoms: N_9  and  C_4 
REMARK    3  A    between atoms: C_16  and  N_12 
REMARK    4  A    between atoms: O_21  and  C_15 
REMARK    5  A    between atoms: C_20  and  C_16 
ROOT
ATOM      1  N   UNL d   1      -4.639   3.863   0.000  0.00  0.00    -0.196 N 
ATOM      2  C   UNL d   1      -4.639   3.041   0.000  0.00  0.00     0.167 A 
ATOM      3  C   UNL d   1      -5.314   2.646   0.000  0.00  0.00     0.057 A 
ATOM      4  C   UNL d   1      -3.927   4.241   0.000  0.00  0.00     0.152 A 
ATOM      5  N   UNL d   1      -6.013   3.851   0.000  0.00  0.00    -0.163 NA
ATOM      6  C   UNL d   1      -6.013   3.053   0.000  0.00  0.00     0.104 A 
ATOM      7  N   UNL d   1      -3.927   2.646   0.000  0.00  0.00    -0.227 NA
ATOM      8  C   UNL d   1      -3.240   3.851   0.000  0.00  0.00     0.057 A 
ATOM      9  C   UNL d   1      -3.240   3.041   0.000  0.00  0.00     0.086 A 
ATOM     10  C   UNL d   1      -6.734   2.642   0.000  0.00  0.00     0.023 C 
ATOM     11  C   UNL d   1      -2.515   2.629   0.000  0.00  0.00     0.021 C 
ENDROOT
BRANCH   4  12
ATOM     12  N   UNL d   1      -3.927   5.080   0.000  0.00  0.00    -0.286 N 
ATOM     13  C   UNL d   1      -4.729   5.271   0.000  0.00  0.00     0.101 A 
ATOM     14  C   UNL d   1      -4.970   6.069   0.000  0.00  0.00     0.100 A 
ATOM     15  N   UNL d   1      -4.410   6.684   0.000  0.00  0.00    -0.300 N 
ATOM     16  C   UNL d   1      -3.596   6.493   0.000  0.00  0.00     0.100 A 
ATOM     17  C   UNL d   1      -3.346   5.691   0.000  0.00  0.00     0.101 A 
BRANCH  15  18
ATOM     18  C   UNL d   1      -4.665   7.485   0.000  0.00  0.00     0.080 C 
BRANCH  18  19
ATOM     19  C   UNL d   1      -4.092   8.096   0.000  0.00  0.00     0.018 A 
ATOM     20  C   UNL d   1      -3.282   7.905   0.000  0.00  0.00     0.002 A 
ATOM     21  C   UNL d   1      -2.710   8.516   0.000  0.00  0.00     0.000 A 
ATOM     22  C   UNL d   1      -2.960   9.304   0.000  0.00  0.00     0.000 A 
ATOM     23  C   UNL d   1      -3.774   9.495   0.000  0.00  0.00     0.000 A 
ATOM     24  C   UNL d   1      -4.334   8.884   0.000  0.00  0.00     0.002 A 
ENDBRANCH  18  19
ENDBRANCH  15  18
ENDBRANCH   4  12
BRANCH   3  25
ATOM     25  C   UNL d   1      -5.314   1.841   0.000  0.00  0.00     0.027 A 
ATOM     26  C   UNL d   1      -6.013   1.433   0.000  0.00  0.00     0.094 A 
ATOM     27  C   UNL d   1      -6.013   0.632   0.000  0.00  0.00     0.024 A 
ATOM     28  C   UNL d   1      -5.314   0.237   0.000  0.00  0.00     0.002 A 
ATOM     29  C   UNL d   1      -4.627   0.645   0.000  0.00  0.00     0.000 A 
ATOM     30  C   UNL d   1      -4.627   1.433   0.000  0.00  0.00     0.002 A 
BRANCH  26  31
ATOM     31  O   UNL d   1      -6.734   1.853   0.000  0.00  0.00    -0.328 OA
ATOM     32  C   UNL d   1      -7.460   1.433   0.000  0.00  0.00     0.181 C 
ENDBRANCH  26  31
ENDBRANCH   3  25
TORSDOF 5
