REMARK  5 active torsions:
REMARK  status: ('A' for Active; 'I' for Inactive)
REMARK    1  A    between atoms: C_10  and  C_4 
REMARK    2  A    between atoms: C_19  and  N_5 
REMARK       I    between atoms: N_11  and  C_10 
REMARK    3  A    between atoms: C_22  and  C_19 
REMARK    4  A    between atoms: C_26  and  C_22 
REMARK    5  A    between atoms: O_23  and  C_26 
ROOT
ATOM      1  C   UNL d   1       2.911   0.377   0.000  0.00  0.00     0.154 A 
ATOM      2  C   UNL d   1       2.911   1.202   0.000  0.00  0.00     0.093 A 
ATOM      3  N   UNL d   1       2.213  -0.030   0.000  0.00  0.00    -0.210 NA
ATOM      4  C   UNL d   1       4.282   0.377   0.000  0.00  0.00     0.122 A 
ATOM      5  N   UNL d   1       3.592  -0.030   0.000  0.00  0.00    -0.286 N 
ATOM      6  C   UNL d   1       2.221   1.620   0.000  0.00  0.00     0.269 A 
ATOM      7  N   UNL d   1       1.527   1.202   0.000  0.00  0.00    -0.258 N 
ATOM      8  C   UNL d   1       1.527   0.377   0.000  0.00  0.00     0.152 A 
ATOM      9  C   UNL d   1       4.282   1.189   0.000  0.00  0.00     0.030 A 
ATOM     10  C   UNL d   1       0.842   1.625   0.000  0.00  0.00     0.084 A 
ATOM     11  O   UNL d   1       2.221   2.445   0.000  0.00  0.00    -0.266 OA
ATOM     12  C   UNL d   1       0.842  -0.025   0.000  0.00  0.00     0.038 A 
ATOM     13  C   UNL d   1       0.157   1.202   0.000  0.00  0.00     0.019 A 
ATOM     14  C   UNL d   1       0.157   0.377   0.000  0.00  0.00     0.005 A 
ENDROOT
BRANCH   4  15
ATOM     15  C   UNL d   1       4.980  -0.042   0.000  0.00  0.00     0.281 C 
ATOM     16  N   UNL d   1       5.703   0.377   0.000  0.00  0.00    -0.267 N 
ATOM     17  C   UNL d   1       6.422  -0.051   0.000  0.00  0.00     0.110 A 
ATOM     18  C   UNL d   1       5.703   1.214   0.000  0.00  0.00     0.110 A 
ATOM     19  C   UNL d   1       7.150   0.364   0.000  0.00  0.00     0.142 A 
ATOM     20  O   UNL d   1       7.159   1.202   0.000  0.00  0.00    -0.300 OA
ATOM     21  C   UNL d   1       6.435   1.625   0.000  0.00  0.00     0.142 A 
ATOM     22  O   UNL d   1       4.967  -0.863   0.000  0.00  0.00    -0.265 OA
ENDBRANCH   4  15
BRANCH   5  23
ATOM     23  C   UNL d   1       3.583  -0.863   0.000  0.00  0.00     0.084 C 
BRANCH  23  24
ATOM     24  C   UNL d   1       2.860  -1.274   0.000  0.00  0.00     0.045 C 
BRANCH  24  25
ATOM     25  C   UNL d   1       2.860  -2.107   0.000  0.00  0.00     0.118 C 
BRANCH  25  26
ATOM     26  O   UNL d   1       2.137  -2.517   0.000  0.00  0.00    -0.326 OA
ATOM     27  C   UNL d   1       2.132  -3.355   0.000  0.00  0.00     0.181 C 
ENDBRANCH  25  26
ENDBRANCH  24  25
ENDBRANCH  23  24
ENDBRANCH   5  23
TORSDOF 5
