REMARK  4 active torsions:
REMARK  status: ('A' for Active; 'I' for Inactive)
REMARK    1  A    between atoms: C_11  and  C_3 
REMARK    2  A    between atoms: N_10  and  C_4 
REMARK    3  A    between atoms: C_15  and  N_10 
REMARK    4  A    between atoms: C_16  and  C_15 
ROOT
ATOM      1  C   UNL d   1      -4.743   3.132   0.000  0.00  0.00     0.167 A 
ATOM      2  N   UNL d   1      -4.743   3.981   0.000  0.00  0.00    -0.195 N 
ATOM      3  C   UNL d   1      -5.445   2.727   0.000  0.00  0.00     0.057 A 
ATOM      4  C   UNL d   1      -4.038   4.369   0.000  0.00  0.00     0.167 A 
ATOM      5  N   UNL d   1      -6.163   3.968   0.000  0.00  0.00    -0.161 NA
ATOM      6  N   UNL d   1      -4.038   2.727   0.000  0.00  0.00    -0.227 NA
ATOM      7  C   UNL d   1      -3.319   3.968   0.000  0.00  0.00     0.058 A 
ATOM      8  C   UNL d   1      -6.163   3.145   0.000  0.00  0.00     0.124 A 
ATOM      9  C   UNL d   1      -3.319   3.132   0.000  0.00  0.00     0.086 A 
ATOM     10  C   UNL d   1      -2.574   2.705   0.000  0.00  0.00     0.021 C 
ENDROOT
BRANCH   4  11
ATOM     11  N   UNL d   1      -4.033   5.227   0.000  0.00  0.00    -0.224 NA
BRANCH  11  12
ATOM     12  C   UNL d   1      -3.498   5.898   0.000  0.00  0.00     0.120 C 
BRANCH  12  13
ATOM     13  C   UNL d   1      -3.811   6.695   0.000  0.00  0.00     0.101 A 
ATOM     14  N   UNL d   1      -3.262   7.361   0.000  0.00  0.00    -0.242 NA
ATOM     15  C   UNL d   1      -3.576   8.158   0.000  0.00  0.00     0.099 A 
ATOM     16  C   UNL d   1      -4.425   8.289   0.000  0.00  0.00     0.021 A 
ATOM     17  C   UNL d   1      -4.961   7.623   0.000  0.00  0.00     0.003 A 
ATOM     18  C   UNL d   1      -4.648   6.825   0.000  0.00  0.00     0.021 A 
ENDBRANCH  12  13
ENDBRANCH  11  12
ENDBRANCH   4  11
BRANCH   3  19
ATOM     19  C   UNL d   1      -5.445   1.903   0.000  0.00  0.00     0.005 A 
ATOM     20  C   UNL d   1      -6.150   1.498   0.000  0.00  0.00     0.001 A 
ATOM     21  C   UNL d   1      -6.150   0.675   0.000  0.00  0.00     0.011 A 
ATOM     22  C   UNL d   1      -5.445   0.270   0.000  0.00  0.00     0.058 A 
ATOM     23  C   UNL d   1      -4.739   0.688   0.000  0.00  0.00     0.011 A 
ATOM     24 CL   UNL d   1      -5.445  -0.592   0.000  0.00  0.00    -0.082 Cl
ATOM     25  C   UNL d   1      -4.739   1.498   0.000  0.00  0.00     0.001 A 
ENDBRANCH   3  19
TORSDOF 4
