REMARK  4 active torsions:
REMARK  status: ('A' for Active; 'I' for Inactive)
REMARK    1  A    between atoms: N_10  and  C_3 
REMARK    2  A    between atoms: C_11  and  C_5 
REMARK    3  A    between atoms: C_13  and  N_10 
REMARK    4  A    between atoms: C_19  and  C_13 
ROOT
ATOM      1  N   UNL d   1      -4.726   3.935   0.000  0.00  0.00    -0.195 N 
ATOM      2  C   UNL d   1      -4.726   3.093   0.000  0.00  0.00     0.167 A 
ATOM      3  C   UNL d   1      -4.004   4.346   0.000  0.00  0.00     0.167 A 
ATOM      4  N   UNL d   1      -6.151   3.935   0.000  0.00  0.00    -0.163 NA
ATOM      5  C   UNL d   1      -5.430   2.691   0.000  0.00  0.00     0.055 A 
ATOM      6  N   UNL d   1      -4.004   2.691   0.000  0.00  0.00    -0.227 NA
ATOM      7  C   UNL d   1      -3.300   3.935   0.000  0.00  0.00     0.054 A 
ATOM      8  C   UNL d   1      -6.151   3.106   0.000  0.00  0.00     0.104 A 
ATOM      9  C   UNL d   1      -3.292   3.093   0.000  0.00  0.00     0.086 A 
ATOM     10  C   UNL d   1      -2.523   4.177   0.000  0.00  0.00     0.005 A 
ATOM     11  C   UNL d   1      -6.859   2.691   0.000  0.00  0.00     0.023 C 
ATOM     12  C   UNL d   1      -2.510   2.838   0.000  0.00  0.00     0.019 A 
ATOM     13  C   UNL d   1      -2.030   3.520   0.000  0.00  0.00     0.002 A 
ENDROOT
BRANCH   5  14
ATOM     14  C   UNL d   1      -5.430   1.866   0.000  0.00  0.00     0.004 A 
ATOM     15  C   UNL d   1      -4.717   1.451   0.000  0.00  0.00     0.000 A 
ATOM     16  C   UNL d   1      -4.713   0.631   0.000  0.00  0.00     0.000 A 
ATOM     17  C   UNL d   1      -5.430   0.216   0.000  0.00  0.00     0.000 A 
ATOM     18  C   UNL d   1      -6.138   0.618   0.000  0.00  0.00     0.000 A 
ATOM     19  C   UNL d   1      -6.138   1.451   0.000  0.00  0.00     0.000 A 
ENDBRANCH   5  14
BRANCH   3  20
ATOM     20  N   UNL d   1      -4.000   5.196   0.000  0.00  0.00    -0.225 NA
BRANCH  20  21
ATOM     21  C   UNL d   1      -3.577   5.926   0.000  0.00  0.00     0.101 C 
BRANCH  21  22
ATOM     22  C   UNL d   1      -3.991   6.661   0.000  0.00  0.00     0.019 C 
ATOM     23  C   UNL d   1      -3.559   7.391   0.000  0.00  0.00     0.002 C 
ATOM     24  C   UNL d   1      -4.842   6.665   0.000  0.00  0.00     0.002 C 
ENDBRANCH  21  22
ENDBRANCH  20  21
ENDBRANCH   3  20
TORSDOF 4
