REMARK  6 active torsions:
REMARK  status: ('A' for Active; 'I' for Inactive)
REMARK    1  A    between atoms: N_11  and  C_3 
REMARK    2  A    between atoms: C_10  and  C_5 
REMARK    3  A    between atoms: C_17  and  N_11 
REMARK    4  A    between atoms: N_13  and  C_18 
REMARK    5  A    between atoms: C_16  and  C_17 
REMARK    6  A    between atoms: C_18  and  C_16 
ROOT
ATOM      1  N   UNL d   1      -4.701   3.919   0.000  0.00  0.00    -0.184 N 
ATOM      2  C   UNL d   1      -4.701   3.089   0.000  0.00  0.00     0.168 A 
ATOM      3  C   UNL d   1      -3.983   4.318   0.000  0.00  0.00     0.217 A 
ATOM      4  N   UNL d   1      -6.110   3.914   0.000  0.00  0.00    -0.162 NA
ATOM      5  C   UNL d   1      -5.397   2.677   0.000  0.00  0.00     0.055 A 
ATOM      6  N   UNL d   1      -3.983   2.677   0.000  0.00  0.00    -0.227 NA
ATOM      7  C   UNL d   1      -3.274   3.914   0.000  0.00  0.00     0.066 A 
ATOM      8  C   UNL d   1      -6.110   3.089   0.000  0.00  0.00     0.104 A 
ATOM      9  C   UNL d   1      -3.274   3.089   0.000  0.00  0.00     0.087 A 
ATOM     10  C   UNL d   1      -2.561   4.336   0.000  0.00  0.00     0.006 A 
ATOM     11  C   UNL d   1      -6.811   2.690   0.000  0.00  0.00     0.023 C 
ATOM     12  C   UNL d   1      -2.561   2.677   0.000  0.00  0.00     0.019 A 
ATOM     13  C   UNL d   1      -1.839   3.914   0.000  0.00  0.00     0.000 A 
ATOM     14  C   UNL d   1      -1.839   3.089   0.000  0.00  0.00     0.002 A 
ENDROOT
BRANCH   3  15
ATOM     15  N   UNL d   1      -3.979   5.161   0.000  0.00  0.00    -0.380 NA
BRANCH  15  16
ATOM     16  C   UNL d   1      -4.048   5.998   0.000  0.00  0.00     0.164 C 
BRANCH  16  17
ATOM     17  C   UNL d   1      -3.347   6.463   0.000  0.00  0.00     0.054 C 
BRANCH  17  18
ATOM     18  C   UNL d   1      -3.403   7.313   0.000  0.00  0.00     0.083 C 
BRANCH  18  19
ATOM     19  N   UNL d   1      -4.159   7.683   0.000  0.00  0.00    -0.300 N 
ATOM     20  C   UNL d   1      -3.824   8.448   0.000  0.00  0.00     0.100 C 
ATOM     21  C   UNL d   1      -5.002   7.610   0.000  0.00  0.00     0.100 C 
ENDBRANCH  18  19
ENDBRANCH  17  18
ENDBRANCH  16  17
ENDBRANCH  15  16
ENDBRANCH   3  15
BRANCH   5  22
ATOM     22  C   UNL d   1      -5.397   1.852   0.000  0.00  0.00     0.004 A 
ATOM     23  C   UNL d   1      -6.106   1.452   0.000  0.00  0.00     0.000 A 
ATOM     24  C   UNL d   1      -6.106   0.627   0.000  0.00  0.00     0.000 A 
ATOM     25  C   UNL d   1      -5.397   0.215   0.000  0.00  0.00     0.000 A 
ATOM     26  C   UNL d   1      -4.688   0.627   0.000  0.00  0.00     0.000 A 
ATOM     27  C   UNL d   1      -4.688   1.452   0.000  0.00  0.00     0.000 A 
ENDBRANCH   5  22
TORSDOF 6
