REMARK  4 active torsions:
REMARK  status: ('A' for Active; 'I' for Inactive)
REMARK    1  A    between atoms: N_10  and  C_3 
REMARK    2  A    between atoms: C_12  and  C_5 
REMARK    3  A    between atoms: C_11  and  C_8 
REMARK    4  A    between atoms: C_13  and  N_10 
ROOT
ATOM      1  C   UNL d   1      -4.713   3.110   0.000  0.00  0.00     0.168 A 
ATOM      2  N   UNL d   1      -4.713   3.948   0.000  0.00  0.00    -0.184 N 
ATOM      3  C   UNL d   1      -4.004   4.332   0.000  0.00  0.00     0.217 A 
ATOM      4  N   UNL d   1      -4.004   2.704   0.000  0.00  0.00    -0.231 NA
ATOM      5  C   UNL d   1      -5.412   2.704   0.000  0.00  0.00     0.057 A 
ATOM      6  N   UNL d   1      -6.112   3.935   0.000  0.00  0.00    -0.160 NA
ATOM      7  C   UNL d   1      -3.287   3.935   0.000  0.00  0.00     0.067 A 
ATOM      8  C   UNL d   1      -3.287   3.110   0.000  0.00  0.00     0.064 A 
ATOM      9  C   UNL d   1      -6.112   3.110   0.000  0.00  0.00     0.124 A 
ENDROOT
BRANCH   5  10
ATOM     10  C   UNL d   1      -5.412   1.879   0.000  0.00  0.00     0.004 A 
ATOM     11  C   UNL d   1      -4.704   1.486   0.000  0.00  0.00     0.000 A 
ATOM     12  C   UNL d   1      -4.704   0.661   0.000  0.00  0.00     0.000 A 
ATOM     13  C   UNL d   1      -5.412   0.255   0.000  0.00  0.00     0.000 A 
ATOM     14  C   UNL d   1      -6.112   0.661   0.000  0.00  0.00     0.000 A 
ATOM     15  C   UNL d   1      -6.112   1.486   0.000  0.00  0.00     0.000 A 
ENDBRANCH   5  10
BRANCH   3  16
ATOM     16  N   UNL d   1      -4.004   5.184   0.000  0.00  0.00    -0.383 NA
BRANCH  16  17
ATOM     17  C   UNL d   1      -4.000   6.030   0.000  0.00  0.00     0.134 C 
ATOM     18  C   UNL d   1      -3.261   6.445   0.000  0.00  0.00     0.035 C 
ATOM     19  C   UNL d   1      -4.739   6.458   0.000  0.00  0.00     0.035 C 
ENDBRANCH  16  17
ENDBRANCH   3  16
BRANCH   8  20
ATOM     20  C   UNL d   1      -2.549   2.682   0.000  0.00  0.00     0.036 C 
ATOM     21  C   UNL d   1      -1.814   3.110   0.000  0.00  0.00     0.006 C 
ATOM     22  C   UNL d   1      -2.553   1.827   0.000  0.00  0.00     0.006 C 
ATOM     23  C   UNL d   1      -1.823   2.255   0.000  0.00  0.00     0.006 C 
ENDBRANCH   8  20
TORSDOF 4
