REMARK  4 active torsions:
REMARK  status: ('A' for Active; 'I' for Inactive)
REMARK    1  A    between atoms: N_5  and  S_1 
REMARK    2  A    between atoms: C_6  and  S_1 
REMARK    3  A    between atoms: N_2  and  C_7 
REMARK    4  A    between atoms: C_18  and  N_5 
ROOT
ATOM      1  C   UNL d   1       5.379  -2.531   0.000  0.00  0.00     0.117 A 
ATOM      2  C   UNL d   1       6.797  -3.357   0.000  0.00  0.00     0.070 A 
ATOM      3  C   UNL d   1       6.084  -2.127   0.000  0.00  0.00     0.015 A 
ATOM      4  C   UNL d   1       5.379  -3.357   0.000  0.00  0.00     0.015 A 
ATOM      5  C   UNL d   1       6.797  -2.539   0.000  0.00  0.00     0.018 A 
ATOM      6  C   UNL d   1       6.092  -3.765   0.000  0.00  0.00     0.018 A 
ENDROOT
BRANCH   1   7
ATOM      7  S   UNL d   1       4.666  -2.118   0.000  0.00  0.00     0.327 S 
ATOM      8  O   UNL d   1       4.253  -2.840   0.000  0.00  0.00    -0.186 OA
ATOM      9  O   UNL d   1       5.079  -1.414   0.000  0.00  0.00    -0.186 OA
BRANCH   7  10
ATOM     10  N   UNL d   1       3.953  -1.714   0.000  0.00  0.00    -0.317 NA
BRANCH  10  11
ATOM     11  C   UNL d   1       3.232  -1.313   0.000  0.00  0.00     0.145 A 
ATOM     12  C   UNL d   1       3.215  -0.480   0.000  0.00  0.00     0.033 A 
ATOM     13  C   UNL d   1       2.494  -0.079   0.000  0.00  0.00     0.003 A 
ATOM     14  C   UNL d   1       1.789  -0.492   0.000  0.00  0.00     0.000 A 
ATOM     15  C   UNL d   1       1.793  -1.326   0.000  0.00  0.00     0.003 A 
ATOM     16  C   UNL d   1       1.067  -0.088   0.000  0.00  0.00     0.000 C 
ATOM     17  C   UNL d   1       2.519  -1.731   0.000  0.00  0.00     0.033 A 
ENDBRANCH  10  11
ENDBRANCH   7  10
ENDBRANCH   1   7
BRANCH   2  18
ATOM     18  N   UNL d   1       7.510  -3.770   0.000  0.00  0.00    -0.242 N 
ATOM     19  C   UNL d   1       7.598  -4.595   0.000  0.00  0.00     0.267 A 
ATOM     20  C   UNL d   1       8.407  -4.771   0.000  0.00  0.00     0.066 A 
ATOM     21  O   UNL d   1       6.985  -5.146   0.000  0.00  0.00    -0.267 OA
ATOM     22  C   UNL d   1       8.819  -4.057   0.000  0.00  0.00     0.066 A 
ATOM     23  C   UNL d   1       8.269  -3.440   0.000  0.00  0.00     0.267 A 
ATOM     24  O   UNL d   1       8.448  -2.631   0.000  0.00  0.00    -0.267 OA
ENDBRANCH   2  18
TORSDOF 4
