REMARK  2 active torsions:
REMARK  status: ('A' for Active; 'I' for Inactive)
REMARK    1  A    between atoms: C_9  and  C_1 
REMARK    2  A    between atoms: C_18  and  N_6 
ROOT
ATOM      1  C   UNL d   1       6.061   0.220   0.000  0.00  0.00     0.121 A 
ATOM      2  C   UNL d   1       4.627   0.220   0.000  0.00  0.00     0.057 A 
ATOM      3  C   UNL d   1       5.342   0.644   0.000  0.00  0.00     0.204 A 
ATOM      4  C   UNL d   1       4.618  -0.611   0.000  0.00  0.00     0.069 A 
ATOM      5  C   UNL d   1       6.061  -0.611   0.000  0.00  0.00     0.089 A 
ATOM      6  N   UNL d   1       5.338  -1.023   0.000  0.00  0.00    -0.303 N 
ATOM      7  C   UNL d   1       3.908  -1.014   0.000  0.00  0.00     0.044 A 
ATOM      8  C   UNL d   1       3.908   0.632   0.000  0.00  0.00     0.031 A 
ATOM      9  C   UNL d   1       3.197  -0.603   0.000  0.00  0.00     0.121 A 
ATOM     10  C   UNL d   1       3.197   0.220   0.000  0.00  0.00     0.119 A 
ATOM     11  O   UNL d   1       2.419  -0.861   0.000  0.00  0.00    -0.299 OA
ATOM     12  O   UNL d   1       2.419   0.470   0.000  0.00  0.00    -0.300 OA
ATOM     13  O   UNL d   1       5.342   1.467   0.000  0.00  0.00    -0.286 OA
ATOM     14  C   UNL d   1       1.937  -0.191   0.000  0.00  0.00     0.304 A 
ENDROOT
BRANCH   1  15
ATOM     15  C   UNL d   1       6.776   0.632   0.000  0.00  0.00     0.215 C 
ATOM     16  O   UNL d   1       6.776   1.455   0.000  0.00  0.00    -0.644 OA
ATOM     17  O   UNL d   1       7.487   0.220   0.000  0.00  0.00    -0.644 OA
ENDBRANCH   1  15
BRANCH   6  18
ATOM     18  C   UNL d   1       5.338  -1.846   0.000  0.00  0.00     0.080 C 
ATOM     19  C   UNL d   1       4.618  -2.257   0.000  0.00  0.00     0.021 C 
ENDBRANCH   6  18
TORSDOF 2
