REMARK  1 active torsions:
REMARK  status: ('A' for Active; 'I' for Inactive)
REMARK    1  A    between atoms: C_6  and  C_3 
ROOT
ATOM      1  N   UNL d   1       4.562  -0.450   0.000  0.00  0.00    -0.228 NA
ATOM      2  C   UNL d   1       4.811  -1.236   0.000  0.00  0.00     0.166 A 
ATOM      3  C   UNL d   1       3.737  -0.450   0.000  0.00  0.00     0.089 A 
ATOM      4  S   UNL d   1       4.150  -1.715   0.000  0.00  0.00    -0.055 SA
ATOM      5  C   UNL d   1       3.475  -1.236   0.000  0.00  0.00     0.057 A 
ATOM      6  S   UNL d   1       5.598  -1.490   0.000  0.00  0.00    -0.050 SA
ENDROOT
BRANCH   3   7
ATOM      7  C   UNL d   1       3.251   0.221   0.000  0.00  0.00     0.018 A 
ATOM      8  C   UNL d   1       2.435   0.133   0.000  0.00  0.00     0.002 A 
ATOM      9  C   UNL d   1       1.948   0.795   0.000  0.00  0.00     0.000 A 
ATOM     10  C   UNL d   1       2.285   1.557   0.000  0.00  0.00     0.000 A 
ATOM     11  C   UNL d   1       3.101   1.636   0.000  0.00  0.00     0.000 A 
ATOM     12  C   UNL d   1       3.588   0.970   0.000  0.00  0.00     0.002 A 
ENDBRANCH   3   7
TORSDOF 1
