REMARK  2 active torsions:
REMARK  status: ('A' for Active; 'I' for Inactive)
REMARK       I    between atoms: N_2  and  C_1 
REMARK    1  A    between atoms: C_6  and  C_1 
REMARK    2  A    between atoms: C_4  and  N_2 
ROOT
ATOM      1  C   UNL d   1       6.067  -1.996   0.000  0.00  0.00     0.085 A 
ATOM      2  C   UNL d   1       6.781  -1.570   0.000  0.00  0.00     0.019 A 
ATOM      3  C   UNL d   1       6.067  -2.822   0.000  0.00  0.00     0.019 A 
ATOM      4  C   UNL d   1       6.781  -3.236   0.000  0.00  0.00     0.002 A 
ATOM      5  C   UNL d   1       7.495  -1.983   0.000  0.00  0.00     0.002 A 
ATOM      6  C   UNL d   1       7.495  -2.822   0.000  0.00  0.00     0.000 A 
ENDROOT
BRANCH   1   7
ATOM      7  N   UNL d   1       5.353  -1.583   0.000  0.00  0.00    -0.207 NA
ATOM      8  C   UNL d   1       4.639  -1.996   0.000  0.00  0.00     0.300 C 
ATOM      9  O   UNL d   1       4.639  -2.822   0.000  0.00  0.00    -0.263 OA
BRANCH   8  10
ATOM     10  C   UNL d   1       3.925  -1.583   0.000  0.00  0.00     0.184 C 
ATOM     11  N   UNL d   1       3.211  -1.996   0.000  0.00  0.00    -0.141 N 
ENDBRANCH   8  10
ENDBRANCH   1   7
TORSDOF 2
