REMARK  4 active torsions:
REMARK  status: ('A' for Active; 'I' for Inactive)
REMARK    1  A    between atoms: C_5  and  N_1 
REMARK    2  A    between atoms: C_7  and  C_5 
REMARK    3  A    between atoms: O_11  and  C_8 
REMARK    4  A    between atoms: C_16  and  O_11 
ROOT
ATOM      1  N   UNL d   1       5.941  -2.331   0.000  0.00  0.00    -0.251 N 
ATOM      2  C   UNL d   1       6.445  -2.998   0.000  0.00  0.00     0.378 A 
ATOM      3  C   UNL d   1       5.162  -2.595   0.000  0.00  0.00     0.092 A 
ATOM      4  O   UNL d   1       5.912  -3.627   0.000  0.00  0.00    -0.258 OA
ATOM      5  C   UNL d   1       5.174  -3.426   0.000  0.00  0.00     0.121 A 
ATOM      6  O   UNL d   1       7.275  -2.985   0.000  0.00  0.00    -0.237 OA
ATOM      7  C   UNL d   1       4.445  -2.193   0.000  0.00  0.00     0.020 A 
ATOM      8  C   UNL d   1       4.457  -3.853   0.000  0.00  0.00     0.026 A 
ATOM      9  C   UNL d   1       3.728  -2.621   0.000  0.00  0.00     0.002 A 
ATOM     10  C   UNL d   1       3.728  -3.451   0.000  0.00  0.00     0.002 A 
ATOM     11  C   UNL d   1       2.998  -2.205   0.000  0.00  0.00     0.000 C 
ENDROOT
BRANCH   1  12
ATOM     12  C   UNL d   1       6.193  -1.551   0.000  0.00  0.00     0.087 C 
BRANCH  12  13
ATOM     13  C   UNL d   1       6.998  -1.371   0.000  0.00  0.00     0.041 A 
ATOM     14  C   UNL d   1       7.237  -0.583   0.000  0.00  0.00     0.101 A 
ATOM     15  C   UNL d   1       8.042  -0.407   0.000  0.00  0.00     0.025 A 
ATOM     16  C   UNL d   1       8.604  -1.010   0.000  0.00  0.00     0.002 A 
ATOM     17  C   UNL d   1       8.357  -1.803   0.000  0.00  0.00     0.000 A 
ATOM     18  C   UNL d   1       7.552  -1.979   0.000  0.00  0.00     0.004 A 
BRANCH  14  19
ATOM     19  O   UNL d   1       6.654  -0.004   0.000  0.00  0.00    -0.307 OA
BRANCH  19  20
ATOM     20  C   UNL d   1       6.868   0.801   0.000  0.00  0.00     0.100 C 
ATOM     21  C   UNL d   1       6.281   1.384   0.000  0.00  0.00     0.027 C 
ATOM     22  C   UNL d   1       7.665   1.015   0.000  0.00  0.00     0.027 C 
ENDBRANCH  19  20
ENDBRANCH  14  19
ENDBRANCH  12  13
ENDBRANCH   1  12
TORSDOF 4
