REMARK  4 active torsions:
REMARK  status: ('A' for Active; 'I' for Inactive)
REMARK    1  A    between atoms: C_6  and  C_2 
REMARK    2  A    between atoms: C_8  and  N_3 
REMARK       I    between atoms: N_7  and  C_6 
REMARK    3  A    between atoms: C_16  and  N_7 
REMARK    4  A    between atoms: C_9  and  C_16 
ROOT
ATOM      1  C   UNL d   1       4.617  -4.129   0.000  0.00  0.00     0.211 A 
ATOM      2  C   UNL d   1       4.354  -3.342   0.000  0.00  0.00     0.199 A 
ATOM      3  N   UNL d   1       3.962  -4.625   0.000  0.00  0.00    -0.191 N 
ATOM      4  N   UNL d   1       3.292  -4.142   0.000  0.00  0.00    -0.058 NA
ATOM      5  N   UNL d   1       3.542  -3.354   0.000  0.00  0.00    -0.122 NA
ATOM      6  N   UNL d   1       5.404  -4.379   0.000  0.00  0.00    -0.125 N 
ENDROOT
BRANCH   2   7
ATOM      7  C   UNL d   1       4.838  -2.675   0.000  0.00  0.00     0.302 C 
ATOM      8  N   UNL d   1       5.654  -2.754   0.000  0.00  0.00    -0.203 NA
ATOM      9  O   UNL d   1       4.492  -1.925   0.000  0.00  0.00    -0.263 OA
BRANCH   8  10
ATOM     10  C   UNL d   1       6.138  -2.079   0.000  0.00  0.00     0.127 C 
BRANCH  10  11
ATOM     11  C   UNL d   1       6.954  -2.154   0.000  0.00  0.00     0.119 A 
ATOM     12  O   UNL d   1       7.379  -2.875   0.000  0.00  0.00    -0.304 OA
ATOM     13  C   UNL d   1       8.179  -2.692   0.000  0.00  0.00     0.123 A 
ATOM     14  C   UNL d   1       8.254  -1.854   0.000  0.00  0.00     0.029 A 
ATOM     15  C   UNL d   1       7.504  -1.542   0.000  0.00  0.00     0.028 A 
ENDBRANCH  10  11
ENDBRANCH   8  10
ENDBRANCH   2   7
BRANCH   3  16
ATOM     16  C   UNL d   1       3.967  -5.450   0.000  0.00  0.00     0.086 A 
ATOM     17  C   UNL d   1       4.688  -5.854   0.000  0.00  0.00     0.019 A 
ATOM     18  C   UNL d   1       4.692  -6.679   0.000  0.00  0.00     0.002 A 
ATOM     19  C   UNL d   1       3.979  -7.100   0.000  0.00  0.00     0.000 A 
ATOM     20  C   UNL d   1       3.263  -6.688   0.000  0.00  0.00     0.002 A 
ATOM     21  C   UNL d   1       3.254  -5.862   0.000  0.00  0.00     0.019 A 
ENDBRANCH   3  16
TORSDOF 4
