REMARK  4 active torsions:
REMARK  status: ('A' for Active; 'I' for Inactive)
REMARK    1  A    between atoms: C_6  and  C_1 
REMARK    2  A    between atoms: C_8  and  N_3 
REMARK       I    between atoms: N_7  and  C_6 
REMARK    3  A    between atoms: C_9  and  N_7 
REMARK    4  A    between atoms: O_19  and  C_16 
ROOT
ATOM      1  C   UNL d   1       4.384   1.251   0.000  0.00  0.00     0.199 A 
ATOM      2  C   UNL d   1       5.167   0.999   0.000  0.00  0.00     0.211 A 
ATOM      3  N   UNL d   1       5.653   1.663   0.000  0.00  0.00    -0.191 N 
ATOM      4  N   UNL d   1       5.167   2.332   0.000  0.00  0.00    -0.058 NA
ATOM      5  N   UNL d   1       4.384   2.084   0.000  0.00  0.00    -0.122 NA
ATOM      6  N   UNL d   1       5.419   0.215   0.000  0.00  0.00    -0.125 N 
ENDROOT
BRANCH   1   7
ATOM      7  C   UNL d   1       3.715   0.765   0.000  0.00  0.00     0.302 C 
ATOM      8  N   UNL d   1       2.959   1.109   0.000  0.00  0.00    -0.204 NA
ATOM      9  O   UNL d   1       3.797  -0.055   0.000  0.00  0.00    -0.263 OA
BRANCH   8  10
ATOM     10  C   UNL d   1       2.295   0.618   0.000  0.00  0.00     0.112 A 
ATOM     11  C   UNL d   1       1.544   0.957   0.000  0.00  0.00     0.158 A 
ATOM     12  F   UNL d   1       1.457   1.773   0.000  0.00  0.00    -0.203 F 
ATOM     13  C   UNL d   1       0.870   0.467   0.000  0.00  0.00     0.031 A 
ATOM     14  C   UNL d   1       0.962  -0.348   0.000  0.00  0.00     0.002 A 
ATOM     15  C   UNL d   1       1.718  -0.687   0.000  0.00  0.00     0.002 A 
ATOM     16  C   UNL d   1       2.382  -0.197   0.000  0.00  0.00     0.021 A 
ENDBRANCH   8  10
ENDBRANCH   1   7
BRANCH   3  17
ATOM     17  C   UNL d   1       6.477   1.663   0.000  0.00  0.00     0.086 A 
ATOM     18  C   UNL d   1       6.889   0.948   0.000  0.00  0.00     0.021 A 
ATOM     19  C   UNL d   1       7.714   0.948   0.000  0.00  0.00     0.026 A 
ATOM     20  C   UNL d   1       8.126   1.663   0.000  0.00  0.00     0.094 A 
ATOM     21  C   UNL d   1       7.714   2.377   0.000  0.00  0.00     0.026 A 
ATOM     22  C   UNL d   1       6.889   2.377   0.000  0.00  0.00     0.021 A 
BRANCH  20  23
ATOM     23  O   UNL d   1       8.951   1.663   0.000  0.00  0.00    -0.328 OA
ATOM     24  C   UNL d   1       9.363   2.377   0.000  0.00  0.00     0.181 C 
ENDBRANCH  20  23
ENDBRANCH   3  17
TORSDOF 4
