REMARK  5 active torsions:
REMARK  status: ('A' for Active; 'I' for Inactive)
REMARK    1  A    between atoms: C_6  and  C_1 
REMARK    2  A    between atoms: C_7  and  C_6 
REMARK    3  A    between atoms: C_11  and  C_19 
REMARK    4  A    between atoms: O_18  and  C_17 
REMARK    5  A    between atoms: C_19  and  O_18 
ROOT
ATOM      1  C   UNL d   1       7.690  -4.196   0.000  0.00  0.00     0.139 A 
ATOM      2  C   UNL d   1       6.414  -4.611   0.000  0.00  0.00     0.064 A 
ATOM      3  C   UNL d   1       7.197  -4.863   0.000  0.00  0.00     0.220 A 
ATOM      4  C   UNL d   1       6.414  -3.785   0.000  0.00  0.00     0.105 A 
ATOM      5  O   UNL d   1       7.207  -3.529   0.000  0.00  0.00    -0.304 OA
ATOM      6  C   UNL d   1       5.704  -3.369   0.000  0.00  0.00     0.049 A 
ATOM      7  C   UNL d   1       5.704  -5.022   0.000  0.00  0.00     0.007 A 
ATOM      8  O   UNL d   1       7.453  -5.646   0.000  0.00  0.00    -0.284 OA
ATOM      9  C   UNL d   1       4.993  -3.789   0.000  0.00  0.00     0.097 A 
ATOM     10  C   UNL d   1       4.993  -4.611   0.000  0.00  0.00     0.025 A 
ENDROOT
BRANCH   1  11
ATOM     11  C   UNL d   1       8.517  -4.196   0.000  0.00  0.00     0.034 C 
BRANCH  11  12
ATOM     12  C   UNL d   1       8.932  -3.485   0.000  0.00  0.00     0.032 A 
ATOM     13  S   UNL d   1       9.749  -3.398   0.000  0.00  0.00    -0.086 SA
ATOM     14  C   UNL d   1       9.923  -2.586   0.000  0.00  0.00     0.035 A 
ATOM     15  C   UNL d   1       9.208  -2.175   0.000  0.00  0.00     0.007 A 
ATOM     16  C   UNL d   1       8.589  -2.726   0.000  0.00  0.00     0.007 A 
ENDBRANCH  11  12
ENDBRANCH   1  11
BRANCH   9  17
ATOM     17  O   UNL d   1       4.282  -3.369   0.000  0.00  0.00    -0.319 OA
BRANCH  17  18
ATOM     18  C   UNL d   1       3.567  -3.785   0.000  0.00  0.00     0.246 C 
BRANCH  18  19
ATOM     19  C   UNL d   1       2.857  -3.369   0.000  0.00  0.00     0.217 C 
ATOM     20  O   UNL d   1       2.857  -2.542   0.000  0.00  0.00    -0.645 OA
ATOM     21  O   UNL d   1       2.093  -3.804   0.000  0.00  0.00    -0.645 OA
ENDBRANCH  18  19
ENDBRANCH  17  18
ENDBRANCH   9  17
TORSDOF 5
