REMARK  4 active torsions:
REMARK  status: ('A' for Active; 'I' for Inactive)
REMARK    1  A    between atoms: C_8  and  C_1 
REMARK    2  A    between atoms: C_6  and  O_10 
REMARK       I    between atoms: N_13  and  C_6 
REMARK    3  A    between atoms: C_11  and  C_8 
REMARK    4  A    between atoms: O_10  and  C_9 
ROOT
ATOM      1  C   UNL d   1       3.630  -3.223   0.000  0.00  0.00     0.141 A 
ATOM      2  C   UNL d   1       2.349  -2.815   0.000  0.00  0.00     0.105 A 
ATOM      3  O   UNL d   1       3.135  -2.553   0.000  0.00  0.00    -0.304 OA
ATOM      4  C   UNL d   1       2.349  -3.645   0.000  0.00  0.00     0.064 A 
ATOM      5  C   UNL d   1       3.135  -3.902   0.000  0.00  0.00     0.220 A 
ATOM      6  C   UNL d   1       1.636  -2.402   0.000  0.00  0.00     0.046 A 
ATOM      7  C   UNL d   1       0.922  -2.815   0.000  0.00  0.00     0.107 A 
ATOM      8  C   UNL d   1       1.636  -4.052   0.000  0.00  0.00     0.007 A 
ATOM      9  O   UNL d   1       3.397  -4.688   0.000  0.00  0.00    -0.284 OA
ATOM     10  C   UNL d   1       0.922  -3.645   0.000  0.00  0.00     0.025 A 
ATOM     11  C   UNL d   1       1.631  -1.577   0.000  0.00  0.00     0.004 C 
ENDROOT
BRANCH   1  12
ATOM     12  C   UNL d   1       4.455  -3.223   0.000  0.00  0.00     0.053 C 
BRANCH  12  13
ATOM     13  C   UNL d   1       4.868  -2.509   0.000  0.00  0.00     0.102 A 
ATOM     14  O   UNL d   1       4.528  -1.752   0.000  0.00  0.00    -0.305 OA
ATOM     15  C   UNL d   1       5.139  -1.199   0.000  0.00  0.00     0.123 A 
ATOM     16  C   UNL d   1       5.858  -1.616   0.000  0.00  0.00     0.029 A 
ATOM     17  C   UNL d   1       5.683  -2.422   0.000  0.00  0.00     0.027 A 
ENDBRANCH  12  13
ENDBRANCH   1  12
BRANCH   7  18
ATOM     18  O   UNL d   1       0.209  -2.407   0.000  0.00  0.00    -0.259 OA
BRANCH  18  19
ATOM     19  C   UNL d   1      -0.510  -2.815   0.000  0.00  0.00     0.378 C 
ATOM     20  N   UNL d   1      -1.223  -2.393   0.000  0.00  0.00    -0.249 N 
ATOM     21  C   UNL d   1      -1.946  -2.800   0.000  0.00  0.00     0.104 C 
ATOM     22  C   UNL d   1      -1.218  -1.563   0.000  0.00  0.00     0.104 C 
ATOM     23  O   UNL d   1      -0.519  -3.640   0.000  0.00  0.00    -0.237 OA
ENDBRANCH  18  19
ENDBRANCH   7  18
TORSDOF 4
