REMARK  4 active torsions:
REMARK  status: ('A' for Active; 'I' for Inactive)
REMARK    1  A    between atoms: C_6  and  C_1 
REMARK    2  A    between atoms: C_16  and  C_6 
REMARK    3  A    between atoms: C_9  and  O_12 
REMARK    4  A    between atoms: O_12  and  C_10 
ROOT
ATOM      1  C   UNL d   1       6.838  -5.512   0.000  0.00  0.00     0.139 A 
ATOM      2  C   UNL d   1       5.566  -5.105   0.000  0.00  0.00     0.064 A 
ATOM      3  C   UNL d   1       6.352  -4.843   0.000  0.00  0.00     0.220 A 
ATOM      4  C   UNL d   1       5.566  -5.928   0.000  0.00  0.00     0.105 A 
ATOM      5  O   UNL d   1       6.352  -6.186   0.000  0.00  0.00    -0.304 OA
ATOM      6  C   UNL d   1       4.851  -6.339   0.000  0.00  0.00     0.050 A 
ATOM      7  C   UNL d   1       4.851  -4.693   0.000  0.00  0.00     0.007 A 
ATOM      8  C   UNL d   1       4.144  -5.924   0.000  0.00  0.00     0.105 A 
ATOM      9  O   UNL d   1       6.601  -4.057   0.000  0.00  0.00    -0.284 OA
ATOM     10  C   UNL d   1       4.132  -5.105   0.000  0.00  0.00     0.025 A 
ENDROOT
BRANCH   1  11
ATOM     11  C   UNL d   1       7.661  -5.512   0.000  0.00  0.00     0.028 C 
BRANCH  11  12
ATOM     12  C   UNL d   1       8.085  -6.227   0.000  0.00  0.00     0.005 A 
ATOM     13  C   UNL d   1       7.670  -6.934   0.000  0.00  0.00     0.021 A 
ATOM     14  C   UNL d   1       8.081  -7.649   0.000  0.00  0.00     0.099 A 
ATOM     15  N   UNL d   1       8.908  -7.649   0.000  0.00  0.00    -0.242 NA
ATOM     16  C   UNL d   1       9.320  -6.934   0.000  0.00  0.00     0.099 A 
ATOM     17  C   UNL d   1       8.908  -6.223   0.000  0.00  0.00     0.021 A 
ENDBRANCH  11  12
ENDBRANCH   1  11
BRANCH   8  18
ATOM     18  O   UNL d   1       3.429  -6.339   0.000  0.00  0.00    -0.273 OA
BRANCH  18  19
ATOM     19  C   UNL d   1       2.706  -5.928   0.000  0.00  0.00     0.300 C 
ATOM     20  O   UNL d   1       2.706  -5.105   0.000  0.00  0.00    -0.259 OA
ATOM     21  C   UNL d   1       1.995  -6.348   0.000  0.00  0.00     0.074 C 
ENDBRANCH  18  19
ENDBRANCH   8  18
TORSDOF 4
