REMARK  1 active torsions:
REMARK  status: ('A' for Active; 'I' for Inactive)
REMARK    1  A    between atoms: C_7  and  C_1 
ROOT
ATOM      1  C   UNL d   1       5.275  -0.429   0.000  0.00  0.00     0.103 A 
ATOM      2  C   UNL d   1       5.275  -1.267   0.000  0.00  0.00     0.067 A 
ATOM      3  C   UNL d   1       3.829  -1.267   0.000  0.00  0.00     0.062 A 
ATOM      4  C   UNL d   1       4.550  -1.679   0.000  0.00  0.00     0.200 A 
ATOM      5  O   UNL d   1       4.554  -0.013   0.000  0.00  0.00    -0.307 OA
ATOM      6  C   UNL d   1       3.837  -0.429   0.000  0.00  0.00     0.103 A 
ATOM      7  C   UNL d   1       3.117  -1.675   0.000  0.00  0.00     0.005 A 
ATOM      8  O   UNL d   1       4.550  -2.504   0.000  0.00  0.00    -0.286 OA
ATOM      9  C   UNL d   1       3.117  -0.017   0.000  0.00  0.00     0.025 A 
ATOM     10  C   UNL d   1       2.404  -1.262   0.000  0.00  0.00     0.000 A 
ATOM     11  C   UNL d   1       2.404  -0.438   0.000  0.00  0.00     0.002 A 
ATOM     12  C   UNL d   1       1.692  -1.675   0.000  0.00  0.00     0.000 C 
ENDROOT
BRANCH   1  13
ATOM     13  C   UNL d   1       5.987  -0.025   0.000  0.00  0.00     0.023 A 
ATOM     14  C   UNL d   1       6.704  -0.442   0.000  0.00  0.00     0.002 A 
ATOM     15  C   UNL d   1       7.417  -0.029   0.000  0.00  0.00     0.000 A 
ATOM     16  C   UNL d   1       7.417   0.796   0.000  0.00  0.00     0.000 A 
ATOM     17  C   UNL d   1       6.704   1.208   0.000  0.00  0.00     0.000 A 
ATOM     18  C   UNL d   1       8.137   1.208   0.000  0.00  0.00     0.000 C 
ATOM     19  C   UNL d   1       5.992   0.796   0.000  0.00  0.00     0.002 A 
ENDBRANCH   1  13
TORSDOF 1
