REMARK  5 active torsions:
REMARK  status: ('A' for Active; 'I' for Inactive)
REMARK    1  A    between atoms: O_8  and  C_1 
REMARK    2  A    between atoms: C_10  and  C_5 
REMARK    3  A    between atoms: C_12  and  O_8 
REMARK    4  A    between atoms: N_9  and  C_10 
REMARK    5  A    between atoms: O_24  and  C_17 
ROOT
ATOM      1  C   UNL d   1       4.267  -3.042   0.000  0.00  0.00     0.161 A 
ATOM      2  C   UNL d   1       2.825  -2.217   0.000  0.00  0.00     0.108 A 
ATOM      3  C   UNL d   1       2.829  -3.054   0.000  0.00  0.00     0.064 A 
ATOM      4  C   UNL d   1       3.542  -3.462   0.000  0.00  0.00     0.222 A 
ATOM      5  C   UNL d   1       2.104  -1.804   0.000  0.00  0.00     0.079 A 
ATOM      6  O   UNL d   1       3.538  -1.792   0.000  0.00  0.00    -0.305 OA
ATOM      7  C   UNL d   1       4.263  -2.212   0.000  0.00  0.00     0.126 A 
ATOM      8  C   UNL d   1       2.104  -3.462   0.000  0.00  0.00     0.009 A 
ATOM      9  C   UNL d   1       1.392  -2.225   0.000  0.00  0.00     0.199 A 
ATOM     10  O   UNL d   1       3.550  -4.287   0.000  0.00  0.00    -0.284 OA
ATOM     11  C   UNL d   1       1.392  -3.050   0.000  0.00  0.00     0.042 A 
ATOM     12  O   UNL d   1       0.679  -1.812   0.000  0.00  0.00    -0.286 OA
ATOM     13  C   UNL d   1       4.975  -1.800   0.000  0.00  0.00     0.029 C 
ENDROOT
BRANCH   1  14
ATOM     14  O   UNL d   1       4.979  -3.454   0.000  0.00  0.00    -0.300 OA
BRANCH  14  15
ATOM     15  C   UNL d   1       5.692  -3.042   0.000  0.00  0.00     0.122 A 
ATOM     16  C   UNL d   1       6.404  -3.462   0.000  0.00  0.00     0.117 A 
ATOM     17  C   UNL d   1       7.117  -3.054   0.000  0.00  0.00     0.026 A 
ATOM     18  C   UNL d   1       7.125  -2.229   0.000  0.00  0.00     0.002 A 
ATOM     19  C   UNL d   1       6.404  -1.812   0.000  0.00  0.00     0.002 A 
ATOM     20  C   UNL d   1       5.692  -2.225   0.000  0.00  0.00     0.027 A 
BRANCH  16  21
ATOM     21  O   UNL d   1       6.400  -4.279   0.000  0.00  0.00    -0.326 OA
ATOM     22  C   UNL d   1       7.112  -4.700   0.000  0.00  0.00     0.181 C 
ENDBRANCH  16  21
ENDBRANCH  14  15
ENDBRANCH   1  14
BRANCH   5  23
ATOM     23  C   UNL d   1       2.104  -0.992   0.000  0.00  0.00     0.086 C 
BRANCH  23  24
ATOM     24  N   UNL d   1       1.387  -0.579   0.000  0.00  0.00    -0.300 N 
ATOM     25  C   UNL d   1       1.392   0.246   0.000  0.00  0.00     0.100 A 
ATOM     26  C   UNL d   1       0.679   0.658   0.000  0.00  0.00     0.100 A 
ATOM     27  N   UNL d   1      -0.037   0.246   0.000  0.00  0.00    -0.299 N 
ATOM     28  C   UNL d   1      -0.037  -0.579   0.000  0.00  0.00     0.100 A 
ATOM     29  C   UNL d   1      -0.750   0.658   0.000  0.00  0.00     0.100 C 
ATOM     30  C   UNL d   1       0.679  -0.992   0.000  0.00  0.00     0.100 A 
ENDBRANCH  23  24
ENDBRANCH   5  23
TORSDOF 5
