REMARK  5 active torsions:
REMARK  status: ('A' for Active; 'I' for Inactive)
REMARK    1  A    between atoms: O_8  and  C_2 
REMARK    2  A    between atoms: C_9  and  C_5 
REMARK    3  A    between atoms: C_14  and  O_8 
REMARK    4  A    between atoms: N_11  and  C_9 
REMARK    5  A    between atoms: O_20  and  C_17 
ROOT
ATOM      1  C   UNL d   1       3.607  -0.180   0.000  0.00  0.00     0.108 A 
ATOM      2  C   UNL d   1       5.052  -1.006   0.000  0.00  0.00     0.161 A 
ATOM      3  C   UNL d   1       3.612  -1.019   0.000  0.00  0.00     0.064 A 
ATOM      4  C   UNL d   1       4.334  -1.428   0.000  0.00  0.00     0.222 A 
ATOM      5  C   UNL d   1       2.898   0.226   0.000  0.00  0.00     0.079 A 
ATOM      6  O   UNL d   1       4.326   0.238   0.000  0.00  0.00    -0.305 OA
ATOM      7  C   UNL d   1       5.048  -0.175   0.000  0.00  0.00     0.126 A 
ATOM      8  C   UNL d   1       2.893  -1.420   0.000  0.00  0.00     0.009 A 
ATOM      9  C   UNL d   1       2.184  -0.180   0.000  0.00  0.00     0.199 A 
ATOM     10  O   UNL d   1       4.338  -2.255   0.000  0.00  0.00    -0.284 OA
ATOM     11  C   UNL d   1       2.184  -1.006   0.000  0.00  0.00     0.042 A 
ATOM     12  O   UNL d   1       1.470   0.234   0.000  0.00  0.00    -0.286 OA
ATOM     13  C   UNL d   1       5.762   0.246   0.000  0.00  0.00     0.029 C 
ENDROOT
BRANCH   2  14
ATOM     14  O   UNL d   1       5.766  -1.420   0.000  0.00  0.00    -0.302 OA
BRANCH  14  15
ATOM     15  C   UNL d   1       5.774  -2.246   0.000  0.00  0.00     0.102 A 
ATOM     16  C   UNL d   1       6.488  -2.647   0.000  0.00  0.00     0.049 A 
ATOM     17  C   UNL d   1       6.493  -3.474   0.000  0.00  0.00     0.096 A 
ATOM     18  C   UNL d   1       5.779  -3.896   0.000  0.00  0.00     0.024 A 
ATOM     19  C   UNL d   1       5.061  -3.482   0.000  0.00  0.00     0.004 A 
ATOM     20  C   UNL d   1       5.061  -2.660   0.000  0.00  0.00     0.025 A 
BRANCH  17  21
ATOM     21  O   UNL d   1       7.207  -3.875   0.000  0.00  0.00    -0.328 OA
ATOM     22  C   UNL d   1       7.921  -3.457   0.000  0.00  0.00     0.181 C 
ENDBRANCH  17  21
ENDBRANCH  14  15
ENDBRANCH   2  14
BRANCH   5  23
ATOM     23  C   UNL d   1       2.898   1.040   0.000  0.00  0.00     0.085 C 
BRANCH  23  24
ATOM     24  N   UNL d   1       2.242   1.524   0.000  0.00  0.00    -0.302 N 
ATOM     25  C   UNL d   1       2.246   2.338   0.000  0.00  0.00     0.080 A 
ATOM     26  C   UNL d   1       1.482   2.589   0.000  0.00  0.00     0.021 A 
ATOM     27  C   UNL d   1       1.006   1.950   0.000  0.00  0.00     0.021 A 
ATOM     28  C   UNL d   1       1.478   1.278   0.000  0.00  0.00     0.080 A 
ENDBRANCH  23  24
ENDBRANCH   5  23
TORSDOF 5
