REMARK  6 active torsions:
REMARK  status: ('A' for Active; 'I' for Inactive)
REMARK    1  A    between atoms: O_9  and  S_1 
REMARK    2  A    between atoms: C_10  and  C_4 
REMARK    3  A    between atoms: C_14  and  O_9 
REMARK    4  A    between atoms: C_13  and  C_10 
REMARK    5  A    between atoms: C_16  and  C_13 
REMARK    6  A    between atoms: C_19  and  C_16 
ROOT
ATOM      1  C   UNL d   1      -2.526  -0.939   0.000  0.00  0.00     0.064 A 
ATOM      2  C   UNL d   1      -2.526  -0.113   0.000  0.00  0.00     0.105 A 
ATOM      3  C   UNL d   1      -1.253  -0.530   0.000  0.00  0.00     0.139 A 
ATOM      4  C   UNL d   1      -1.741  -1.194   0.000  0.00  0.00     0.220 A 
ATOM      5  O   UNL d   1      -1.737   0.146   0.000  0.00  0.00    -0.304 OA
ATOM      6  C   UNL d   1      -3.240   0.296   0.000  0.00  0.00     0.050 A 
ATOM      7  C   UNL d   1      -3.240  -1.353   0.000  0.00  0.00     0.007 A 
ATOM      8  C   UNL d   1      -3.946  -0.117   0.000  0.00  0.00     0.115 A 
ATOM      9  O   UNL d   1      -1.486  -1.983   0.000  0.00  0.00    -0.284 OA
ATOM     10  C   UNL d   1      -3.954  -0.939   0.000  0.00  0.00     0.026 A 
ENDROOT
BRANCH   3  11
ATOM     11  C   UNL d   1      -0.426  -0.530   0.000  0.00  0.00     0.028 C 
BRANCH  11  12
ATOM     12  C   UNL d   1      -0.008   0.184   0.000  0.00  0.00     0.002 C 
BRANCH  12  13
ATOM     13  C   UNL d   1       0.814   0.184   0.000  0.00  0.00     0.000 C 
BRANCH  13  14
ATOM     14  C   UNL d   1       1.232   0.889   0.000  0.00  0.00     0.000 A 
ATOM     15  C   UNL d   1       2.058   0.885   0.000  0.00  0.00     0.000 A 
ATOM     16  C   UNL d   1       2.480   1.599   0.000  0.00  0.00     0.000 A 
ATOM     17  C   UNL d   1       2.071   2.317   0.000  0.00  0.00     0.000 A 
ATOM     18  C   UNL d   1       1.240   2.317   0.000  0.00  0.00     0.000 A 
ATOM     19  C   UNL d   1       0.827   1.603   0.000  0.00  0.00     0.000 A 
ENDBRANCH  13  14
ENDBRANCH  12  13
ENDBRANCH  11  12
ENDBRANCH   3  11
BRANCH   8  20
ATOM     20  O   UNL d   1      -4.668   0.296   0.000  0.00  0.00    -0.230 OA
BRANCH  20  21
ATOM     21  S   UNL d   1      -4.668   1.123   0.000  0.00  0.00     0.285 S 
ATOM     22  O   UNL d   1      -3.942   0.727   0.000  0.00  0.00    -0.197 OA
ATOM     23  O   UNL d   1      -5.374   1.524   0.000  0.00  0.00    -0.197 OA
ATOM     24  C   UNL d   1      -4.259   1.850   0.000  0.00  0.00     0.172 C 
ENDBRANCH  20  21
ENDBRANCH   8  20
TORSDOF 6
