REMARK  5 active torsions:
REMARK  status: ('A' for Active; 'I' for Inactive)
REMARK    1  A    between atoms: C_6  and  C_1 
REMARK    2  A    between atoms: C_7  and  C_6 
REMARK    3  A    between atoms: C_9  and  C_19 
REMARK       I    between atoms: N_17  and  C_9 
REMARK    4  A    between atoms: O_20  and  C_18 
REMARK    5  A    between atoms: C_19  and  O_20 
ROOT
ATOM      1  C   UNL d   1       5.050   0.665   0.000  0.00  0.00     0.141 A 
ATOM      2  C   UNL d   1       3.783   0.250   0.000  0.00  0.00     0.064 A 
ATOM      3  C   UNL d   1       4.571  -0.005   0.000  0.00  0.00     0.220 A 
ATOM      4  C   UNL d   1       3.783   1.080   0.000  0.00  0.00     0.105 A 
ATOM      5  O   UNL d   1       4.571   1.336   0.000  0.00  0.00    -0.304 OA
ATOM      6  C   UNL d   1       3.065   1.485   0.000  0.00  0.00     0.050 A 
ATOM      7  C   UNL d   1       3.065  -0.165   0.000  0.00  0.00     0.007 A 
ATOM      8  O   UNL d   1       4.826  -0.788   0.000  0.00  0.00    -0.284 OA
ATOM      9  C   UNL d   1       2.352   1.070   0.000  0.00  0.00     0.102 A 
ATOM     10  C   UNL d   1       2.352   0.250   0.000  0.00  0.00     0.025 A 
ENDROOT
BRANCH   1  11
ATOM     11  C   UNL d   1       5.880   0.665   0.000  0.00  0.00     0.053 C 
BRANCH  11  12
ATOM     12  C   UNL d   1       6.295   1.383   0.000  0.00  0.00     0.102 A 
ATOM     13  O   UNL d   1       5.954   2.134   0.000  0.00  0.00    -0.307 OA
ATOM     14  C   UNL d   1       6.566   2.682   0.000  0.00  0.00     0.100 A 
ATOM     15  C   UNL d   1       6.481   3.507   0.000  0.00  0.00     0.027 C 
ATOM     16  C   UNL d   1       7.285   2.277   0.000  0.00  0.00     0.027 A 
ATOM     17  C   UNL d   1       7.109   1.463   0.000  0.00  0.00     0.027 A 
ENDBRANCH  11  12
ENDBRANCH   1  11
BRANCH   9  18
ATOM     18  O   UNL d   1       1.634   1.485   0.000  0.00  0.00    -0.300 OA
BRANCH  18  19
ATOM     19  C   UNL d   1       0.926   1.080   0.000  0.00  0.00     0.187 C 
BRANCH  19  20
ATOM     20  C   UNL d   1       0.213   1.495   0.000  0.00  0.00     0.323 C 
ATOM     21  O   UNL d   1       0.213   2.315   0.000  0.00  0.00    -0.261 OA
ATOM     22  N   UNL d   1      -0.505   1.080   0.000  0.00  0.00    -0.083 NA
ATOM     23  N   UNL d   1      -1.224   1.495   0.000  0.00  0.00    -0.019 N 
ENDBRANCH  19  20
ENDBRANCH  18  19
ENDBRANCH   9  18
TORSDOF 5
