REMARK  5 active torsions:
REMARK  status: ('A' for Active; 'I' for Inactive)
REMARK    1  A    between atoms: N_2  and  S_1 
REMARK    2  A    between atoms: C_4  and  S_1 
REMARK    3  A    between atoms: C_3  and  N_2 
REMARK    4  A    between atoms: O_19  and  C_13 
REMARK    5  A    between atoms: C_20  and  O_19 
ROOT
ATOM      1  S   UNL d   1       4.025  -0.180   0.000  0.00  0.00     0.327 S 
ATOM      2  O   UNL d   1       4.033  -1.006   0.000  0.00  0.00    -0.186 OA
ATOM      3  O   UNL d   1       4.013   0.647   0.000  0.00  0.00    -0.186 OA
ENDROOT
BRANCH   1   4
ATOM      4  N   UNL d   1       4.852  -0.167   0.000  0.00  0.00    -0.314 NA
BRANCH   4   5
ATOM      5  C   UNL d   1       5.678  -0.167   0.000  0.00  0.00     0.185 A 
ATOM      6  C   UNL d   1       6.088  -0.881   0.000  0.00  0.00     0.048 A 
ATOM      7  C   UNL d   1       6.906  -0.881   0.000  0.00  0.00     0.060 A 
ATOM      8 CL   UNL d   1       7.319  -1.595   0.000  0.00  0.00    -0.082 Cl
ATOM      9  C   UNL d   1       7.319  -0.167   0.000  0.00  0.00     0.015 A 
ATOM     10  C   UNL d   1       6.906   0.547   0.000  0.00  0.00     0.046 A 
ATOM     11  C   UNL d   1       6.079   0.547   0.000  0.00  0.00     0.226 A 
ATOM     12  O   UNL d   1       5.666   1.261   0.000  0.00  0.00    -0.284 OA
ENDBRANCH   4   5
ENDBRANCH   1   4
BRANCH   1  13
ATOM     13  C   UNL d   1       3.198  -0.188   0.000  0.00  0.00     0.117 A 
ATOM     14  C   UNL d   1       2.797  -0.906   0.000  0.00  0.00     0.016 A 
ATOM     15  C   UNL d   1       1.971  -0.919   0.000  0.00  0.00     0.025 A 
ATOM     16  C   UNL d   1       1.545  -0.205   0.000  0.00  0.00     0.100 A 
ATOM     17  C   UNL d   1       1.958   0.514   0.000  0.00  0.00     0.025 A 
ATOM     18  C   UNL d   1       2.781   0.522   0.000  0.00  0.00     0.016 A 
BRANCH  16  19
ATOM     19  O   UNL d   1       0.718  -0.213   0.000  0.00  0.00    -0.305 OA
BRANCH  19  20
ATOM     20  C   UNL d   1       0.301   0.497   0.000  0.00  0.00     0.123 C 
ATOM     21  C   UNL d   1      -0.526   0.497   0.000  0.00  0.00     0.029 C 
ENDBRANCH  19  20
ENDBRANCH  16  19
ENDBRANCH   1  13
TORSDOF 5
