REMARK  5 active torsions:
REMARK  status: ('A' for Active; 'I' for Inactive)
REMARK    1  A    between atoms: O_8  and  C_2 
REMARK    2  A    between atoms: C_10  and  C_3 
REMARK    3  A    between atoms: C_14  and  O_8 
REMARK    4  A    between atoms: N_9  and  C_10 
REMARK    5  A    between atoms: O_23  and  C_17 
ROOT
ATOM      1  C   UNL d   1       0.812  -0.217   0.000  0.00  0.00     0.108 A 
ATOM      2  C   UNL d   1       2.254  -1.050   0.000  0.00  0.00     0.164 A 
ATOM      3  C   UNL d   1       0.092   0.188   0.000  0.00  0.00     0.079 A 
ATOM      4  C   UNL d   1       0.817  -1.054   0.000  0.00  0.00     0.064 A 
ATOM      5  C   UNL d   1       1.529  -1.467   0.000  0.00  0.00     0.222 A 
ATOM      6  O   UNL d   1       1.525   0.200   0.000  0.00  0.00    -0.303 OA
ATOM      7  C   UNL d   1       2.250  -0.217   0.000  0.00  0.00     0.150 A 
ATOM      8  C   UNL d   1       0.092  -1.467   0.000  0.00  0.00     0.009 A 
ATOM      9  C   UNL d   1      -0.621  -0.217   0.000  0.00  0.00     0.199 A 
ATOM     10  O   UNL d   1       1.538  -2.292   0.000  0.00  0.00    -0.284 OA
ATOM     11  C   UNL d   1      -0.621  -1.054   0.000  0.00  0.00     0.042 A 
ATOM     12  O   UNL d   1      -1.333   0.183   0.000  0.00  0.00    -0.286 OA
ENDROOT
BRANCH   2  13
ATOM     13  O   UNL d   1       2.967  -1.462   0.000  0.00  0.00    -0.300 OA
BRANCH  13  14
ATOM     14  C   UNL d   1       2.962  -2.279   0.000  0.00  0.00     0.122 A 
ATOM     15  C   UNL d   1       3.667  -2.692   0.000  0.00  0.00     0.117 A 
ATOM     16  C   UNL d   1       3.663  -3.513   0.000  0.00  0.00     0.026 A 
ATOM     17  C   UNL d   1       2.942  -3.917   0.000  0.00  0.00     0.002 A 
ATOM     18  C   UNL d   1       2.237  -3.504   0.000  0.00  0.00     0.002 A 
ATOM     19  C   UNL d   1       2.242  -2.679   0.000  0.00  0.00     0.027 A 
BRANCH  15  20
ATOM     20  O   UNL d   1       4.379  -2.279   0.000  0.00  0.00    -0.326 OA
ATOM     21  C   UNL d   1       4.379  -1.454   0.000  0.00  0.00     0.181 C 
ENDBRANCH  15  20
ENDBRANCH  13  14
ENDBRANCH   2  13
BRANCH   3  22
ATOM     22  C   UNL d   1       0.092   1.008   0.000  0.00  0.00     0.086 C 
BRANCH  22  23
ATOM     23  N   UNL d   1      -0.625   1.421   0.000  0.00  0.00    -0.300 N 
ATOM     24  C   UNL d   1      -0.621   2.246   0.000  0.00  0.00     0.100 A 
ATOM     25  C   UNL d   1      -1.333   2.658   0.000  0.00  0.00     0.100 A 
ATOM     26  N   UNL d   1      -2.050   2.246   0.000  0.00  0.00    -0.299 N 
ATOM     27  C   UNL d   1      -2.050   1.421   0.000  0.00  0.00     0.100 A 
ATOM     28  C   UNL d   1      -2.763   2.658   0.000  0.00  0.00     0.100 C 
ATOM     29  C   UNL d   1      -1.333   1.000   0.000  0.00  0.00     0.100 A 
ENDBRANCH  22  23
ENDBRANCH   3  22
TORSDOF 5
