REMARK  5 active torsions:
REMARK  status: ('A' for Active; 'I' for Inactive)
REMARK    1  A    between atoms: C_6  and  C_1 
REMARK    2  A    between atoms: C_7  and  C_6 
REMARK    3  A    between atoms: C_10  and  O_14 
REMARK    4  A    between atoms: C_20  and  C_10 
REMARK    5  A    between atoms: O_14  and  C_12 
ROOT
ATOM      1  C   UNL d   1       6.267  -6.092   0.000  0.00  0.00     0.141 A 
ATOM      2  C   UNL d   1       5.000  -6.500   0.000  0.00  0.00     0.064 A 
ATOM      3  C   UNL d   1       5.779  -6.754   0.000  0.00  0.00     0.220 A 
ATOM      4  C   UNL d   1       5.000  -5.675   0.000  0.00  0.00     0.105 A 
ATOM      5  O   UNL d   1       5.787  -5.417   0.000  0.00  0.00    -0.304 OA
ATOM      6  C   UNL d   1       4.292  -5.267   0.000  0.00  0.00     0.050 A 
ATOM      7  C   UNL d   1       4.287  -6.912   0.000  0.00  0.00     0.007 A 
ATOM      8  C   UNL d   1       3.579  -5.679   0.000  0.00  0.00     0.105 A 
ATOM      9  O   UNL d   1       6.037  -7.542   0.000  0.00  0.00    -0.284 OA
ATOM     10  C   UNL d   1       3.579  -6.500   0.000  0.00  0.00     0.025 A 
ENDROOT
BRANCH   1  11
ATOM     11  C   UNL d   1       7.092  -6.092   0.000  0.00  0.00     0.053 C 
BRANCH  11  12
ATOM     12  C   UNL d   1       7.513  -5.379   0.000  0.00  0.00     0.102 A 
ATOM     13  O   UNL d   1       8.329  -5.292   0.000  0.00  0.00    -0.305 OA
ATOM     14  C   UNL d   1       8.504  -4.487   0.000  0.00  0.00     0.123 A 
ATOM     15  C   UNL d   1       7.792  -4.067   0.000  0.00  0.00     0.029 A 
ATOM     16  C   UNL d   1       7.175  -4.617   0.000  0.00  0.00     0.027 A 
ENDBRANCH  11  12
ENDBRANCH   1  11
BRANCH   8  17
ATOM     17  O   UNL d   1       2.867  -5.267   0.000  0.00  0.00    -0.273 OA
BRANCH  17  18
ATOM     18  C   UNL d   1       2.154  -5.675   0.000  0.00  0.00     0.300 C 
ATOM     19  O   UNL d   1       2.154  -6.500   0.000  0.00  0.00    -0.259 OA
BRANCH  18  20
ATOM     20  C   UNL d   1       1.442  -5.254   0.000  0.00  0.00     0.069 C 
ATOM     21  C   UNL d   1       0.725  -5.667   0.000  0.00  0.00     0.006 C 
ENDBRANCH  18  20
ENDBRANCH  17  18
ENDBRANCH   8  17
TORSDOF 5
