REMARK  5 active torsions:
REMARK  status: ('A' for Active; 'I' for Inactive)
REMARK    1  A    between atoms: C_9  and  C_2 
REMARK    2  A    between atoms: O_8  and  C_4 
REMARK    3  A    between atoms: C_14  and  O_8 
REMARK    4  A    between atoms: N_11  and  C_9 
REMARK    5  A    between atoms: O_20  and  C_18 
ROOT
ATOM      1  C   UNL d   1       2.550  -0.754   0.000  0.00  0.00     0.108 A 
ATOM      2  C   UNL d   1       1.829  -0.342   0.000  0.00  0.00     0.079 A 
ATOM      3  C   UNL d   1       2.554  -1.587   0.000  0.00  0.00     0.064 A 
ATOM      4  C   UNL d   1       3.992  -1.579   0.000  0.00  0.00     0.163 A 
ATOM      5  C   UNL d   1       3.267  -1.992   0.000  0.00  0.00     0.222 A 
ATOM      6  O   UNL d   1       3.263  -0.329   0.000  0.00  0.00    -0.303 OA
ATOM      7  C   UNL d   1       3.987  -0.742   0.000  0.00  0.00     0.150 A 
ATOM      8  C   UNL d   1       1.829  -1.992   0.000  0.00  0.00     0.009 A 
ATOM      9  C   UNL d   1       1.117  -0.754   0.000  0.00  0.00     0.199 A 
ATOM     10  O   UNL d   1       3.275  -2.817   0.000  0.00  0.00    -0.284 OA
ATOM     11  C   UNL d   1       1.117  -1.579   0.000  0.00  0.00     0.042 A 
ATOM     12  O   UNL d   1       0.404  -0.342   0.000  0.00  0.00    -0.286 OA
ENDROOT
BRANCH   4  13
ATOM     13  O   UNL d   1       4.704  -1.988   0.000  0.00  0.00    -0.302 OA
BRANCH  13  14
ATOM     14  C   UNL d   1       5.417  -1.575   0.000  0.00  0.00     0.102 A 
ATOM     15  C   UNL d   1       6.129  -1.988   0.000  0.00  0.00     0.049 A 
ATOM     16  C   UNL d   1       6.842  -1.575   0.000  0.00  0.00     0.096 A 
ATOM     17  C   UNL d   1       6.842  -0.750   0.000  0.00  0.00     0.024 A 
ATOM     18  C   UNL d   1       6.117  -0.338   0.000  0.00  0.00     0.004 A 
ATOM     19  C   UNL d   1       5.412  -0.754   0.000  0.00  0.00     0.025 A 
BRANCH  16  20
ATOM     20  O   UNL d   1       7.554  -1.988   0.000  0.00  0.00    -0.328 OA
ATOM     21  C   UNL d   1       8.267  -1.575   0.000  0.00  0.00     0.181 C 
ENDBRANCH  16  20
ENDBRANCH  13  14
ENDBRANCH   4  13
BRANCH   2  22
ATOM     22  C   UNL d   1       1.829   0.475   0.000  0.00  0.00     0.086 C 
BRANCH  22  23
ATOM     23  N   UNL d   1       1.113   0.887   0.000  0.00  0.00    -0.299 N 
ATOM     24  C   UNL d   1       0.404   0.471   0.000  0.00  0.00     0.107 A 
ATOM     25  C   UNL d   1      -0.312   0.887   0.000  0.00  0.00     0.142 A 
ATOM     26  O   UNL d   1      -0.312   1.712   0.000  0.00  0.00    -0.300 OA
ATOM     27  C   UNL d   1       0.404   2.125   0.000  0.00  0.00     0.142 A 
ATOM     28  C   UNL d   1       1.117   1.712   0.000  0.00  0.00     0.107 A 
ENDBRANCH  22  23
ENDBRANCH   2  22
TORSDOF 5
