REMARK  5 active torsions:
REMARK  status: ('A' for Active; 'I' for Inactive)
REMARK    1  A    between atoms: O_8  and  S_1 
REMARK    2  A    between atoms: C_13  and  S_1 
REMARK    3  A    between atoms: C_7  and  C_2 
REMARK    4  A    between atoms: C_18  and  C_7 
REMARK    5  A    between atoms: C_14  and  O_8 
ROOT
ATOM      1  C   UNL d   1       6.267  -6.088   0.000  0.00  0.00     0.139 A 
ATOM      2  C   UNL d   1       5.000  -6.492   0.000  0.00  0.00     0.064 A 
ATOM      3  C   UNL d   1       5.779  -6.754   0.000  0.00  0.00     0.220 A 
ATOM      4  C   UNL d   1       5.000  -5.667   0.000  0.00  0.00     0.105 A 
ATOM      5  O   UNL d   1       5.787  -5.417   0.000  0.00  0.00    -0.304 OA
ATOM      6  C   UNL d   1       4.292  -5.263   0.000  0.00  0.00     0.050 A 
ATOM      7  C   UNL d   1       4.287  -6.904   0.000  0.00  0.00     0.007 A 
ATOM      8  C   UNL d   1       3.579  -5.675   0.000  0.00  0.00     0.116 A 
ATOM      9  O   UNL d   1       6.037  -7.537   0.000  0.00  0.00    -0.284 OA
ATOM     10  C   UNL d   1       3.579  -6.492   0.000  0.00  0.00     0.026 A 
ENDROOT
BRANCH   8  11
ATOM     11  O   UNL d   1       2.867  -5.263   0.000  0.00  0.00    -0.227 OA
BRANCH  11  12
ATOM     12  S   UNL d   1       2.867  -4.438   0.000  0.00  0.00     0.304 S 
ATOM     13  O   UNL d   1       3.679  -4.425   0.000  0.00  0.00    -0.193 OA
ATOM     14  O   UNL d   1       2.054  -4.438   0.000  0.00  0.00    -0.193 OA
BRANCH  12  15
ATOM     15  C   UNL d   1       2.862  -3.612   0.000  0.00  0.00     0.111 A 
ATOM     16  C   UNL d   1       3.579  -3.192   0.000  0.00  0.00     0.013 A 
ATOM     17  C   UNL d   1       3.575  -2.367   0.000  0.00  0.00     0.001 A 
ATOM     18  C   UNL d   1       2.854  -1.954   0.000  0.00  0.00     0.000 A 
ATOM     19  C   UNL d   1       2.142  -2.379   0.000  0.00  0.00     0.001 A 
ATOM     20  C   UNL d   1       2.150  -3.204   0.000  0.00  0.00     0.013 A 
ENDBRANCH  12  15
ENDBRANCH  11  12
ENDBRANCH   8  11
BRANCH   1  21
ATOM     21  C   UNL d   1       7.092  -6.088   0.000  0.00  0.00     0.029 C 
BRANCH  21  22
ATOM     22  C   UNL d   1       7.513  -5.375   0.000  0.00  0.00     0.021 A 
ATOM     23  C   UNL d   1       7.100  -4.667   0.000  0.00  0.00     0.099 A 
ATOM     24  N   UNL d   1       7.504  -3.954   0.000  0.00  0.00    -0.242 NA
ATOM     25  C   UNL d   1       8.338  -3.950   0.000  0.00  0.00     0.099 A 
ATOM     26  C   UNL d   1       8.750  -4.667   0.000  0.00  0.00     0.021 A 
ATOM     27  C   UNL d   1       8.329  -5.379   0.000  0.00  0.00     0.003 A 
ENDBRANCH  21  22
ENDBRANCH   1  21
TORSDOF 5
