REMARK  3 active torsions:
REMARK  status: ('A' for Active; 'I' for Inactive)
REMARK    1  A    between atoms: O_10  and  C_9 
REMARK    2  A    between atoms: C_13  and  O_10 
REMARK    3  A    between atoms: C_12  and  C_13 
ROOT
ATOM      1  C   UNL d   1       1.762  -0.042   0.000  0.00  0.00     0.066 A 
ATOM      2  O   UNL d   1       2.542  -1.129   0.000  0.00  0.00    -0.302 OA
ATOM      3  C   UNL d   1       2.550   0.208   0.000  0.00  0.00     0.222 A 
ATOM      4  C   UNL d   1       1.762  -0.867   0.000  0.00  0.00     0.103 A 
ATOM      5  C   UNL d   1       1.050   0.362   0.000  0.00  0.00     0.030 A 
ATOM      6  C   UNL d   1       3.029  -0.463   0.000  0.00  0.00     0.165 A 
ATOM      7  O   UNL d   1       2.804   0.996   0.000  0.00  0.00    -0.284 OA
ATOM      8  C   UNL d   1       1.054  -1.279   0.000  0.00  0.00     0.027 A 
ATOM      9  C   UNL d   1       0.338  -0.054   0.000  0.00  0.00     0.100 A 
ATOM     10  C   UNL d   1       0.342  -0.879   0.000  0.00  0.00     0.027 A 
ENDROOT
BRANCH   9  11
ATOM     11  O   UNL d   1      -0.383   0.358   0.000  0.00  0.00    -0.305 OA
BRANCH  11  12
ATOM     12  C   UNL d   1      -1.096  -0.054   0.000  0.00  0.00     0.122 C 
BRANCH  12  13
ATOM     13  C   UNL d   1      -1.808   0.371   0.000  0.00  0.00     0.025 A 
ATOM     14  C   UNL d   1      -2.525  -0.042   0.000  0.00  0.00     0.004 A 
ATOM     15  C   UNL d   1      -3.233   0.375   0.000  0.00  0.00     0.030 A 
ATOM     16  C   UNL d   1      -3.225   1.208   0.000  0.00  0.00     0.140 A 
ATOM     17  C   UNL d   1      -2.508   1.613   0.000  0.00  0.00     0.030 A 
ATOM     18  F   UNL d   1      -3.938   1.621   0.000  0.00  0.00    -0.204 F 
ATOM     19  C   UNL d   1      -1.800   1.196   0.000  0.00  0.00     0.004 A 
ENDBRANCH  12  13
ENDBRANCH  11  12
ENDBRANCH   9  11
TORSDOF 3
