REMARK  6 active torsions:
REMARK  status: ('A' for Active; 'I' for Inactive)
REMARK    1  A    between atoms: C_10  and  C_1 
REMARK    2  A    between atoms: C_4  and  O_8 
REMARK       I    between atoms: N_12  and  C_4 
REMARK    3  A    between atoms: O_8  and  C_13 
REMARK    4  A    between atoms: C_23  and  N_12 
REMARK    5  A    between atoms: C_24  and  N_12 
REMARK    6  A    between atoms: O_22  and  C_19 
ROOT
ATOM      1  C   UNL d   1       1.992  -2.354   0.000  0.00  0.00     0.064 A 
ATOM      2  C   UNL d   1       1.267  -2.775   0.000  0.00  0.00     0.199 A 
ATOM      3  C   UNL d   1       0.554  -2.367   0.000  0.00  0.00     0.062 A 
ATOM      4  C   UNL d   1       1.988  -1.525   0.000  0.00  0.00     0.126 A 
ATOM      5  C   UNL d   1       0.550  -1.529   0.000  0.00  0.00     0.105 A 
ATOM      6  O   UNL d   1       1.262  -1.104   0.000  0.00  0.00    -0.305 OA
ATOM      7  C   UNL d   1      -0.171  -1.117   0.000  0.00  0.00     0.050 A 
ATOM      8  C   UNL d   1      -0.171  -2.775   0.000  0.00  0.00     0.007 A 
ATOM      9  C   UNL d   1      -0.883  -1.538   0.000  0.00  0.00     0.107 A 
ATOM     10  O   UNL d   1       1.275  -3.600   0.000  0.00  0.00    -0.286 OA
ATOM     11  C   UNL d   1      -0.883  -2.362   0.000  0.00  0.00     0.025 A 
ENDROOT
BRANCH   1  12
ATOM     12  C   UNL d   1       2.704  -2.767   0.000  0.00  0.00     0.005 A 
ATOM     13  C   UNL d   1       2.704  -3.592   0.000  0.00  0.00     0.002 A 
ATOM     14  C   UNL d   1       3.417  -4.004   0.000  0.00  0.00     0.024 A 
ATOM     15  C   UNL d   1       4.129  -3.592   0.000  0.00  0.00     0.094 A 
ATOM     16  C   UNL d   1       4.129  -2.763   0.000  0.00  0.00     0.024 A 
ATOM     17  C   UNL d   1       3.417  -2.354   0.000  0.00  0.00     0.002 A 
BRANCH  15  18
ATOM     18  O   UNL d   1       4.842  -4.000   0.000  0.00  0.00    -0.328 OA
ATOM     19  C   UNL d   1       5.554  -3.579   0.000  0.00  0.00     0.181 C 
ENDBRANCH  15  18
ENDBRANCH   1  12
BRANCH   9  20
ATOM     20  O   UNL d   1      -1.596  -1.125   0.000  0.00  0.00    -0.259 OA
BRANCH  20  21
ATOM     21  C   UNL d   1      -2.308  -1.538   0.000  0.00  0.00     0.377 C 
ATOM     22  N   UNL d   1      -3.021  -1.125   0.000  0.00  0.00    -0.252 N 
ATOM     23  O   UNL d   1      -2.308  -2.362   0.000  0.00  0.00    -0.237 OA
BRANCH  22  24
ATOM     24  C   UNL d   1      -3.737  -1.538   0.000  0.00  0.00     0.085 C 
ATOM     25  C   UNL d   1      -3.737  -2.362   0.000  0.00  0.00     0.021 C 
ENDBRANCH  22  24
BRANCH  22  26
ATOM     26  C   UNL d   1      -3.021  -0.300   0.000  0.00  0.00     0.085 C 
ATOM     27  C   UNL d   1      -2.308   0.113   0.000  0.00  0.00     0.021 C 
ENDBRANCH  22  26
ENDBRANCH  20  21
ENDBRANCH   9  20
TORSDOF 6
