REMARK  3 active torsions:
REMARK  status: ('A' for Active; 'I' for Inactive)
REMARK    1  A    between atoms: C_7  and  C_1 
REMARK    2  A    between atoms: N_8  and  C_7 
REMARK    3  A    between atoms: C_11  and  N_8 
ROOT
ATOM      1  C   UNL d   1      -2.005   1.229   0.000  0.00  0.00     0.145 A 
ATOM      2  C   UNL d   1      -2.416   1.937   0.000  0.00  0.00     0.304 A 
ATOM      3  C   UNL d   1      -2.416   0.514   0.000  0.00  0.00     0.304 A 
ATOM      4  O   UNL d   1      -3.242   1.937   0.000  0.00  0.00    -0.277 OA
ATOM      5  O   UNL d   1      -3.242   0.514   0.000  0.00  0.00    -0.277 OA
ATOM      6  C   UNL d   1      -3.653   1.229   0.000  0.00  0.00     0.203 A 
ATOM      7  O   UNL d   1      -1.982   2.667   0.000  0.00  0.00    -0.259 OA
ATOM      8  O   UNL d   1      -1.982  -0.217   0.000  0.00  0.00    -0.259 OA
ATOM      9  C   UNL d   1      -4.243   0.635   0.000  0.00  0.00     0.062 C 
ATOM     10  C   UNL d   1      -4.212   1.845   0.000  0.00  0.00     0.062 C 
ENDROOT
BRANCH   1  11
ATOM     11  C   UNL d   1      -1.172   1.229   0.000  0.00  0.00     0.111 C 
BRANCH  11  12
ATOM     12  N   UNL d   1      -0.761   0.514   0.000  0.00  0.00    -0.225 NA
BRANCH  12  13
ATOM     13  C   UNL d   1       0.072   0.514   0.000  0.00  0.00     0.163 A 
ATOM     14  N   UNL d   1       0.483  -0.198   0.000  0.00  0.00    -0.225 NA
ATOM     15  C   UNL d   1       1.313  -0.198   0.000  0.00  0.00     0.101 A 
ATOM     16  C   UNL d   1       1.724   0.514   0.000  0.00  0.00     0.021 A 
ATOM     17  C   UNL d   1       1.313   1.229   0.000  0.00  0.00     0.005 A 
ATOM     18  C   UNL d   1       0.483   1.229   0.000  0.00  0.00     0.039 A 
ENDBRANCH  12  13
ENDBRANCH  11  12
ENDBRANCH   1  11
TORSDOF 3
