REMARK  7 active torsions:
REMARK  status: ('A' for Active; 'I' for Inactive)
REMARK    1  A    between atoms: O_8  and  C_2 
REMARK    2  A    between atoms: C_10  and  C_5 
REMARK    3  A    between atoms: C_21  and  O_8 
REMARK    4  A    between atoms: N_9  and  C_10 
REMARK    5  A    between atoms: C_12  and  C_15 
REMARK    6  A    between atoms: O_26  and  C_12 
REMARK    7  A    between atoms: C_32  and  O_26 
ROOT
ATOM      1  C   UNL d   1       2.487  -0.217   0.000  0.00  0.00     0.108 A 
ATOM      2  C   UNL d   1       3.929  -1.042   0.000  0.00  0.00     0.161 A 
ATOM      3  C   UNL d   1       2.492  -1.054   0.000  0.00  0.00     0.064 A 
ATOM      4  C   UNL d   1       3.204  -1.462   0.000  0.00  0.00     0.222 A 
ATOM      5  C   UNL d   1       1.767   0.196   0.000  0.00  0.00     0.079 A 
ATOM      6  O   UNL d   1       3.200   0.208   0.000  0.00  0.00    -0.305 OA
ATOM      7  C   UNL d   1       3.925  -0.212   0.000  0.00  0.00     0.126 A 
ATOM      8  C   UNL d   1       1.767  -1.462   0.000  0.00  0.00     0.009 A 
ATOM      9  C   UNL d   1       1.054  -0.217   0.000  0.00  0.00     0.199 A 
ATOM     10  O   UNL d   1       3.212  -2.288   0.000  0.00  0.00    -0.284 OA
ATOM     11  C   UNL d   1       1.054  -1.050   0.000  0.00  0.00     0.042 A 
ATOM     12  O   UNL d   1       0.342   0.188   0.000  0.00  0.00    -0.286 OA
ATOM     13  C   UNL d   1       4.638   0.200   0.000  0.00  0.00     0.029 C 
ENDROOT
BRANCH   2  14
ATOM     14  O   UNL d   1       4.642  -1.454   0.000  0.00  0.00    -0.302 OA
BRANCH  14  15
ATOM     15  C   UNL d   1       5.354  -1.042   0.000  0.00  0.00     0.100 A 
ATOM     16  C   UNL d   1       6.067  -1.454   0.000  0.00  0.00     0.025 A 
ATOM     17  C   UNL d   1       6.779  -1.042   0.000  0.00  0.00     0.007 A 
ATOM     18  C   UNL d   1       6.779  -0.217   0.000  0.00  0.00     0.064 A 
ATOM     19  C   UNL d   1       6.054   0.196   0.000  0.00  0.00     0.007 A 
ATOM     20  C   UNL d   1       5.350  -0.217   0.000  0.00  0.00     0.025 A 
BRANCH  18  21
ATOM     21  C   UNL d   1       7.492   0.200   0.000  0.00  0.00     0.300 C 
ATOM     22  O   UNL d   1       7.492   1.025   0.000  0.00  0.00    -0.259 OA
BRANCH  21  23
ATOM     23  O   UNL d   1       8.213  -0.204   0.000  0.00  0.00    -0.271 OA
BRANCH  23  24
ATOM     24  C   UNL d   1       8.217  -1.029   0.000  0.00  0.00     0.126 C 
ATOM     25  C   UNL d   1       8.929  -1.442   0.000  0.00  0.00     0.029 C 
ENDBRANCH  23  24
ENDBRANCH  21  23
ENDBRANCH  18  21
ENDBRANCH  14  15
ENDBRANCH   2  14
BRANCH   5  26
ATOM     26  C   UNL d   1       1.767   1.012   0.000  0.00  0.00     0.086 C 
BRANCH  26  27
ATOM     27  N   UNL d   1       1.050   1.425   0.000  0.00  0.00    -0.300 N 
ATOM     28  C   UNL d   1       1.050   2.250   0.000  0.00  0.00     0.100 A 
ATOM     29  C   UNL d   1       0.338   2.658   0.000  0.00  0.00     0.100 A 
ATOM     30  N   UNL d   1      -0.375   2.250   0.000  0.00  0.00    -0.299 N 
ATOM     31  C   UNL d   1      -0.375   1.421   0.000  0.00  0.00     0.100 A 
ATOM     32  C   UNL d   1      -1.096   2.663   0.000  0.00  0.00     0.100 C 
ATOM     33  C   UNL d   1       0.342   1.008   0.000  0.00  0.00     0.100 A 
ENDBRANCH  26  27
ENDBRANCH   5  26
TORSDOF 7
