REMARK  5 active torsions:
REMARK  status: ('A' for Active; 'I' for Inactive)
REMARK    1  A    between atoms: O_8  and  C_2 
REMARK    2  A    between atoms: C_11  and  C_5 
REMARK    3  A    between atoms: C_15  and  O_8 
REMARK    4  A    between atoms: N_14  and  C_11 
REMARK    5  A    between atoms: O_23  and  C_16 
ROOT
ATOM      1  C   UNL d   1       0.750  -0.442   0.000  0.00  0.00     0.108 A 
ATOM      2  C   UNL d   1       2.192  -1.267   0.000  0.00  0.00     0.161 A 
ATOM      3  C   UNL d   1       0.754  -1.279   0.000  0.00  0.00     0.064 A 
ATOM      4  C   UNL d   1       1.467  -1.688   0.000  0.00  0.00     0.222 A 
ATOM      5  C   UNL d   1       0.029  -0.029   0.000  0.00  0.00     0.079 A 
ATOM      6  O   UNL d   1       1.462  -0.017   0.000  0.00  0.00    -0.305 OA
ATOM      7  C   UNL d   1       2.188  -0.438   0.000  0.00  0.00     0.126 A 
ATOM      8  C   UNL d   1       0.029  -1.688   0.000  0.00  0.00     0.009 A 
ATOM      9  C   UNL d   1      -0.683  -0.450   0.000  0.00  0.00     0.199 A 
ATOM     10  O   UNL d   1       1.475  -2.513   0.000  0.00  0.00    -0.284 OA
ATOM     11  C   UNL d   1      -0.683  -1.275   0.000  0.00  0.00     0.042 A 
ATOM     12  O   UNL d   1      -1.396  -0.029   0.000  0.00  0.00    -0.286 OA
ATOM     13  C   UNL d   1       2.900  -0.025   0.000  0.00  0.00     0.029 C 
ENDROOT
BRANCH   2  14
ATOM     14  O   UNL d   1       2.904  -1.679   0.000  0.00  0.00    -0.302 OA
BRANCH  14  15
ATOM     15  C   UNL d   1       3.617  -1.267   0.000  0.00  0.00     0.100 A 
ATOM     16  C   UNL d   1       3.612  -0.442   0.000  0.00  0.00     0.027 A 
ATOM     17  C   UNL d   1       4.317  -0.029   0.000  0.00  0.00     0.026 A 
ATOM     18  C   UNL d   1       5.042  -0.442   0.000  0.00  0.00     0.094 A 
ATOM     19  C   UNL d   1       5.042  -1.267   0.000  0.00  0.00     0.026 A 
ATOM     20  C   UNL d   1       4.329  -1.679   0.000  0.00  0.00     0.027 A 
BRANCH  18  21
ATOM     21  O   UNL d   1       5.754  -0.029   0.000  0.00  0.00    -0.328 OA
ATOM     22  C   UNL d   1       5.750   0.796   0.000  0.00  0.00     0.181 C 
ENDBRANCH  18  21
ENDBRANCH  14  15
ENDBRANCH   2  14
BRANCH   5  23
ATOM     23  C   UNL d   1       0.029   0.796   0.000  0.00  0.00     0.086 C 
BRANCH  23  24
ATOM     24  N   UNL d   1      -0.683   1.200   0.000  0.00  0.00    -0.300 N 
ATOM     25  C   UNL d   1      -0.688   2.025   0.000  0.00  0.00     0.100 C 
ATOM     26  C   UNL d   1      -1.400   0.787   0.000  0.00  0.00     0.100 C 
ENDBRANCH  23  24
ENDBRANCH   5  23
TORSDOF 5
