REMARK  7 active torsions:
REMARK  status: ('A' for Active; 'I' for Inactive)
REMARK    1  A    between atoms: O_8  and  C_1 
REMARK    2  A    between atoms: C_10  and  C_5 
REMARK    3  A    between atoms: C_12  and  O_8 
REMARK    4  A    between atoms: N_9  and  C_10 
REMARK    5  A    between atoms: C_25  and  N_14 
REMARK    6  A    between atoms: O_24  and  C_17 
REMARK    7  A    between atoms: C_29  and  C_25 
ROOT
ATOM      1  C   UNL d   1       2.254  -1.050   0.000  0.00  0.00     0.161 A 
ATOM      2  C   UNL d   1       0.812  -0.217   0.000  0.00  0.00     0.108 A 
ATOM      3  C   UNL d   1       0.817  -1.054   0.000  0.00  0.00     0.064 A 
ATOM      4  C   UNL d   1       1.529  -1.467   0.000  0.00  0.00     0.222 A 
ATOM      5  C   UNL d   1       0.092   0.188   0.000  0.00  0.00     0.079 A 
ATOM      6  O   UNL d   1       1.525   0.200   0.000  0.00  0.00    -0.305 OA
ATOM      7  C   UNL d   1       2.250  -0.217   0.000  0.00  0.00     0.126 A 
ATOM      8  C   UNL d   1       0.092  -1.467   0.000  0.00  0.00     0.009 A 
ATOM      9  C   UNL d   1      -0.621  -0.217   0.000  0.00  0.00     0.199 A 
ATOM     10  O   UNL d   1       1.538  -2.292   0.000  0.00  0.00    -0.284 OA
ATOM     11  C   UNL d   1      -0.621  -1.054   0.000  0.00  0.00     0.042 A 
ATOM     12  O   UNL d   1      -1.333   0.183   0.000  0.00  0.00    -0.286 OA
ATOM     13  C   UNL d   1       2.962   0.196   0.000  0.00  0.00     0.029 C 
ENDROOT
BRANCH   5  14
ATOM     14  C   UNL d   1       0.092   1.008   0.000  0.00  0.00     0.086 C 
BRANCH  14  15
ATOM     15  N   UNL d   1      -0.625   1.421   0.000  0.00  0.00    -0.300 N 
ATOM     16  C   UNL d   1      -0.621   2.246   0.000  0.00  0.00     0.100 A 
ATOM     17  C   UNL d   1      -1.333   2.658   0.000  0.00  0.00     0.100 A 
ATOM     18  N   UNL d   1      -2.050   2.246   0.000  0.00  0.00    -0.297 N 
ATOM     19  C   UNL d   1      -2.050   1.421   0.000  0.00  0.00     0.100 A 
ATOM     20  C   UNL d   1      -1.333   1.000   0.000  0.00  0.00     0.100 A 
BRANCH  18  21
ATOM     21  C   UNL d   1      -2.763   2.658   0.000  0.00  0.00     0.126 C 
BRANCH  21  22
ATOM     22  C   UNL d   1      -2.763   3.483   0.000  0.00  0.00     0.253 C 
ATOM     23  O   UNL d   1      -3.483   3.896   0.000  0.00  0.00    -0.281 OA
ENDBRANCH  21  22
ENDBRANCH  18  21
ENDBRANCH  14  15
ENDBRANCH   5  14
BRANCH   1  24
ATOM     24  O   UNL d   1       2.967  -1.462   0.000  0.00  0.00    -0.300 OA
BRANCH  24  25
ATOM     25  C   UNL d   1       2.962  -2.279   0.000  0.00  0.00     0.122 A 
ATOM     26  C   UNL d   1       3.667  -2.692   0.000  0.00  0.00     0.117 A 
ATOM     27  C   UNL d   1       3.663  -3.513   0.000  0.00  0.00     0.026 A 
ATOM     28  C   UNL d   1       2.942  -3.917   0.000  0.00  0.00     0.002 A 
ATOM     29  C   UNL d   1       2.237  -3.504   0.000  0.00  0.00     0.002 A 
ATOM     30  C   UNL d   1       2.242  -2.679   0.000  0.00  0.00     0.027 A 
BRANCH  26  31
ATOM     31  O   UNL d   1       4.379  -2.279   0.000  0.00  0.00    -0.326 OA
ATOM     32  C   UNL d   1       4.379  -1.454   0.000  0.00  0.00     0.181 C 
ENDBRANCH  26  31
ENDBRANCH  24  25
ENDBRANCH   1  24
TORSDOF 7
