REMARK  5 active torsions:
REMARK  status: ('A' for Active; 'I' for Inactive)
REMARK    1  A    between atoms: O_8  and  C_2 
REMARK    2  A    between atoms: C_9  and  C_5 
REMARK    3  A    between atoms: C_14  and  O_8 
REMARK    4  A    between atoms: N_11  and  C_9 
REMARK    5  A    between atoms: O_21  and  C_18 
ROOT
ATOM      1  C   UNL d   1       2.555  -0.756   0.000  0.00  0.00     0.108 A 
ATOM      2  C   UNL d   1       4.000  -1.583   0.000  0.00  0.00     0.161 A 
ATOM      3  C   UNL d   1       2.559  -1.591   0.000  0.00  0.00     0.064 A 
ATOM      4  C   UNL d   1       3.273  -1.996   0.000  0.00  0.00     0.222 A 
ATOM      5  C   UNL d   1       1.833  -0.342   0.000  0.00  0.00     0.079 A 
ATOM      6  O   UNL d   1       3.269  -0.330   0.000  0.00  0.00    -0.305 OA
ATOM      7  C   UNL d   1       3.996  -0.743   0.000  0.00  0.00     0.126 A 
ATOM      8  C   UNL d   1       1.833  -1.996   0.000  0.00  0.00     0.009 A 
ATOM      9  C   UNL d   1       1.119  -0.756   0.000  0.00  0.00     0.199 A 
ATOM     10  O   UNL d   1       3.282  -2.822   0.000  0.00  0.00    -0.284 OA
ATOM     11  C   UNL d   1       1.119  -1.583   0.000  0.00  0.00     0.042 A 
ATOM     12  O   UNL d   1       0.405  -0.342   0.000  0.00  0.00    -0.286 OA
ATOM     13  C   UNL d   1       4.710  -0.330   0.000  0.00  0.00     0.029 C 
ENDROOT
BRANCH   2  14
ATOM     14  O   UNL d   1       4.714  -1.992   0.000  0.00  0.00    -0.302 OA
BRANCH  14  15
ATOM     15  C   UNL d   1       5.428  -1.578   0.000  0.00  0.00     0.102 A 
ATOM     16  C   UNL d   1       6.142  -1.992   0.000  0.00  0.00     0.049 A 
ATOM     17  C   UNL d   1       6.856  -1.578   0.000  0.00  0.00     0.096 A 
ATOM     18  C   UNL d   1       6.856  -0.752   0.000  0.00  0.00     0.024 A 
ATOM     19  C   UNL d   1       6.129  -0.338   0.000  0.00  0.00     0.004 A 
ATOM     20  C   UNL d   1       5.424  -0.756   0.000  0.00  0.00     0.025 A 
BRANCH  17  21
ATOM     21  O   UNL d   1       7.570  -1.992   0.000  0.00  0.00    -0.328 OA
ATOM     22  C   UNL d   1       8.284  -1.578   0.000  0.00  0.00     0.181 C 
ENDBRANCH  17  21
ENDBRANCH  14  15
ENDBRANCH   2  14
BRANCH   5  23
ATOM     23  C   UNL d   1       1.833   0.476   0.000  0.00  0.00     0.086 C 
BRANCH  23  24
ATOM     24  N   UNL d   1       1.115   0.889   0.000  0.00  0.00    -0.299 N 
ATOM     25  C   UNL d   1       1.119   1.716   0.000  0.00  0.00     0.107 A 
ATOM     26  C   UNL d   1       0.405   2.129   0.000  0.00  0.00     0.142 A 
ATOM     27  O   UNL d   1      -0.313   1.716   0.000  0.00  0.00    -0.300 OA
ATOM     28  C   UNL d   1      -0.313   0.889   0.000  0.00  0.00     0.142 A 
ATOM     29  C   UNL d   1       0.405   0.472   0.000  0.00  0.00     0.107 A 
ENDBRANCH  23  24
ENDBRANCH   5  23
TORSDOF 5
