REMARK  4 active torsions:
REMARK  status: ('A' for Active; 'I' for Inactive)
REMARK    1  A    between atoms: C_7  and  C_2 
REMARK    2  A    between atoms: C_12  and  C_4 
REMARK    3  A    between atoms: C_11  and  C_7 
REMARK    4  A    between atoms: N_18  and  C_12 
ROOT
ATOM      1  C   UNL d   1       1.579  -1.125   0.000  0.00  0.00     0.108 A 
ATOM      2  C   UNL d   1       2.854  -1.538   0.000  0.00  0.00     0.141 A 
ATOM      3  C   UNL d   1       1.579  -1.950   0.000  0.00  0.00     0.064 A 
ATOM      4  C   UNL d   1       0.867  -0.713   0.000  0.00  0.00     0.079 A 
ATOM      5  O   UNL d   1       2.367  -0.867   0.000  0.00  0.00    -0.304 OA
ATOM      6  C   UNL d   1       2.367  -2.204   0.000  0.00  0.00     0.220 A 
ATOM      7  C   UNL d   1       0.867  -2.367   0.000  0.00  0.00     0.008 A 
ATOM      8  C   UNL d   1       0.154  -1.125   0.000  0.00  0.00     0.199 A 
ATOM      9  C   UNL d   1       0.154  -1.954   0.000  0.00  0.00     0.042 A 
ATOM     10  O   UNL d   1       2.625  -2.992   0.000  0.00  0.00    -0.284 OA
ATOM     11  O   UNL d   1      -0.558  -0.717   0.000  0.00  0.00    -0.286 OA
ATOM     12  C   UNL d   1       0.867  -3.192   0.000  0.00  0.00     0.000 C 
ENDROOT
BRANCH   2  13
ATOM     13  C   UNL d   1       3.679  -1.538   0.000  0.00  0.00     0.053 C 
BRANCH  13  14
ATOM     14  C   UNL d   1       4.092  -0.817   0.000  0.00  0.00     0.102 A 
ATOM     15  O   UNL d   1       3.754  -0.067   0.000  0.00  0.00    -0.305 OA
ATOM     16  C   UNL d   1       4.367   0.483   0.000  0.00  0.00     0.123 A 
ATOM     17  C   UNL d   1       5.079   0.071   0.000  0.00  0.00     0.029 A 
ATOM     18  C   UNL d   1       4.904  -0.738   0.000  0.00  0.00     0.027 A 
ENDBRANCH  13  14
ENDBRANCH   2  13
BRANCH   4  19
ATOM     19  C   UNL d   1       0.863   0.113   0.000  0.00  0.00     0.086 C 
BRANCH  19  20
ATOM     20  N   UNL d   1       0.150   0.521   0.000  0.00  0.00    -0.300 N 
ATOM     21  C   UNL d   1       0.142   1.346   0.000  0.00  0.00     0.100 C 
ATOM     22  C   UNL d   1      -0.571   0.108   0.000  0.00  0.00     0.100 C 
ENDBRANCH  19  20
ENDBRANCH   4  19
TORSDOF 4
