REMARK  3 active torsions:
REMARK  status: ('A' for Active; 'I' for Inactive)
REMARK    1  A    between atoms: C_6  and  C_1 
REMARK    2  A    between atoms: C_7  and  C_6 
REMARK    3  A    between atoms: O_17  and  C_15 
ROOT
ATOM      1  C   UNL d   1       6.280  -6.104   0.000  0.00  0.00     0.141 A 
ATOM      2  C   UNL d   1       5.010  -6.513   0.000  0.00  0.00     0.064 A 
ATOM      3  C   UNL d   1       5.791  -6.768   0.000  0.00  0.00     0.220 A 
ATOM      4  C   UNL d   1       5.010  -5.687   0.000  0.00  0.00     0.105 A 
ATOM      5  O   UNL d   1       5.800  -5.428   0.000  0.00  0.00    -0.304 OA
ATOM      6  C   UNL d   1       4.301  -5.278   0.000  0.00  0.00     0.049 A 
ATOM      7  C   UNL d   1       4.296  -6.927   0.000  0.00  0.00     0.007 A 
ATOM      8  O   UNL d   1       6.050  -7.557   0.000  0.00  0.00    -0.284 OA
ATOM      9  C   UNL d   1       3.587  -5.691   0.000  0.00  0.00     0.096 A 
ATOM     10  C   UNL d   1       3.587  -6.513   0.000  0.00  0.00     0.024 A 
ENDROOT
BRANCH   1  11
ATOM     11  C   UNL d   1       7.106  -6.104   0.000  0.00  0.00     0.053 C 
BRANCH  11  12
ATOM     12  C   UNL d   1       7.528  -5.390   0.000  0.00  0.00     0.102 A 
ATOM     13  O   UNL d   1       8.347  -5.303   0.000  0.00  0.00    -0.305 OA
ATOM     14  C   UNL d   1       8.522  -4.497   0.000  0.00  0.00     0.123 A 
ATOM     15  C   UNL d   1       7.808  -4.075   0.000  0.00  0.00     0.029 A 
ATOM     16  C   UNL d   1       7.190  -4.626   0.000  0.00  0.00     0.027 A 
ENDBRANCH  11  12
ENDBRANCH   1  11
BRANCH   9  17
ATOM     17  O   UNL d   1       2.873  -5.278   0.000  0.00  0.00    -0.328 OA
ATOM     18  C   UNL d   1       2.159  -5.687   0.000  0.00  0.00     0.181 C 
ENDBRANCH   9  17
TORSDOF 3
