REMARK  5 active torsions:
REMARK  status: ('A' for Active; 'I' for Inactive)
REMARK    1  A    between atoms: C_12  and  C_1 
REMARK    2  A    between atoms: C_4  and  O_8 
REMARK       I    between atoms: N_11  and  C_4 
REMARK    3  A    between atoms: O_8  and  C_13 
REMARK    4  A    between atoms: C_17  and  N_11 
REMARK    5  A    between atoms: C_18  and  N_11 
ROOT
ATOM      1  C   UNL d   1       2.654  -5.779   0.000  0.00  0.00     0.064 A 
ATOM      2  C   UNL d   1       1.942  -6.200   0.000  0.00  0.00     0.199 A 
ATOM      3  C   UNL d   1       1.229  -5.787   0.000  0.00  0.00     0.062 A 
ATOM      4  C   UNL d   1       2.654  -4.954   0.000  0.00  0.00     0.126 A 
ATOM      5  C   UNL d   1       1.225  -4.963   0.000  0.00  0.00     0.105 A 
ATOM      6  O   UNL d   1       1.938  -4.542   0.000  0.00  0.00    -0.305 OA
ATOM      7  C   UNL d   1       0.504  -4.550   0.000  0.00  0.00     0.050 A 
ATOM      8  C   UNL d   1       0.504  -6.204   0.000  0.00  0.00     0.007 A 
ATOM      9  C   UNL d   1      -0.208  -4.963   0.000  0.00  0.00     0.107 A 
ATOM     10  O   UNL d   1       1.942  -7.025   0.000  0.00  0.00    -0.286 OA
ATOM     11  C   UNL d   1      -0.208  -5.792   0.000  0.00  0.00     0.025 A 
ENDROOT
BRANCH   9  12
ATOM     12  O   UNL d   1      -0.921  -4.554   0.000  0.00  0.00    -0.259 OA
BRANCH  12  13
ATOM     13  C   UNL d   1      -1.633  -4.963   0.000  0.00  0.00     0.377 C 
ATOM     14  N   UNL d   1      -2.346  -4.542   0.000  0.00  0.00    -0.252 N 
ATOM     15  O   UNL d   1      -1.637  -5.787   0.000  0.00  0.00    -0.237 OA
BRANCH  14  16
ATOM     16  C   UNL d   1      -2.346  -3.717   0.000  0.00  0.00     0.085 C 
ATOM     17  C   UNL d   1      -1.625  -3.312   0.000  0.00  0.00     0.021 C 
ENDBRANCH  14  16
BRANCH  14  18
ATOM     18  C   UNL d   1      -3.062  -4.954   0.000  0.00  0.00     0.085 C 
ATOM     19  C   UNL d   1      -3.071  -5.779   0.000  0.00  0.00     0.021 C 
ENDBRANCH  14  18
ENDBRANCH  12  13
ENDBRANCH   9  12
BRANCH   1  20
ATOM     20  C   UNL d   1       3.375  -6.192   0.000  0.00  0.00     0.005 A 
ATOM     21  C   UNL d   1       3.367  -7.017   0.000  0.00  0.00     0.000 A 
ATOM     22  C   UNL d   1       4.088  -7.429   0.000  0.00  0.00     0.000 A 
ATOM     23  C   UNL d   1       4.800  -7.017   0.000  0.00  0.00     0.000 A 
ATOM     24  C   UNL d   1       4.792  -6.188   0.000  0.00  0.00     0.000 A 
ATOM     25  C   UNL d   1       4.079  -5.779   0.000  0.00  0.00     0.000 A 
ENDBRANCH   1  20
TORSDOF 5
