REMARK  6 active torsions:
REMARK  status: ('A' for Active; 'I' for Inactive)
REMARK    1  A    between atoms: C_8  and  C_1 
REMARK    2  A    between atoms: C_6  and  O_10 
REMARK    3  A    between atoms: C_7  and  C_6 
REMARK    4  A    between atoms: C_18  and  C_8 
REMARK    5  A    between atoms: O_10  and  C_12 
REMARK    6  A    between atoms: O_20  and  C_13 
ROOT
ATOM      1  C   UNL d   1       6.163  -6.175   0.000  0.00  0.00     0.139 A 
ATOM      2  C   UNL d   1       4.889  -6.580   0.000  0.00  0.00     0.064 A 
ATOM      3  C   UNL d   1       5.674  -6.843   0.000  0.00  0.00     0.220 A 
ATOM      4  C   UNL d   1       4.889  -5.754   0.000  0.00  0.00     0.105 A 
ATOM      5  O   UNL d   1       5.678  -5.503   0.000  0.00  0.00    -0.304 OA
ATOM      6  C   UNL d   1       4.175  -5.349   0.000  0.00  0.00     0.050 A 
ATOM      7  C   UNL d   1       4.175  -6.994   0.000  0.00  0.00     0.007 A 
ATOM      8  C   UNL d   1       3.470  -5.762   0.000  0.00  0.00     0.105 A 
ATOM      9  O   UNL d   1       5.929  -7.628   0.000  0.00  0.00    -0.284 OA
ATOM     10  C   UNL d   1       3.461  -6.580   0.000  0.00  0.00     0.025 A 
ENDROOT
BRANCH   8  11
ATOM     11  O   UNL d   1       2.756  -5.349   0.000  0.00  0.00    -0.273 OA
BRANCH  11  12
ATOM     12  C   UNL d   1       2.033  -5.754   0.000  0.00  0.00     0.302 C 
ATOM     13  O   UNL d   1       2.033  -6.580   0.000  0.00  0.00    -0.259 OA
BRANCH  12  14
ATOM     14  C   UNL d   1       1.319  -5.349   0.000  0.00  0.00     0.086 A 
ATOM     15  C   UNL d   1       1.319  -4.513   0.000  0.00  0.00     0.099 A 
ATOM     16  C   UNL d   1       0.606  -4.109   0.000  0.00  0.00     0.024 A 
ATOM     17  C   UNL d   1      -0.108  -4.513   0.000  0.00  0.00     0.002 A 
ATOM     18  C   UNL d   1      -0.108  -5.353   0.000  0.00  0.00     0.000 A 
ATOM     19  C   UNL d   1       0.606  -5.762   0.000  0.00  0.00     0.007 A 
BRANCH  15  20
ATOM     20  O   UNL d   1       2.042  -4.113   0.000  0.00  0.00    -0.328 OA
ATOM     21  C   UNL d   1       2.042  -3.286   0.000  0.00  0.00     0.181 C 
ENDBRANCH  15  20
ENDBRANCH  12  14
ENDBRANCH  11  12
ENDBRANCH   8  11
BRANCH   1  22
ATOM     22  C   UNL d   1       6.989  -6.175   0.000  0.00  0.00     0.028 C 
BRANCH  22  23
ATOM     23  C   UNL d   1       7.407  -5.461   0.000  0.00  0.00     0.005 A 
ATOM     24  C   UNL d   1       6.994  -4.752   0.000  0.00  0.00     0.021 A 
ATOM     25  C   UNL d   1       7.403  -4.038   0.000  0.00  0.00     0.099 A 
ATOM     26  N   UNL d   1       8.234  -4.033   0.000  0.00  0.00    -0.242 NA
ATOM     27  C   UNL d   1       8.647  -4.752   0.000  0.00  0.00     0.099 A 
ATOM     28  C   UNL d   1       8.229  -5.465   0.000  0.00  0.00     0.021 A 
ENDBRANCH  22  23
ENDBRANCH   1  22
TORSDOF 6
