REMARK  6 active torsions:
REMARK  status: ('A' for Active; 'I' for Inactive)
REMARK    1  A    between atoms: C_6  and  C_1 
REMARK    2  A    between atoms: C_8  and  C_6 
REMARK    3  A    between atoms: O_14  and  C_10 
REMARK    4  A    between atoms: C_12  and  C_20 
REMARK    5  A    between atoms: O_21  and  C_12 
REMARK    6  A    between atoms: C_20  and  O_14 
ROOT
ATOM      1  C   UNL d   1       2.832  -1.219   0.000  0.00  0.00     0.141 A 
ATOM      2  C   UNL d   1       1.554  -0.814   0.000  0.00  0.00     0.105 A 
ATOM      3  O   UNL d   1       2.347  -0.548   0.000  0.00  0.00    -0.304 OA
ATOM      4  C   UNL d   1       1.554  -1.634   0.000  0.00  0.00     0.064 A 
ATOM      5  C   UNL d   1       2.347  -1.900   0.000  0.00  0.00     0.220 A 
ATOM      6  C   UNL d   1       0.836  -0.399   0.000  0.00  0.00     0.046 A 
ATOM      7  C   UNL d   1       0.836  -2.049   0.000  0.00  0.00     0.007 A 
ATOM      8  C   UNL d   1       0.128  -0.814   0.000  0.00  0.00     0.102 A 
ATOM      9  O   UNL d   1       2.603  -2.683   0.000  0.00  0.00    -0.284 OA
ATOM     10  C   UNL d   1       0.128  -1.634   0.000  0.00  0.00     0.025 A 
ATOM     11  C   UNL d   1       0.836   0.426   0.000  0.00  0.00     0.004 C 
ENDROOT
BRANCH   1  12
ATOM     12  C   UNL d   1       3.662  -1.219   0.000  0.00  0.00     0.053 C 
BRANCH  12  13
ATOM     13  C   UNL d   1       4.072  -0.511   0.000  0.00  0.00     0.102 A 
ATOM     14  O   UNL d   1       3.737   0.239   0.000  0.00  0.00    -0.305 OA
ATOM     15  C   UNL d   1       4.349   0.793   0.000  0.00  0.00     0.123 A 
ATOM     16  C   UNL d   1       5.067   0.378   0.000  0.00  0.00     0.029 A 
ATOM     17  C   UNL d   1       4.892  -0.420   0.000  0.00  0.00     0.027 A 
ENDBRANCH  12  13
ENDBRANCH   1  12
BRANCH   8  18
ATOM     18  O   UNL d   1      -0.586  -0.405   0.000  0.00  0.00    -0.300 OA
BRANCH  18  19
ATOM     19  C   UNL d   1      -1.304  -0.814   0.000  0.00  0.00     0.191 C 
BRANCH  19  20
ATOM     20  C   UNL d   1      -2.023  -0.399   0.000  0.00  0.00     0.321 C 
ATOM     21  O   UNL d   1      -2.023   0.426   0.000  0.00  0.00    -0.257 OA
BRANCH  20  22
ATOM     22  O   UNL d   1      -2.731  -0.804   0.000  0.00  0.00    -0.294 OA
ATOM     23  C   UNL d   1      -3.444  -0.399   0.000  0.00  0.00     0.185 C 
ENDBRANCH  20  22
ENDBRANCH  19  20
ENDBRANCH  18  19
ENDBRANCH   8  18
TORSDOF 6
