REMARK  5 active torsions:
REMARK  status: ('A' for Active; 'I' for Inactive)
REMARK    1  A    between atoms: C_8  and  C_1 
REMARK    2  A    between atoms: C_6  and  O_10 
REMARK       I    between atoms: N_7  and  C_6 
REMARK    3  A    between atoms: C_15  and  C_8 
REMARK    4  A    between atoms: O_10  and  C_12 
REMARK    5  A    between atoms: C_27  and  C_18 
ROOT
ATOM      1  C   UNL d   1       7.154  -5.222   0.000  0.00  0.00     0.139 A 
ATOM      2  C   UNL d   1       5.874  -4.815   0.000  0.00  0.00     0.064 A 
ATOM      3  C   UNL d   1       6.659  -4.561   0.000  0.00  0.00     0.220 A 
ATOM      4  C   UNL d   1       5.874  -5.637   0.000  0.00  0.00     0.105 A 
ATOM      5  O   UNL d   1       6.668  -5.899   0.000  0.00  0.00    -0.304 OA
ATOM      6  C   UNL d   1       5.164  -6.048   0.000  0.00  0.00     0.050 A 
ATOM      7  C   UNL d   1       5.164  -4.399   0.000  0.00  0.00     0.007 A 
ATOM      8  C   UNL d   1       4.462  -5.637   0.000  0.00  0.00     0.107 A 
ATOM      9  O   UNL d   1       6.921  -3.768   0.000  0.00  0.00    -0.284 OA
ATOM     10  C   UNL d   1       4.453  -4.815   0.000  0.00  0.00     0.025 A 
ENDROOT
BRANCH   1  11
ATOM     11  C   UNL d   1       7.980  -5.222   0.000  0.00  0.00     0.028 C 
BRANCH  11  12
ATOM     12  C   UNL d   1       8.392  -5.936   0.000  0.00  0.00     0.002 A 
ATOM     13  C   UNL d   1       9.214  -5.936   0.000  0.00  0.00     0.000 A 
ATOM     14  C   UNL d   1       9.638  -6.647   0.000  0.00  0.00     0.000 A 
ATOM     15  C   UNL d   1       9.222  -7.365   0.000  0.00  0.00     0.000 A 
ATOM     16  C   UNL d   1       8.392  -7.365   0.000  0.00  0.00     0.000 A 
ATOM     17  C   UNL d   1       7.980  -6.647   0.000  0.00  0.00     0.000 A 
BRANCH  15  18
ATOM     18  C   UNL d   1       9.638  -8.080   0.000  0.00  0.00     0.000 C 
ATOM     19  C   UNL d   1      10.460  -8.080   0.000  0.00  0.00     0.000 C 
ENDBRANCH  15  18
ENDBRANCH  11  12
ENDBRANCH   1  11
BRANCH   8  20
ATOM     20  O   UNL d   1       3.743  -6.048   0.000  0.00  0.00    -0.259 OA
BRANCH  20  21
ATOM     21  C   UNL d   1       3.020  -5.637   0.000  0.00  0.00     0.378 C 
ATOM     22  N   UNL d   1       2.310  -6.048   0.000  0.00  0.00    -0.247 N 
ATOM     23  C   UNL d   1       2.310  -6.883   0.000  0.00  0.00     0.112 A 
ATOM     24  C   UNL d   1       1.595  -5.650   0.000  0.00  0.00     0.112 A 
ATOM     25  C   UNL d   1       1.599  -7.303   0.000  0.00  0.00     0.142 A 
ATOM     26  O   UNL d   1       0.877  -6.883   0.000  0.00  0.00    -0.300 OA
ATOM     27  C   UNL d   1       0.877  -6.061   0.000  0.00  0.00     0.142 A 
ATOM     28  O   UNL d   1       3.020  -4.815   0.000  0.00  0.00    -0.237 OA
ENDBRANCH  20  21
ENDBRANCH   8  20
TORSDOF 5
