REMARK  4 active torsions:
REMARK  status: ('A' for Active; 'I' for Inactive)
REMARK    1  A    between atoms: C_2  and  S_1 
REMARK    2  A    between atoms: N_3  and  S_1 
REMARK    3  A    between atoms: C_18  and  N_8 
REMARK    4  A    between atoms: C_21  and  C_18 
ROOT
ATOM      1  S   UNL d   1       4.529  -1.917   0.000  0.00  0.00     0.271 S 
ATOM      2  O   UNL d   1       4.537  -2.742   0.000  0.00  0.00    -0.200 OA
ATOM      3  O   UNL d   1       4.517  -1.092   0.000  0.00  0.00    -0.200 OA
ENDROOT
BRANCH   1   4
ATOM      4  C   UNL d   1       3.704  -1.917   0.000  0.00  0.00     0.104 A 
ATOM      5  C   UNL d   1       3.292  -2.642   0.000  0.00  0.00     0.012 A 
ATOM      6  C   UNL d   1       2.467  -2.650   0.000  0.00  0.00     0.001 A 
ATOM      7  C   UNL d   1       3.712  -3.354   0.000  0.00  0.00     0.001 C 
ATOM      8  C   UNL d   1       2.054  -1.938   0.000  0.00  0.00     0.000 A 
ATOM      9  C   UNL d   1       2.462  -1.217   0.000  0.00  0.00     0.001 A 
ATOM     10  C   UNL d   1       1.229  -1.942   0.000  0.00  0.00     0.000 C 
ATOM     11  C   UNL d   1       3.288  -1.212   0.000  0.00  0.00     0.012 A 
ATOM     12  C   UNL d   1       3.692  -0.492   0.000  0.00  0.00     0.001 C 
ENDBRANCH   1   4
BRANCH   1  13
ATOM     13  N   UNL d   1       5.354  -1.904   0.000  0.00  0.00    -0.226 N 
ATOM     14  C   UNL d   1       5.775  -2.617   0.000  0.00  0.00     0.111 A 
ATOM     15  C   UNL d   1       6.600  -2.604   0.000  0.00  0.00     0.100 A 
ATOM     16  N   UNL d   1       7.004  -1.887   0.000  0.00  0.00    -0.297 N 
ATOM     17  C   UNL d   1       6.579  -1.175   0.000  0.00  0.00     0.100 A 
ATOM     18  C   UNL d   1       5.754  -1.179   0.000  0.00  0.00     0.111 A 
BRANCH  16  19
ATOM     19  C   UNL d   1       7.829  -1.879   0.000  0.00  0.00     0.126 C 
BRANCH  19  20
ATOM     20  C   UNL d   1       8.250  -2.587   0.000  0.00  0.00     0.253 C 
ATOM     21  O   UNL d   1       9.075  -2.579   0.000  0.00  0.00    -0.281 OA
ENDBRANCH  19  20
ENDBRANCH  16  19
ENDBRANCH   1  13
TORSDOF 4
