REMARK  6 active torsions:
REMARK  status: ('A' for Active; 'I' for Inactive)
REMARK    1  A    between atoms: C_10  and  C_1 
REMARK    2  A    between atoms: C_7  and  O_9 
REMARK       I    between atoms: N_12  and  C_7 
REMARK    3  A    between atoms: O_9  and  C_14 
REMARK    4  A    between atoms: C_24  and  N_12 
REMARK    5  A    between atoms: C_25  and  N_12 
REMARK    6  A    between atoms: O_23  and  C_20 
ROOT
ATOM      1  C   UNL d   1       2.558  -2.520   0.000  0.00  0.00     0.062 A 
ATOM      2  C   UNL d   1       1.832  -2.933   0.000  0.00  0.00     0.199 A 
ATOM      3  C   UNL d   1       2.554  -1.681   0.000  0.00  0.00     0.103 A 
ATOM      4  C   UNL d   1       1.118  -2.529   0.000  0.00  0.00     0.062 A 
ATOM      5  C   UNL d   1       1.114  -1.694   0.000  0.00  0.00     0.105 A 
ATOM      6  O   UNL d   1       1.827  -1.268   0.000  0.00  0.00    -0.307 OA
ATOM      7  C   UNL d   1       0.392  -1.281   0.000  0.00  0.00     0.050 A 
ATOM      8  C   UNL d   1       0.392  -2.933   0.000  0.00  0.00     0.007 A 
ATOM      9  O   UNL d   1       1.840  -3.759   0.000  0.00  0.00    -0.286 OA
ATOM     10  C   UNL d   1      -0.321  -1.694   0.000  0.00  0.00     0.107 A 
ATOM     11  C   UNL d   1      -0.321  -2.520   0.000  0.00  0.00     0.025 A 
ATOM     12  C   UNL d   1       3.267  -1.268   0.000  0.00  0.00     0.027 C 
ENDROOT
BRANCH   1  13
ATOM     13  C   UNL d   1       3.271  -2.929   0.000  0.00  0.00     0.005 A 
ATOM     14  C   UNL d   1       3.271  -3.759   0.000  0.00  0.00     0.002 A 
ATOM     15  C   UNL d   1       3.985  -4.168   0.000  0.00  0.00     0.024 A 
ATOM     16  C   UNL d   1       4.698  -3.755   0.000  0.00  0.00     0.094 A 
ATOM     17  C   UNL d   1       4.698  -2.921   0.000  0.00  0.00     0.024 A 
ATOM     18  C   UNL d   1       3.985  -2.516   0.000  0.00  0.00     0.002 A 
BRANCH  16  19
ATOM     19  O   UNL d   1       5.412  -4.160   0.000  0.00  0.00    -0.328 OA
ATOM     20  C   UNL d   1       6.125  -3.747   0.000  0.00  0.00     0.181 C 
ENDBRANCH  16  19
ENDBRANCH   1  13
BRANCH  10  21
ATOM     21  O   UNL d   1      -1.035  -1.281   0.000  0.00  0.00    -0.259 OA
BRANCH  21  22
ATOM     22  C   UNL d   1      -1.748  -1.694   0.000  0.00  0.00     0.377 C 
ATOM     23  N   UNL d   1      -2.462  -1.281   0.000  0.00  0.00    -0.252 N 
ATOM     24  O   UNL d   1      -1.748  -2.520   0.000  0.00  0.00    -0.237 OA
BRANCH  23  25
ATOM     25  C   UNL d   1      -2.466  -0.451   0.000  0.00  0.00     0.085 C 
ATOM     26  C   UNL d   1      -3.175  -0.029   0.000  0.00  0.00     0.021 C 
ENDBRANCH  23  25
BRANCH  23  27
ATOM     27  C   UNL d   1      -3.179  -1.694   0.000  0.00  0.00     0.085 C 
ATOM     28  C   UNL d   1      -3.901  -1.277   0.000  0.00  0.00     0.021 C 
ENDBRANCH  23  27
ENDBRANCH  21  22
ENDBRANCH  10  21
TORSDOF 6
