REMARK  8 active torsions:
REMARK  status: ('A' for Active; 'I' for Inactive)
REMARK    1  A    between atoms: O_8  and  C_1 
REMARK    2  A    between atoms: C_10  and  C_5 
REMARK    3  A    between atoms: C_12  and  O_8 
REMARK    4  A    between atoms: N_9  and  C_10 
REMARK    5  A    between atoms: C_25  and  N_14 
REMARK    6  A    between atoms: O_24  and  C_17 
REMARK    7  A    between atoms: C_30  and  O_24 
REMARK    8  A    between atoms: C_29  and  C_25 
ROOT
ATOM      1  C   UNL d   1       2.204  -1.550   0.000  0.00  0.00     0.161 A 
ATOM      2  C   UNL d   1       0.767  -0.717   0.000  0.00  0.00     0.108 A 
ATOM      3  C   UNL d   1       0.762  -1.550   0.000  0.00  0.00     0.064 A 
ATOM      4  C   UNL d   1       1.479  -1.962   0.000  0.00  0.00     0.222 A 
ATOM      5  C   UNL d   1       0.050  -0.304   0.000  0.00  0.00     0.079 A 
ATOM      6  O   UNL d   1       1.479  -0.292   0.000  0.00  0.00    -0.305 OA
ATOM      7  C   UNL d   1       2.204  -0.717   0.000  0.00  0.00     0.126 A 
ATOM      8  C   UNL d   1       0.050  -1.954   0.000  0.00  0.00     0.009 A 
ATOM      9  C   UNL d   1      -0.662  -0.717   0.000  0.00  0.00     0.199 A 
ATOM     10  O   UNL d   1       1.479  -2.788   0.000  0.00  0.00    -0.284 OA
ATOM     11  C   UNL d   1      -0.662  -1.542   0.000  0.00  0.00     0.042 A 
ATOM     12  O   UNL d   1      -1.375  -0.304   0.000  0.00  0.00    -0.286 OA
ATOM     13  C   UNL d   1       2.917  -0.304   0.000  0.00  0.00     0.029 C 
ENDROOT
BRANCH   1  14
ATOM     14  O   UNL d   1       2.917  -1.967   0.000  0.00  0.00    -0.300 OA
BRANCH  14  15
ATOM     15  C   UNL d   1       3.629  -1.554   0.000  0.00  0.00     0.123 A 
ATOM     16  C   UNL d   1       4.342  -1.967   0.000  0.00  0.00     0.123 A 
ATOM     17  C   UNL d   1       5.054  -1.562   0.000  0.00  0.00     0.027 A 
ATOM     18  C   UNL d   1       5.062  -0.738   0.000  0.00  0.00     0.002 A 
ATOM     19  C   UNL d   1       4.342  -0.317   0.000  0.00  0.00     0.002 A 
ATOM     20  C   UNL d   1       3.629  -0.729   0.000  0.00  0.00     0.027 A 
BRANCH  16  21
ATOM     21  O   UNL d   1       4.338  -2.792   0.000  0.00  0.00    -0.303 OA
BRANCH  21  22
ATOM     22  C   UNL d   1       5.050  -3.204   0.000  0.00  0.00     0.123 C 
ATOM     23  C   UNL d   1       5.767  -2.800   0.000  0.00  0.00     0.029 C 
ENDBRANCH  21  22
ENDBRANCH  16  21
ENDBRANCH  14  15
ENDBRANCH   1  14
BRANCH   5  24
ATOM     24  C   UNL d   1       0.042   0.521   0.000  0.00  0.00     0.086 C 
BRANCH  24  25
ATOM     25  N   UNL d   1       0.762   0.933   0.000  0.00  0.00    -0.300 N 
ATOM     26  C   UNL d   1       1.479   0.521   0.000  0.00  0.00     0.100 A 
ATOM     27  C   UNL d   1       2.188   0.933   0.000  0.00  0.00     0.100 A 
ATOM     28  N   UNL d   1       2.192   1.758   0.000  0.00  0.00    -0.297 N 
ATOM     29  C   UNL d   1       1.475   2.171   0.000  0.00  0.00     0.100 A 
ATOM     30  C   UNL d   1       0.754   1.758   0.000  0.00  0.00     0.100 A 
BRANCH  28  31
ATOM     31  C   UNL d   1       2.904   2.171   0.000  0.00  0.00     0.126 C 
BRANCH  31  32
ATOM     32  C   UNL d   1       3.617   1.758   0.000  0.00  0.00     0.253 C 
ATOM     33  O   UNL d   1       4.329   2.171   0.000  0.00  0.00    -0.281 OA
ENDBRANCH  31  32
ENDBRANCH  28  31
ENDBRANCH  24  25
ENDBRANCH   5  24
TORSDOF 8
