REMARK  5 active torsions:
REMARK  status: ('A' for Active; 'I' for Inactive)
REMARK    1  A    between atoms: O_8  and  S_1 
REMARK    2  A    between atoms: C_9  and  S_1 
REMARK    3  A    between atoms: C_7  and  C_2 
REMARK    4  A    between atoms: C_20  and  C_7 
REMARK    5  A    between atoms: C_14  and  O_8 
ROOT
ATOM      1  C   UNL d   1       7.876  -2.982   0.000  0.00  0.00     0.139 A 
ATOM      2  C   UNL d   1       6.608  -2.570   0.000  0.00  0.00     0.064 A 
ATOM      3  C   UNL d   1       7.392  -2.314   0.000  0.00  0.00     0.220 A 
ATOM      4  C   UNL d   1       6.608  -3.398   0.000  0.00  0.00     0.105 A 
ATOM      5  O   UNL d   1       7.392  -3.650   0.000  0.00  0.00    -0.304 OA
ATOM      6  C   UNL d   1       5.886  -3.810   0.000  0.00  0.00     0.050 A 
ATOM      7  C   UNL d   1       5.886  -2.154   0.000  0.00  0.00     0.007 A 
ATOM      8  C   UNL d   1       5.175  -3.398   0.000  0.00  0.00     0.116 A 
ATOM      9  O   UNL d   1       7.644  -1.530   0.000  0.00  0.00    -0.284 OA
ATOM     10  C   UNL d   1       5.175  -2.570   0.000  0.00  0.00     0.026 A 
ENDROOT
BRANCH   8  11
ATOM     11  O   UNL d   1       4.463  -3.805   0.000  0.00  0.00    -0.227 OA
BRANCH  11  12
ATOM     12  S   UNL d   1       3.752  -3.403   0.000  0.00  0.00     0.304 S 
ATOM     13  O   UNL d   1       3.345  -4.115   0.000  0.00  0.00    -0.193 OA
ATOM     14  O   UNL d   1       4.158  -2.692   0.000  0.00  0.00    -0.193 OA
BRANCH  12  15
ATOM     15  C   UNL d   1       3.035  -2.997   0.000  0.00  0.00     0.111 A 
ATOM     16  C   UNL d   1       2.324  -3.413   0.000  0.00  0.00     0.013 A 
ATOM     17  C   UNL d   1       1.602  -3.006   0.000  0.00  0.00     0.001 A 
ATOM     18  C   UNL d   1       1.602  -2.183   0.000  0.00  0.00     0.000 A 
ATOM     19  C   UNL d   1       2.314  -1.762   0.000  0.00  0.00     0.001 A 
ATOM     20  C   UNL d   1       0.886  -1.777   0.000  0.00  0.00     0.000 C 
ATOM     21  C   UNL d   1       3.026  -2.169   0.000  0.00  0.00     0.013 A 
ENDBRANCH  12  15
ENDBRANCH  11  12
ENDBRANCH   8  11
BRANCH   1  22
ATOM     22  C   UNL d   1       8.704  -2.982   0.000  0.00  0.00     0.029 C 
BRANCH  22  23
ATOM     23  C   UNL d   1       9.110  -3.693   0.000  0.00  0.00     0.021 A 
ATOM     24  C   UNL d   1       9.938  -3.693   0.000  0.00  0.00     0.099 A 
ATOM     25  N   UNL d   1      10.354  -4.405   0.000  0.00  0.00    -0.242 NA
ATOM     26  C   UNL d   1       9.938  -5.117   0.000  0.00  0.00     0.099 A 
ATOM     27  C   UNL d   1       9.110  -5.117   0.000  0.00  0.00     0.021 A 
ATOM     28  C   UNL d   1       8.704  -4.405   0.000  0.00  0.00     0.003 A 
ENDBRANCH  22  23
ENDBRANCH   1  22
TORSDOF 5
