REMARK  5 active torsions:
REMARK  status: ('A' for Active; 'I' for Inactive)
REMARK    1  A    between atoms: N_3  and  S_1 
REMARK    2  A    between atoms: C_5  and  S_1 
REMARK    3  A    between atoms: C_2  and  C_6 
REMARK       I    between atoms: N_4  and  C_2 
REMARK    4  A    between atoms: C_11  and  N_3 
REMARK    5  A    between atoms: O_18  and  C_14 
ROOT
ATOM      1  C   UNL d   1       1.534   0.627   0.000  0.00  0.00     0.058 A 
ATOM      2  C   UNL d   1       2.337   0.799   0.000  0.00  0.00     0.025 A 
ATOM      3  C   UNL d   1       2.601   1.581   0.000  0.00  0.00     0.094 A 
ATOM      4  C   UNL d   1       0.978   1.250   0.000  0.00  0.00     0.005 A 
ATOM      5  C   UNL d   1       1.242   2.032   0.000  0.00  0.00     0.002 A 
ATOM      6  C   UNL d   1       2.049   2.203   0.000  0.00  0.00     0.020 A 
ENDROOT
BRANCH   3   7
ATOM      7  N   UNL d   1       3.404   1.752   0.000  0.00  0.00    -0.158 NA
BRANCH   7   8
ATOM      8  S   UNL d   1       3.667   2.530   0.000  0.00  0.00     0.285 S 
ATOM      9  O   UNL d   1       2.885   2.793   0.000  0.00  0.00    -0.198 OA
ATOM     10  O   UNL d   1       4.445   2.279   0.000  0.00  0.00    -0.198 OA
BRANCH   8  11
ATOM     11  C   UNL d   1       3.926   3.312   0.000  0.00  0.00     0.107 A 
ATOM     12  C   UNL d   1       3.374   3.934   0.000  0.00  0.00     0.037 A 
ATOM     13  C   UNL d   1       3.638   4.708   0.000  0.00  0.00     0.095 A 
ATOM     14  C   UNL d   1       4.445   4.871   0.000  0.00  0.00     0.024 A 
ATOM     15  C   UNL d   1       4.992   4.265   0.000  0.00  0.00     0.003 A 
ATOM     16  C   UNL d   1       4.733   3.483   0.000  0.00  0.00     0.013 A 
BRANCH  13  17
ATOM     17  O   UNL d   1       3.086   5.335   0.000  0.00  0.00    -0.328 OA
ATOM     18  C   UNL d   1       2.262   5.172   0.000  0.00  0.00     0.181 C 
ENDBRANCH  13  17
ENDBRANCH   8  11
ENDBRANCH   7   8
ENDBRANCH   3   7
BRANCH   1  19
ATOM     19  C   UNL d   1       1.279  -0.155   0.000  0.00  0.00     0.265 C 
ATOM     20  N   UNL d   1       1.836  -0.769   0.000  0.00  0.00    -0.268 N 
ATOM     21  C   UNL d   1       1.581  -1.555   0.000  0.00  0.00     0.110 A 
ATOM     22  C   UNL d   1       2.638  -0.594   0.000  0.00  0.00     0.110 A 
ATOM     23  C   UNL d   1       2.137  -2.162   0.000  0.00  0.00     0.142 A 
ATOM     24  O   UNL d   1       2.939  -1.986   0.000  0.00  0.00    -0.300 OA
ATOM     25  C   UNL d   1       3.199  -1.208   0.000  0.00  0.00     0.142 A 
ATOM     26  O   UNL d   1       0.477  -0.330   0.000  0.00  0.00    -0.267 OA
ENDBRANCH   1  19
TORSDOF 5
