REMARK  3 active torsions:
REMARK  status: ('A' for Active; 'I' for Inactive)
REMARK    1  A    between atoms: N_5  and  C_2 
REMARK    2  A    between atoms: C_8  and  C_3 
REMARK       I    between atoms: C_7  and  N_5 
REMARK    3  A    between atoms: C_10  and  C_7 
ROOT
ATOM      1  N   UNL d   1       1.117   4.025   0.000  0.00  0.00    -0.200 NA
ATOM      2  C   UNL d   1       1.779   3.546   0.000  0.00  0.00     0.216 A 
ATOM      3  C   UNL d   1       1.367   4.817   0.000  0.00  0.00     0.172 A 
ATOM      4  N   UNL d   1       2.192   4.817   0.000  0.00  0.00    -0.187 NA
ATOM      5  S   UNL d   1       2.454   4.029   0.000  0.00  0.00     0.054 SA
ENDROOT
BRANCH   2   6
ATOM      6  N   UNL d   1       1.779   2.721   0.000  0.00  0.00    -0.181 NA
ATOM      7  C   UNL d   1       1.067   2.312   0.000  0.00  0.00     0.281 C 
ATOM      8  O   UNL d   1       0.354   2.725   0.000  0.00  0.00    -0.265 OA
BRANCH   7   9
ATOM      9  C   UNL d   1       1.067   1.496   0.000  0.00  0.00     0.058 A 
ATOM     10  C   UNL d   1       0.354   1.075   0.000  0.00  0.00     0.005 A 
ATOM     11  C   UNL d   1       0.354   0.250   0.000  0.00  0.00     0.000 A 
ATOM     12  C   UNL d   1       1.067  -0.154   0.000  0.00  0.00     0.000 A 
ATOM     13  C   UNL d   1       1.779   0.250   0.000  0.00  0.00     0.000 A 
ATOM     14  C   UNL d   1       1.779   1.083   0.000  0.00  0.00     0.005 A 
ENDBRANCH   7   9
ENDBRANCH   2   6
BRANCH   3  15
ATOM     15  C   UNL d   1       0.887   5.479   0.000  0.00  0.00     0.036 A 
ATOM     16  C   UNL d   1       0.067   5.392   0.000  0.00  0.00     0.003 A 
ATOM     17  C   UNL d   1      -0.421   6.062   0.000  0.00  0.00     0.000 A 
ATOM     18  C   UNL d   1      -0.083   6.817   0.000  0.00  0.00     0.000 A 
ATOM     19  C   UNL d   1       0.742   6.904   0.000  0.00  0.00     0.000 A 
ATOM     20  C   UNL d   1       1.225   6.229   0.000  0.00  0.00     0.003 A 
ENDBRANCH   3  15
TORSDOF 3
