REMARK  5 active torsions:
REMARK  status: ('A' for Active; 'I' for Inactive)
REMARK    1  A    between atoms: C_11  and  C_1 
REMARK    2  A    between atoms: C_5  and  S_13 
REMARK       I    between atoms: C_12  and  N_14 
REMARK    3  A    between atoms: C_18  and  C_12 
REMARK    4  A    between atoms: S_13  and  C_18 
REMARK    5  A    between atoms: N_14  and  C_19 
ROOT
ATOM      1  C   UNL d   1       4.114  -4.501   0.000  0.00  0.00     0.024 A 
ATOM      2  C   UNL d   1       4.859  -4.147   0.000  0.00  0.00     0.004 A 
ATOM      3  C   UNL d   1       3.435  -4.051   0.000  0.00  0.00     0.004 A 
ATOM      4  C   UNL d   1       4.222  -2.860   0.000  0.00  0.00     0.085 A 
ATOM      5  C   UNL d   1       3.489  -3.227   0.000  0.00  0.00     0.019 A 
ATOM      6  C   UNL d   1       4.913  -3.322   0.000  0.00  0.00     0.019 A 
ENDROOT
BRANCH   4   7
ATOM      7  N   UNL d   1       4.263  -2.036   0.000  0.00  0.00    -0.208 NA
ATOM      8  C   UNL d   1       5.000  -1.665   0.000  0.00  0.00     0.286 C 
ATOM      9  O   UNL d   1       5.687  -2.115   0.000  0.00  0.00    -0.265 OA
BRANCH   8  10
ATOM     10  C   UNL d   1       5.046  -0.841   0.000  0.00  0.00     0.100 C 
BRANCH  10  11
ATOM     11  S   UNL d   1       4.351  -0.391   0.000  0.00  0.00    -0.054 SA
BRANCH  11  12
ATOM     12  C   UNL d   1       3.614  -0.766   0.000  0.00  0.00     0.164 A 
ATOM     13  S   UNL d   1       2.885  -0.391   0.000  0.00  0.00    -0.039 SA
ATOM     14  C   UNL d   1       2.298  -0.978   0.000  0.00  0.00     0.134 A 
ATOM     15  C   UNL d   1       1.478  -0.849   0.000  0.00  0.00     0.030 C 
ATOM     16  N   UNL d   1       2.673  -1.715   0.000  0.00  0.00    -0.140 NA
ATOM     17  N   UNL d   1       3.489  -1.586   0.000  0.00  0.00    -0.134 NA
ENDBRANCH  11  12
ENDBRANCH  10  11
ENDBRANCH   8  10
ENDBRANCH   4   7
BRANCH   1  18
ATOM     18  C   UNL d   1       4.051  -5.338   0.000  0.00  0.00     0.111 A 
ATOM     19  N   UNL d   1       4.701  -5.837   0.000  0.00  0.00    -0.239 NA
ATOM     20  C   UNL d   1       4.426  -6.612   0.000  0.00  0.00     0.088 A 
ATOM     21  C   UNL d   1       4.813  -7.336   0.000  0.00  0.00     0.020 A 
ATOM     22  C   UNL d   1       3.601  -6.587   0.000  0.00  0.00     0.049 A 
ATOM     23  C   UNL d   1       4.388  -8.036   0.000  0.00  0.00     0.002 A 
ATOM     24  C   UNL d   1       3.564  -8.019   0.000  0.00  0.00     0.001 A 
ATOM     25  C   UNL d   1       3.173  -7.286   0.000  0.00  0.00     0.008 A 
ATOM     26  S   UNL d   1       3.372  -5.800   0.000  0.00  0.00    -0.066 SA
ENDBRANCH   1  18
TORSDOF 5
