REMARK  3 active torsions:
REMARK  status: ('A' for Active; 'I' for Inactive)
REMARK    1  A    between atoms: N_2  and  S_1 
REMARK    2  A    between atoms: C_3  and  S_1 
REMARK    3  A    between atoms: C_10  and  C_9 
ROOT
ATOM      1  C   UNL d   1       2.492  -0.954   0.000  0.00  0.00     0.104 A 
ATOM      2  C   UNL d   1       2.492  -2.612   0.000  0.00  0.00     0.000 A 
ATOM      3  C   UNL d   1       1.779  -1.367   0.000  0.00  0.00     0.013 A 
ATOM      4  C   UNL d   1       3.204  -1.367   0.000  0.00  0.00     0.013 A 
ATOM      5  C   UNL d   1       3.204  -2.200   0.000  0.00  0.00     0.001 A 
ATOM      6  C   UNL d   1       1.779  -2.200   0.000  0.00  0.00     0.001 A 
ENDROOT
BRANCH   1   7
ATOM      7  S   UNL d   1       2.487  -0.129   0.000  0.00  0.00     0.271 S 
ATOM      8  O   UNL d   1       1.667  -0.129   0.000  0.00  0.00    -0.200 OA
ATOM      9  O   UNL d   1       2.479   0.688   0.000  0.00  0.00    -0.200 OA
BRANCH   7  10
ATOM     10  N   UNL d   1       3.304  -0.129   0.000  0.00  0.00    -0.226 N 
ATOM     11  C   UNL d   1       3.717  -0.842   0.000  0.00  0.00     0.111 A 
ATOM     12  C   UNL d   1       4.542  -0.829   0.000  0.00  0.00     0.100 A 
ATOM     13  N   UNL d   1       4.950  -0.117   0.000  0.00  0.00    -0.299 N 
ATOM     14  C   UNL d   1       4.542   0.596   0.000  0.00  0.00     0.100 A 
ATOM     15  C   UNL d   1       5.775  -0.117   0.000  0.00  0.00     0.100 C 
ATOM     16  C   UNL d   1       3.712   0.596   0.000  0.00  0.00     0.111 A 
ENDBRANCH   7  10
ENDBRANCH   1   7
BRANCH   2  17
ATOM     17  C   UNL d   1       2.487  -3.429   0.000  0.00  0.00     0.000 A 
ATOM     18  C   UNL d   1       1.767  -3.842   0.000  0.00  0.00     0.000 A 
ATOM     19  C   UNL d   1       1.767  -4.667   0.000  0.00  0.00     0.000 A 
ATOM     20  C   UNL d   1       2.479  -5.079   0.000  0.00  0.00     0.000 A 
ATOM     21  C   UNL d   1       3.204  -4.667   0.000  0.00  0.00     0.000 A 
ATOM     22  C   UNL d   1       2.479  -5.904   0.000  0.00  0.00     0.000 C 
ATOM     23  C   UNL d   1       3.200  -3.842   0.000  0.00  0.00     0.000 A 
ENDBRANCH   2  17
TORSDOF 3
