REMARK  5 active torsions:
REMARK  status: ('A' for Active; 'I' for Inactive)
REMARK    1  A    between atoms: C_4  and  S_1 
REMARK    2  A    between atoms: N_5  and  S_1 
REMARK       I    between atoms: N_2  and  C_3 
REMARK    3  A    between atoms: C_3  and  C_6 
REMARK    4  A    between atoms: C_16  and  N_5 
REMARK    5  A    between atoms: C_19  and  C_16 
ROOT
ATOM      1  C   UNL d   1       1.136  -0.325   0.000  0.00  0.00     0.057 A 
ATOM      2  C   UNL d   1       0.578   0.287   0.000  0.00  0.00     0.005 A 
ATOM      3  C   UNL d   1       0.878  -1.111   0.000  0.00  0.00     0.005 A 
ATOM      4  C   UNL d   1      -0.483  -0.674   0.000  0.00  0.00     0.020 A 
ATOM      5  C   UNL d   1      -0.233   0.108   0.000  0.00  0.00     0.002 A 
ATOM      6  C   UNL d   1       0.067  -1.286   0.000  0.00  0.00     0.002 A 
ENDROOT
BRANCH   4   7
ATOM      7  C   UNL d   1      -1.286  -0.849   0.000  0.00  0.00     0.112 C 
BRANCH   7   8
ATOM      8  N   UNL d   1      -1.544  -1.627   0.000  0.00  0.00    -0.157 NA
BRANCH   8   9
ATOM      9  S   UNL d   1      -2.346  -1.802   0.000  0.00  0.00     0.285 S 
ATOM     10  O   UNL d   1      -2.521  -0.999   0.000  0.00  0.00    -0.198 OA
ATOM     11  O   UNL d   1      -2.168  -2.613   0.000  0.00  0.00    -0.198 OA
BRANCH   9  12
ATOM     12  C   UNL d   1      -3.154  -1.976   0.000  0.00  0.00     0.105 A 
ATOM     13  C   UNL d   1      -3.703  -1.373   0.000  0.00  0.00     0.012 A 
ATOM     14  C   UNL d   1      -4.514  -1.548   0.000  0.00  0.00     0.001 A 
ATOM     15  C   UNL d   1      -3.441  -0.578   0.000  0.00  0.00     0.001 C 
ATOM     16  C   UNL d   1      -4.764  -2.326   0.000  0.00  0.00     0.000 A 
ATOM     17  C   UNL d   1      -4.215  -2.946   0.000  0.00  0.00     0.001 A 
ATOM     18  C   UNL d   1      -3.403  -2.763   0.000  0.00  0.00     0.013 A 
ATOM     19  C   UNL d   1      -4.464  -3.732   0.000  0.00  0.00     0.000 C 
ENDBRANCH   9  12
ENDBRANCH   8   9
ENDBRANCH   7   8
ENDBRANCH   4   7
BRANCH   1  20
ATOM     20  C   UNL d   1       1.939  -0.150   0.000  0.00  0.00     0.265 C 
ATOM     21  N   UNL d   1       2.501  -0.766   0.000  0.00  0.00    -0.273 N 
ATOM     22  C   UNL d   1       3.308  -0.591   0.000  0.00  0.00     0.067 A 
ATOM     23  C   UNL d   1       2.251  -1.548   0.000  0.00  0.00     0.083 A 
ATOM     24  C   UNL d   1       3.561   0.196   0.000  0.00  0.00     0.019 C 
ATOM     25  C   UNL d   1       3.861  -1.202   0.000  0.00  0.00     0.018 A 
ATOM     26  C   UNL d   1       3.599  -1.976   0.000  0.00  0.00     0.003 A 
ATOM     27  C   UNL d   1       2.800  -2.151   0.000  0.00  0.00     0.019 A 
ATOM     28  O   UNL d   1       2.188   0.637   0.000  0.00  0.00    -0.267 OA
ENDBRANCH   1  20
TORSDOF 5
