REMARK  6 active torsions:
REMARK  status: ('A' for Active; 'I' for Inactive)
REMARK    1  A    between atoms: C_21  and  C_3 
REMARK    2  A    between atoms: S_17  and  C_5 
REMARK    3  A    between atoms: C_11  and  C_16 
REMARK       I    between atoms: N_14  and  C_11 
REMARK    4  A    between atoms: C_19  and  N_14 
REMARK    5  A    between atoms: C_16  and  C_20 
REMARK    6  A    between atoms: C_20  and  S_17 
ROOT
ATOM      1  C   UNL d   1       1.139  -1.363   0.000  0.00  0.00     0.092 A 
ATOM      2  C   UNL d   1       2.569  -1.363   0.000  0.00  0.00     0.057 A 
ATOM      3  C   UNL d   1       1.858  -1.775   0.000  0.00  0.00     0.016 A 
ATOM      4  N   UNL d   1       1.858  -0.129   0.000  0.00  0.00    -0.239 NA
ATOM      5  C   UNL d   1       1.139  -0.540   0.000  0.00  0.00     0.120 A 
ATOM      6  C   UNL d   1       2.569  -0.540   0.000  0.00  0.00     0.081 A 
ATOM      7  C   UNL d   1       3.280  -1.775   0.000  0.00  0.00     0.193 A 
ATOM      8  C   UNL d   1       0.424  -1.788   0.000  0.00  0.00     0.103 C 
ATOM      9  N   UNL d   1      -0.295  -2.207   0.000  0.00  0.00    -0.191 NA
ATOM     10  C   UNL d   1       3.995  -0.540   0.000  0.00  0.00     0.042 A 
ATOM     11  C   UNL d   1       3.995  -1.363   0.000  0.00  0.00     0.019 A 
ATOM     12  C   UNL d   1       3.280  -0.129   0.000  0.00  0.00    -0.003 A 
ATOM     13  O   UNL d   1       3.280  -2.598   0.000  0.00  0.00    -0.287 OA
ATOM     14  C   UNL d   1       4.277   0.233   0.000  0.00  0.00     0.009 C 
ATOM     15  C   UNL d   1       4.714  -0.952   0.000  0.00  0.00     0.009 C 
ENDROOT
BRANCH   3  16
ATOM     16  C   UNL d   1       1.858  -2.598   0.000  0.00  0.00     0.001 C 
ATOM     17  C   UNL d   1       2.569  -3.010   0.000  0.00  0.00     0.000 C 
ENDBRANCH   3  16
BRANCH   5  18
ATOM     18  S   UNL d   1       0.424  -0.129   0.000  0.00  0.00    -0.067 SA
BRANCH  18  19
ATOM     19  C   UNL d   1      -0.287  -0.549   0.000  0.00  0.00     0.042 C 
BRANCH  19  20
ATOM     20  C   UNL d   1      -1.006  -0.141   0.000  0.00  0.00     0.070 C 
BRANCH  20  21
ATOM     21  C   UNL d   1      -1.721  -0.561   0.000  0.00  0.00     0.280 C 
ATOM     22  N   UNL d   1      -2.440  -0.154   0.000  0.00  0.00    -0.208 NA
ATOM     23  O   UNL d   1      -1.717  -1.388   0.000  0.00  0.00    -0.265 OA
BRANCH  22  24
ATOM     24  C   UNL d   1      -3.155  -0.574   0.000  0.00  0.00     0.085 A 
ATOM     25  C   UNL d   1      -3.151  -1.401   0.000  0.00  0.00     0.019 A 
ATOM     26  C   UNL d   1      -3.862  -1.812   0.000  0.00  0.00     0.002 A 
ATOM     27  C   UNL d   1      -4.585  -1.409   0.000  0.00  0.00     0.000 A 
ATOM     28  C   UNL d   1      -4.589  -0.586   0.000  0.00  0.00     0.002 A 
ATOM     29  C   UNL d   1      -5.308  -1.833   0.000  0.00  0.00     0.000 C 
ATOM     30  C   UNL d   1      -3.874  -0.166   0.000  0.00  0.00     0.019 A 
ENDBRANCH  22  24
ENDBRANCH  20  21
ENDBRANCH  19  20
ENDBRANCH  18  19
ENDBRANCH   5  18
TORSDOF 6
