REMARK  6 active torsions:
REMARK  status: ('A' for Active; 'I' for Inactive)
REMARK    1  A    between atoms: C_5  and  S_1 
REMARK    2  A    between atoms: N_6  and  S_1 
REMARK       I    between atoms: N_2  and  C_3 
REMARK    3  A    between atoms: C_3  and  C_14 
REMARK    4  A    between atoms: C_4  and  C_7 
REMARK    5  A    between atoms: C_23  and  N_6 
REMARK    6  A    between atoms: C_24  and  C_23 
ROOT
ATOM      1  C   UNL d   1       0.596  -0.050   0.000  0.00  0.00     0.057 A 
ATOM      2  C   UNL d   1       0.340  -0.835   0.000  0.00  0.00     0.005 A 
ATOM      3  C   UNL d   1       0.042   0.562   0.000  0.00  0.00     0.005 A 
ATOM      4  C   UNL d   1      -1.015  -0.394   0.000  0.00  0.00     0.020 A 
ATOM      5  C   UNL d   1      -0.462  -1.007   0.000  0.00  0.00     0.002 A 
ATOM      6  C   UNL d   1      -0.764   0.390   0.000  0.00  0.00     0.002 A 
ENDROOT
BRANCH   4   7
ATOM      7  C   UNL d   1      -1.821  -0.566   0.000  0.00  0.00     0.112 C 
BRANCH   7   8
ATOM      8  N   UNL d   1      -2.073  -1.347   0.000  0.00  0.00    -0.157 NA
BRANCH   8   9
ATOM      9  S   UNL d   1      -2.891  -1.515   0.000  0.00  0.00     0.285 S 
ATOM     10  O   UNL d   1      -2.715  -2.333   0.000  0.00  0.00    -0.198 OA
ATOM     11  O   UNL d   1      -3.059  -0.709   0.000  0.00  0.00    -0.198 OA
BRANCH   9  12
ATOM     12  C   UNL d   1      -3.696  -1.691   0.000  0.00  0.00     0.105 A 
ATOM     13  C   UNL d   1      -3.948  -2.471   0.000  0.00  0.00     0.017 A 
ATOM     14  C   UNL d   1      -4.754  -2.648   0.000  0.00  0.00     0.072 A 
ATOM     15  C   UNL d   1      -5.308  -2.031   0.000  0.00  0.00     0.004 A 
ATOM     16  C   UNL d   1      -5.056  -1.250   0.000  0.00  0.00     0.001 A 
ATOM     17  C   UNL d   1      -4.250  -1.083   0.000  0.00  0.00     0.013 A 
BRANCH  14  18
ATOM     18  C   UNL d   1      -5.010  -3.428   0.000  0.00  0.00     0.419 C 
ATOM     19  F   UNL d   1      -4.225  -3.688   0.000  0.00  0.00    -0.166 F 
ATOM     20  F   UNL d   1      -5.799  -3.172   0.000  0.00  0.00    -0.166 F 
ATOM     21  F   UNL d   1      -5.270  -4.217   0.000  0.00  0.00    -0.166 F 
ENDBRANCH  14  18
ENDBRANCH   9  12
ENDBRANCH   8   9
ENDBRANCH   7   8
ENDBRANCH   4   7
BRANCH   1  22
ATOM     22  C   UNL d   1       1.414   0.126   0.000  0.00  0.00     0.265 C 
ATOM     23  N   UNL d   1       1.968  -0.491   0.000  0.00  0.00    -0.268 N 
ATOM     24  C   UNL d   1       1.712  -1.276   0.000  0.00  0.00     0.108 A 
ATOM     25  C   UNL d   1       2.773  -0.315   0.000  0.00  0.00     0.108 A 
ATOM     26  C   UNL d   1       2.270  -1.892   0.000  0.00  0.00     0.118 A 
ATOM     27  C   UNL d   1       2.014  -2.681   0.000  0.00  0.00     0.028 C 
ATOM     28  O   UNL d   1       3.076  -1.716   0.000  0.00  0.00    -0.304 OA
ATOM     29  C   UNL d   1       3.336  -0.931   0.000  0.00  0.00     0.118 A 
ATOM     30  C   UNL d   1       4.146  -0.759   0.000  0.00  0.00     0.028 C 
ATOM     31  O   UNL d   1       1.666   0.915   0.000  0.00  0.00    -0.267 OA
ENDBRANCH   1  22
TORSDOF 6
