REMARK  5 active torsions:
REMARK  status: ('A' for Active; 'I' for Inactive)
REMARK    1  A    between atoms: C_4  and  S_1 
REMARK    2  A    between atoms: N_5  and  S_1 
REMARK    3  A    between atoms: C_2  and  C_9 
REMARK       I    between atoms: N_3  and  C_2 
REMARK    4  A    between atoms: C_14  and  N_5 
REMARK    5  A    between atoms: C_15  and  C_14 
ROOT
ATOM      1  C   UNL d   1       0.555   0.071   0.000  0.00  0.00     0.057 A 
ATOM      2  C   UNL d   1       0.300  -0.717   0.000  0.00  0.00     0.005 A 
ATOM      3  C   UNL d   1       0.004   0.684   0.000  0.00  0.00     0.005 A 
ATOM      4  C   UNL d   1      -1.059  -0.275   0.000  0.00  0.00     0.020 A 
ATOM      5  C   UNL d   1      -0.509  -0.888   0.000  0.00  0.00     0.002 A 
ATOM      6  C   UNL d   1      -0.809   0.509   0.000  0.00  0.00     0.002 A 
ENDROOT
BRANCH   4   7
ATOM      7  C   UNL d   1      -1.872  -0.442   0.000  0.00  0.00     0.112 C 
BRANCH   7   8
ATOM      8  N   UNL d   1      -2.122  -1.230   0.000  0.00  0.00    -0.157 NA
BRANCH   8   9
ATOM      9  S   UNL d   1      -2.940  -1.405   0.000  0.00  0.00     0.285 S 
ATOM     10  O   UNL d   1      -2.764  -2.218   0.000  0.00  0.00    -0.198 OA
ATOM     11  O   UNL d   1      -3.111  -0.592   0.000  0.00  0.00    -0.198 OA
BRANCH   9  12
ATOM     12  C   UNL d   1      -3.753  -1.580   0.000  0.00  0.00     0.106 A 
ATOM     13  C   UNL d   1      -4.303  -0.963   0.000  0.00  0.00     0.024 A 
ATOM     14  C   UNL d   1      -5.112  -1.130   0.000  0.00  0.00     0.059 A 
ATOM     15 CL   UNL d   1      -5.667  -0.517   0.000  0.00  0.00    -0.082 Cl
ATOM     16  C   UNL d   1      -5.366  -1.914   0.000  0.00  0.00     0.011 A 
ATOM     17  C   UNL d   1      -4.816  -2.527   0.000  0.00  0.00     0.002 A 
ATOM     18  C   UNL d   1      -4.011  -2.356   0.000  0.00  0.00     0.013 A 
ENDBRANCH   9  12
ENDBRANCH   8   9
ENDBRANCH   7   8
ENDBRANCH   4   7
BRANCH   1  19
ATOM     19  C   UNL d   1       1.376   0.250   0.000  0.00  0.00     0.265 C 
ATOM     20  N   UNL d   1       1.931  -0.367   0.000  0.00  0.00    -0.272 N 
ATOM     21  C   UNL d   1       1.680  -1.151   0.000  0.00  0.00     0.083 A 
ATOM     22  C   UNL d   1       2.740  -0.192   0.000  0.00  0.00     0.083 A 
ATOM     23  C   UNL d   1       2.231  -1.755   0.000  0.00  0.00     0.019 A 
ATOM     24  C   UNL d   1       3.031  -1.580   0.000  0.00  0.00     0.003 A 
ATOM     25  C   UNL d   1       3.294  -0.805   0.000  0.00  0.00     0.019 A 
ATOM     26  O   UNL d   1       1.630   1.046   0.000  0.00  0.00    -0.267 OA
ENDBRANCH   1  19
TORSDOF 5
