REMARK  4 active torsions:
REMARK  status: ('A' for Active; 'I' for Inactive)
REMARK    1  A    between atoms: N_5  and  C_2 
REMARK    2  A    between atoms: C_9  and  C_3 
REMARK       I    between atoms: C_7  and  N_5 
REMARK    3  A    between atoms: C_8  and  C_7 
REMARK    4  A    between atoms: O_16  and  C_13 
ROOT
ATOM      1  N   UNL d   1       1.117   3.546   0.000  0.00  0.00    -0.200 NA
ATOM      2  C   UNL d   1       1.779   3.062   0.000  0.00  0.00     0.216 A 
ATOM      3  C   UNL d   1       1.367   4.329   0.000  0.00  0.00     0.172 A 
ATOM      4  N   UNL d   1       2.192   4.329   0.000  0.00  0.00    -0.187 NA
ATOM      5  S   UNL d   1       2.442   3.546   0.000  0.00  0.00     0.054 SA
ENDROOT
BRANCH   2   6
ATOM      6  N   UNL d   1       1.779   2.237   0.000  0.00  0.00    -0.181 NA
ATOM      7  C   UNL d   1       1.067   1.833   0.000  0.00  0.00     0.281 C 
ATOM      8  O   UNL d   1       0.354   2.246   0.000  0.00  0.00    -0.265 OA
BRANCH   7   9
ATOM      9  C   UNL d   1       1.067   1.008   0.000  0.00  0.00     0.058 A 
ATOM     10  C   UNL d   1       0.354   0.596   0.000  0.00  0.00     0.007 A 
ATOM     11  C   UNL d   1       0.354  -0.229   0.000  0.00  0.00     0.024 A 
ATOM     12  C   UNL d   1       1.067  -0.642   0.000  0.00  0.00     0.094 A 
ATOM     13  C   UNL d   1       1.779  -0.229   0.000  0.00  0.00     0.024 A 
ATOM     14  C   UNL d   1       1.779   0.596   0.000  0.00  0.00     0.007 A 
BRANCH  12  15
ATOM     15  O   UNL d   1       1.067  -1.467   0.000  0.00  0.00    -0.328 OA
ATOM     16  C   UNL d   1       1.779  -1.879   0.000  0.00  0.00     0.181 C 
ENDBRANCH  12  15
ENDBRANCH   7   9
ENDBRANCH   2   6
BRANCH   3  17
ATOM     17  C   UNL d   1       0.887   4.992   0.000  0.00  0.00     0.036 A 
ATOM     18  C   UNL d   1       0.067   4.904   0.000  0.00  0.00     0.003 A 
ATOM     19  C   UNL d   1      -0.421   5.579   0.000  0.00  0.00     0.000 A 
ATOM     20  C   UNL d   1      -0.083   6.338   0.000  0.00  0.00     0.000 A 
ATOM     21  C   UNL d   1       0.742   6.417   0.000  0.00  0.00     0.000 A 
ATOM     22  C   UNL d   1       1.225   5.750   0.000  0.00  0.00     0.003 A 
ENDBRANCH   3  17
TORSDOF 4
