REMARK  7 active torsions:
REMARK  status: ('A' for Active; 'I' for Inactive)
REMARK    1  A    between atoms: C_3  and  S_1 
REMARK    2  A    between atoms: N_4  and  S_1 
REMARK    3  A    between atoms: C_2  and  C_11 
REMARK       I    between atoms: N_5  and  C_2 
REMARK    4  A    between atoms: C_18  and  N_4 
REMARK    5  A    between atoms: C_12  and  N_5 
REMARK    6  A    between atoms: C_22  and  C_18 
REMARK    7  A    between atoms: O_26  and  C_19 
ROOT
ATOM      1  C   UNL d   1       4.851  -2.895   0.000  0.00  0.00     0.058 A 
ATOM      2  C   UNL d   1       5.162  -3.667   0.000  0.00  0.00     0.005 A 
ATOM      3  C   UNL d   1       5.361  -2.247   0.000  0.00  0.00     0.005 A 
ATOM      4  C   UNL d   1       6.483  -3.140   0.000  0.00  0.00     0.020 A 
ATOM      5  C   UNL d   1       5.972  -3.787   0.000  0.00  0.00     0.002 A 
ATOM      6  C   UNL d   1       6.184  -2.371   0.000  0.00  0.00     0.002 A 
ENDROOT
BRANCH   4   7
ATOM      7  C   UNL d   1       7.305  -3.256   0.000  0.00  0.00     0.112 C 
BRANCH   7   8
ATOM      8  N   UNL d   1       7.616  -4.028   0.000  0.00  0.00    -0.157 NA
BRANCH   8   9
ATOM      9  S   UNL d   1       8.439  -4.149   0.000  0.00  0.00     0.285 S 
ATOM     10  O   UNL d   1       8.326  -4.975   0.000  0.00  0.00    -0.198 OA
ATOM     11  O   UNL d   1       8.563  -3.318   0.000  0.00  0.00    -0.198 OA
BRANCH   9  12
ATOM     12  C   UNL d   1       9.269  -4.265   0.000  0.00  0.00     0.107 A 
ATOM     13  C   UNL d   1       9.780  -3.617   0.000  0.00  0.00     0.037 A 
ATOM     14  C   UNL d   1      10.594  -3.729   0.000  0.00  0.00     0.095 A 
ATOM     15  C   UNL d   1      10.905  -4.489   0.000  0.00  0.00     0.024 A 
ATOM     16  C   UNL d   1      10.395  -5.145   0.000  0.00  0.00     0.003 A 
ATOM     17  C   UNL d   1       9.581  -5.033   0.000  0.00  0.00     0.013 A 
BRANCH  14  18
ATOM     18  O   UNL d   1      11.113  -3.077   0.000  0.00  0.00    -0.328 OA
ATOM     19  C   UNL d   1      10.806  -2.317   0.000  0.00  0.00     0.181 C 
ENDBRANCH  14  18
ENDBRANCH   9  12
ENDBRANCH   8   9
ENDBRANCH   7   8
ENDBRANCH   4   7
BRANCH   1  20
ATOM     20  C   UNL d   1       4.037  -2.766   0.000  0.00  0.00     0.279 C 
ATOM     21  N   UNL d   1       3.742  -1.998   0.000  0.00  0.00    -0.208 NA
ATOM     22  O   UNL d   1       3.513  -3.405   0.000  0.00  0.00    -0.265 OA
BRANCH  21  23
ATOM     23  C   UNL d   1       2.920  -1.869   0.000  0.00  0.00     0.086 A 
ATOM     24  C   UNL d   1       2.633  -1.088   0.000  0.00  0.00     0.032 A 
ATOM     25  C   UNL d   1       1.811  -0.964   0.000  0.00  0.00     0.070 A 
ATOM     26 CL   UNL d   1       1.524  -0.191   0.000  0.00  0.00    -0.081 Cl
ATOM     27  C   UNL d   1       1.296  -1.607   0.000  0.00  0.00     0.068 A 
ATOM     28  C   UNL d   1       1.595  -2.380   0.000  0.00  0.00     0.014 A 
ATOM     29 CL   UNL d   1       0.478  -1.474   0.000  0.00  0.00    -0.082 Cl
ATOM     30  C   UNL d   1       2.409  -2.504   0.000  0.00  0.00     0.020 A 
ENDBRANCH  21  23
ENDBRANCH   1  20
TORSDOF 7
