REMARK  7 active torsions:
REMARK  status: ('A' for Active; 'I' for Inactive)
REMARK    1  A    between atoms: C_2  and  S_1 
REMARK    2  A    between atoms: N_3  and  S_1 
REMARK    3  A    between atoms: C_16  and  N_3 
REMARK    4  A    between atoms: C_4  and  C_8 
REMARK       I    between atoms: N_5  and  C_4 
REMARK    5  A    between atoms: C_17  and  N_5 
REMARK    6  A    between atoms: C_20  and  C_16 
REMARK    7  A    between atoms: C_18  and  C_17 
ROOT
ATOM      1  C   UNL d   1       4.553  -2.075   0.000  0.00  0.00     0.058 A 
ATOM      2  C   UNL d   1       4.862  -2.841   0.000  0.00  0.00     0.005 A 
ATOM      3  C   UNL d   1       5.066  -1.429   0.000  0.00  0.00     0.005 A 
ATOM      4  C   UNL d   1       6.191  -2.316   0.000  0.00  0.00     0.020 A 
ATOM      5  C   UNL d   1       5.678  -2.962   0.000  0.00  0.00     0.002 A 
ATOM      6  C   UNL d   1       5.891  -1.554   0.000  0.00  0.00     0.002 A 
ENDROOT
BRANCH   4   7
ATOM      7  C   UNL d   1       7.003  -2.441   0.000  0.00  0.00     0.112 C 
BRANCH   7   8
ATOM      8  N   UNL d   1       7.515  -1.800   0.000  0.00  0.00    -0.157 NA
BRANCH   8   9
ATOM      9  S   UNL d   1       8.336  -1.916   0.000  0.00  0.00     0.285 S 
ATOM     10  O   UNL d   1       8.453  -1.104   0.000  0.00  0.00    -0.198 OA
ATOM     11  O   UNL d   1       8.215  -2.729   0.000  0.00  0.00    -0.198 OA
BRANCH   9  12
ATOM     12  C   UNL d   1       9.153  -2.041   0.000  0.00  0.00     0.105 A 
ATOM     13  C   UNL d   1       9.453  -2.804   0.000  0.00  0.00     0.012 A 
ATOM     14  C   UNL d   1      10.265  -2.925   0.000  0.00  0.00     0.001 A 
ATOM     15  C   UNL d   1       8.923  -3.449   0.000  0.00  0.00     0.001 C 
ATOM     16  C   UNL d   1      10.786  -2.279   0.000  0.00  0.00     0.000 A 
ATOM     17  C   UNL d   1      10.477  -1.512   0.000  0.00  0.00     0.001 A 
ATOM     18  C   UNL d   1       9.661  -1.391   0.000  0.00  0.00     0.013 A 
ATOM     19  C   UNL d   1      10.998  -0.867   0.000  0.00  0.00     0.000 C 
ENDBRANCH   9  12
ENDBRANCH   8   9
ENDBRANCH   7   8
ENDBRANCH   4   7
BRANCH   1  20
ATOM     20  C   UNL d   1       3.741  -1.954   0.000  0.00  0.00     0.279 C 
ATOM     21  N   UNL d   1       3.441  -1.192   0.000  0.00  0.00    -0.205 NA
ATOM     22  O   UNL d   1       3.229  -2.604   0.000  0.00  0.00    -0.265 OA
BRANCH  21  23
ATOM     23  C   UNL d   1       2.624  -1.067   0.000  0.00  0.00     0.121 C 
BRANCH  23  24
ATOM     24  C   UNL d   1       2.116  -1.716   0.000  0.00  0.00     0.101 A 
ATOM     25  N   UNL d   1       1.304  -1.591   0.000  0.00  0.00    -0.242 NA
ATOM     26  C   UNL d   1       0.804  -2.241   0.000  0.00  0.00     0.099 A 
ATOM     27  C   UNL d   1       1.104  -3.004   0.000  0.00  0.00     0.021 A 
ATOM     28  C   UNL d   1       1.925  -3.116   0.000  0.00  0.00     0.003 A 
ATOM     29  C   UNL d   1       2.429  -2.466   0.000  0.00  0.00     0.021 A 
ENDBRANCH  23  24
ENDBRANCH  21  23
ENDBRANCH   1  20
TORSDOF 7
