REMARK  6 active torsions:
REMARK  status: ('A' for Active; 'I' for Inactive)
REMARK    1  A    between atoms: C_22  and  C_3 
REMARK    2  A    between atoms: S_17  and  C_5 
REMARK    3  A    between atoms: C_11  and  C_16 
REMARK       I    between atoms: N_14  and  C_11 
REMARK    4  A    between atoms: C_19  and  N_14 
REMARK    5  A    between atoms: C_16  and  C_20 
REMARK    6  A    between atoms: C_20  and  S_17 
ROOT
ATOM      1  C   UNL d   1       1.417  -1.375   0.000  0.00  0.00     0.092 A 
ATOM      2  C   UNL d   1       2.842  -1.375   0.000  0.00  0.00     0.057 A 
ATOM      3  C   UNL d   1       2.129  -1.788   0.000  0.00  0.00     0.016 A 
ATOM      4  N   UNL d   1       2.129  -0.138   0.000  0.00  0.00    -0.239 NA
ATOM      5  C   UNL d   1       1.417  -0.550   0.000  0.00  0.00     0.120 A 
ATOM      6  C   UNL d   1       2.842  -0.550   0.000  0.00  0.00     0.081 A 
ATOM      7  C   UNL d   1       3.554  -1.788   0.000  0.00  0.00     0.193 A 
ATOM      8  C   UNL d   1       0.692  -1.792   0.000  0.00  0.00     0.103 C 
ATOM      9  N   UNL d   1      -0.025  -2.217   0.000  0.00  0.00    -0.191 NA
ATOM     10  C   UNL d   1       4.275  -0.550   0.000  0.00  0.00     0.042 A 
ATOM     11  C   UNL d   1       4.275  -1.375   0.000  0.00  0.00     0.019 A 
ATOM     12  C   UNL d   1       3.554  -0.138   0.000  0.00  0.00    -0.003 A 
ATOM     13  O   UNL d   1       3.554  -2.612   0.000  0.00  0.00    -0.287 OA
ATOM     14  C   UNL d   1       4.554   0.233   0.000  0.00  0.00     0.009 C 
ATOM     15  C   UNL d   1       4.992  -0.954   0.000  0.00  0.00     0.009 C 
ENDROOT
BRANCH   3  16
ATOM     16  C   UNL d   1       2.129  -2.612   0.000  0.00  0.00     0.001 C 
ATOM     17  C   UNL d   1       2.842  -3.025   0.000  0.00  0.00     0.000 C 
ENDBRANCH   3  16
BRANCH   5  18
ATOM     18  S   UNL d   1       0.692  -0.138   0.000  0.00  0.00    -0.067 SA
BRANCH  18  19
ATOM     19  C   UNL d   1      -0.021  -0.554   0.000  0.00  0.00     0.042 C 
BRANCH  19  20
ATOM     20  C   UNL d   1      -0.738  -0.142   0.000  0.00  0.00     0.070 C 
BRANCH  20  21
ATOM     21  C   UNL d   1      -1.458  -0.567   0.000  0.00  0.00     0.280 C 
ATOM     22  N   UNL d   1      -2.175  -0.154   0.000  0.00  0.00    -0.208 NA
ATOM     23  O   UNL d   1      -1.446  -1.392   0.000  0.00  0.00    -0.265 OA
BRANCH  22  24
ATOM     24  C   UNL d   1      -2.896  -0.579   0.000  0.00  0.00     0.085 A 
ATOM     25  C   UNL d   1      -3.608  -0.167   0.000  0.00  0.00     0.021 A 
ATOM     26  C   UNL d   1      -4.321  -0.579   0.000  0.00  0.00     0.031 A 
ATOM     27  C   UNL d   1      -4.321  -1.404   0.000  0.00  0.00     0.140 A 
ATOM     28  C   UNL d   1      -3.600  -1.817   0.000  0.00  0.00     0.031 A 
ATOM     29  F   UNL d   1      -5.037  -1.829   0.000  0.00  0.00    -0.204 F 
ATOM     30  C   UNL d   1      -2.888  -1.404   0.000  0.00  0.00     0.021 A 
ENDBRANCH  22  24
ENDBRANCH  20  21
ENDBRANCH  19  20
ENDBRANCH  18  19
ENDBRANCH   5  18
TORSDOF 6
