REMARK  7 active torsions:
REMARK  status: ('A' for Active; 'I' for Inactive)
REMARK    1  A    between atoms: C_23  and  C_3 
REMARK    2  A    between atoms: S_18  and  C_5 
REMARK    3  A    between atoms: C_11  and  C_16 
REMARK       I    between atoms: N_14  and  C_11 
REMARK    4  A    between atoms: C_17  and  N_14 
REMARK    5  A    between atoms: C_16  and  C_21 
REMARK    6  A    between atoms: C_21  and  S_18 
REMARK    7  A    between atoms: O_24  and  C_22 
ROOT
ATOM      1  C   UNL d   1       1.142  -1.375   0.000  0.00  0.00     0.092 A 
ATOM      2  C   UNL d   1       2.567  -1.375   0.000  0.00  0.00     0.057 A 
ATOM      3  C   UNL d   1       1.854  -1.788   0.000  0.00  0.00     0.016 A 
ATOM      4  N   UNL d   1       1.854  -0.138   0.000  0.00  0.00    -0.239 NA
ATOM      5  C   UNL d   1       1.142  -0.550   0.000  0.00  0.00     0.120 A 
ATOM      6  C   UNL d   1       2.567  -0.550   0.000  0.00  0.00     0.081 A 
ATOM      7  C   UNL d   1       3.279  -1.788   0.000  0.00  0.00     0.193 A 
ATOM      8  C   UNL d   1       0.417  -1.792   0.000  0.00  0.00     0.103 C 
ATOM      9  N   UNL d   1      -0.300  -2.217   0.000  0.00  0.00    -0.191 NA
ATOM     10  C   UNL d   1       4.000  -0.550   0.000  0.00  0.00     0.042 A 
ATOM     11  C   UNL d   1       4.000  -1.375   0.000  0.00  0.00     0.019 A 
ATOM     12  C   UNL d   1       3.279  -0.138   0.000  0.00  0.00    -0.003 A 
ATOM     13  O   UNL d   1       3.279  -2.612   0.000  0.00  0.00    -0.287 OA
ATOM     14  C   UNL d   1       4.279   0.233   0.000  0.00  0.00     0.009 C 
ATOM     15  C   UNL d   1       4.717  -0.954   0.000  0.00  0.00     0.009 C 
ENDROOT
BRANCH   3  16
ATOM     16  C   UNL d   1       1.854  -2.612   0.000  0.00  0.00     0.001 C 
ATOM     17  C   UNL d   1       2.567  -3.025   0.000  0.00  0.00     0.000 C 
ENDBRANCH   3  16
BRANCH   5  18
ATOM     18  S   UNL d   1       0.417  -0.138   0.000  0.00  0.00    -0.067 SA
BRANCH  18  19
ATOM     19  C   UNL d   1      -0.296  -0.554   0.000  0.00  0.00     0.042 C 
BRANCH  19  20
ATOM     20  C   UNL d   1      -1.012  -0.142   0.000  0.00  0.00     0.070 C 
BRANCH  20  21
ATOM     21  C   UNL d   1      -1.733  -0.567   0.000  0.00  0.00     0.280 C 
ATOM     22  N   UNL d   1      -2.446  -0.154   0.000  0.00  0.00    -0.208 NA
ATOM     23  O   UNL d   1      -1.721  -1.392   0.000  0.00  0.00    -0.265 OA
BRANCH  22  24
ATOM     24  C   UNL d   1      -3.171  -0.579   0.000  0.00  0.00     0.087 A 
ATOM     25  C   UNL d   1      -3.158  -1.404   0.000  0.00  0.00     0.043 A 
ATOM     26  C   UNL d   1      -3.871  -1.817   0.000  0.00  0.00     0.096 A 
ATOM     27  C   UNL d   1      -4.600  -1.417   0.000  0.00  0.00     0.024 A 
ATOM     28  C   UNL d   1      -4.608  -0.592   0.000  0.00  0.00     0.004 A 
ATOM     29  C   UNL d   1      -3.896  -0.167   0.000  0.00  0.00     0.019 A 
BRANCH  26  30
ATOM     30  O   UNL d   1      -3.858  -2.642   0.000  0.00  0.00    -0.328 OA
ATOM     31  C   UNL d   1      -3.133  -3.042   0.000  0.00  0.00     0.181 C 
ENDBRANCH  26  30
ENDBRANCH  22  24
ENDBRANCH  20  21
ENDBRANCH  19  20
ENDBRANCH  18  19
ENDBRANCH   5  18
TORSDOF 7
