REMARK  5 active torsions:
REMARK  status: ('A' for Active; 'I' for Inactive)
REMARK    1  A    between atoms: N_10  and  C_2 
REMARK    2  A    between atoms: C_13  and  C_3 
REMARK    3  A    between atoms: C_5  and  S_14 
REMARK       I    between atoms: C_12  and  N_10 
REMARK    4  A    between atoms: C_18  and  C_12 
REMARK    5  A    between atoms: S_14  and  C_18 
ROOT
ATOM      1  N   UNL d   1       3.880   0.636   0.000  0.00  0.00    -0.051 NA
ATOM      2  C   UNL d   1       3.793   1.456   0.000  0.00  0.00     0.760 A 
ATOM      3  C   UNL d   1       4.683   0.462   0.000  0.00  0.00     0.147 A 
ATOM      4  N   UNL d   1       4.533   1.792   0.000  0.00  0.00    -0.019 NA
ATOM      5  S   UNL d   1       5.095   1.181   0.000  0.00  0.00     0.052 SA
ENDROOT
BRANCH   2   6
ATOM      6  N   UNL d   1       3.074   1.859   0.000  0.00  0.00    -0.018 NA
ATOM      7  C   UNL d   1       2.362   1.443   0.000  0.00  0.00     0.302 C 
ATOM      8  O   UNL d   1       1.647   1.842   0.000  0.00  0.00    -0.264 OA
BRANCH   7   9
ATOM      9  C   UNL d   1       2.371   0.611   0.000  0.00  0.00     0.100 C 
BRANCH   9  10
ATOM     10  S   UNL d   1       1.664   0.195   0.000  0.00  0.00    -0.054 SA
BRANCH  10  11
ATOM     11  C   UNL d   1       0.948   0.595   0.000  0.00  0.00     0.164 A 
ATOM     12  S   UNL d   1       0.853   1.410   0.000  0.00  0.00    -0.039 SA
ATOM     13  C   UNL d   1       0.042   1.572   0.000  0.00  0.00     0.134 A 
ATOM     14  C   UNL d   1      -0.295   2.329   0.000  0.00  0.00     0.030 C 
ATOM     15  N   UNL d   1      -0.358   0.857   0.000  0.00  0.00    -0.140 NA
ATOM     16  N   UNL d   1       0.204   0.249   0.000  0.00  0.00    -0.134 NA
ENDBRANCH  10  11
ENDBRANCH   9  10
ENDBRANCH   7   9
ENDBRANCH   2   6
BRANCH   3  17
ATOM     17  C   UNL d   1       5.057  -0.279   0.000  0.00  0.00     0.026 A 
ATOM     18  C   UNL d   1       4.604  -0.965   0.000  0.00  0.00     0.002 A 
ATOM     19  C   UNL d   1       4.970  -1.701   0.000  0.00  0.00     0.000 A 
ATOM     20  C   UNL d   1       5.794  -1.751   0.000  0.00  0.00     0.000 A 
ATOM     21  C   UNL d   1       6.255  -1.052   0.000  0.00  0.00     0.000 A 
ATOM     22  C   UNL d   1       6.164  -2.487   0.000  0.00  0.00     0.000 C 
ATOM     23  C   UNL d   1       5.881  -0.316   0.000  0.00  0.00     0.002 A 
ENDBRANCH   3  17
TORSDOF 5
