REMARK  10 active torsions:
REMARK  status: ('A' for Active; 'I' for Inactive)
REMARK    1  A    between atoms: C_2  and  S_1 
REMARK    2  A    between atoms: N_3  and  S_1 
REMARK    3  A    between atoms: C_19  and  N_3 
REMARK    4  A    between atoms: C_4  and  C_8 
REMARK       I    between atoms: N_14  and  C_4 
REMARK    5  A    between atoms: O_27  and  C_7 
REMARK    6  A    between atoms: O_28  and  C_11 
REMARK    7  A    between atoms: C_29  and  N_14 
REMARK    8  A    between atoms: C_22  and  C_19 
REMARK    9  A    between atoms: C_21  and  C_30 
REMARK   10  A    between atoms: C_30  and  C_29 
ROOT
ATOM      1  C   UNL d   1       0.951  -1.681   0.000  0.00  0.00     0.058 A 
ATOM      2  C   UNL d   1       0.727  -2.470   0.000  0.00  0.00     0.005 A 
ATOM      3  C   UNL d   1       1.760  -1.486   0.000  0.00  0.00     0.005 A 
ATOM      4  C   UNL d   1       2.105  -2.869   0.000  0.00  0.00     0.020 A 
ATOM      5  C   UNL d   1       1.308  -3.068   0.000  0.00  0.00     0.002 A 
ATOM      6  C   UNL d   1       2.333  -2.084   0.000  0.00  0.00     0.002 A 
ENDROOT
BRANCH   1   7
ATOM      7  C   UNL d   1       0.386  -1.088   0.000  0.00  0.00     0.279 C 
ATOM      8  O   UNL d   1      -0.419  -1.287   0.000  0.00  0.00    -0.265 OA
ATOM      9  N   UNL d   1       0.615  -0.299   0.000  0.00  0.00    -0.206 NA
BRANCH   9  10
ATOM     10  C   UNL d   1       0.042   0.295   0.000  0.00  0.00     0.102 C 
BRANCH  10  11
ATOM     11  C   UNL d   1      -0.747   0.087   0.000  0.00  0.00     0.021 C 
BRANCH  11  12
ATOM     12  C   UNL d   1      -1.316   0.668   0.000  0.00  0.00     0.004 A 
ATOM     13  C   UNL d   1      -1.104   1.466   0.000  0.00  0.00     0.026 A 
ATOM     14  C   UNL d   1      -1.681   2.043   0.000  0.00  0.00     0.116 A 
ATOM     15  C   UNL d   1      -2.487   1.827   0.000  0.00  0.00     0.116 A 
ATOM     16  C   UNL d   1      -2.699   1.042   0.000  0.00  0.00     0.026 A 
ATOM     17  C   UNL d   1      -2.113   0.457   0.000  0.00  0.00     0.002 A 
BRANCH  14  18
ATOM     18  O   UNL d   1      -1.466   2.840   0.000  0.00  0.00    -0.326 OA
ATOM     19  C   UNL d   1      -0.660   3.176   0.000  0.00  0.00     0.181 C 
ENDBRANCH  14  18
BRANCH  15  20
ATOM     20  O   UNL d   1      -3.072   2.387   0.000  0.00  0.00    -0.326 OA
ATOM     21  C   UNL d   1      -2.885   3.176   0.000  0.00  0.00     0.181 C 
ENDBRANCH  15  20
ENDBRANCH  11  12
ENDBRANCH  10  11
ENDBRANCH   9  10
ENDBRANCH   1   7
BRANCH   4  22
ATOM     22  C   UNL d   1       2.678  -3.467   0.000  0.00  0.00     0.112 C 
BRANCH  22  23
ATOM     23  N   UNL d   1       3.467  -3.267   0.000  0.00  0.00    -0.157 NA
BRANCH  23  24
ATOM     24  S   UNL d   1       4.048  -3.865   0.000  0.00  0.00     0.285 S 
ATOM     25  O   UNL d   1       4.637  -3.288   0.000  0.00  0.00    -0.198 OA
ATOM     26  O   UNL d   1       3.454  -4.438   0.000  0.00  0.00    -0.198 OA
BRANCH  24  27
ATOM     27  C   UNL d   1       4.612  -4.459   0.000  0.00  0.00     0.105 A 
ATOM     28  C   UNL d   1       4.388  -5.243   0.000  0.00  0.00     0.012 A 
ATOM     29  C   UNL d   1       4.961  -5.841   0.000  0.00  0.00     0.001 A 
ATOM     30  C   UNL d   1       3.579  -5.434   0.000  0.00  0.00     0.001 C 
ATOM     31  C   UNL d   1       5.766  -5.646   0.000  0.00  0.00     0.000 A 
ATOM     32  C   UNL d   1       5.995  -4.849   0.000  0.00  0.00     0.001 A 
ATOM     33  C   UNL d   1       5.418  -4.251   0.000  0.00  0.00     0.013 A 
ATOM     34  C   UNL d   1       6.792  -4.650   0.000  0.00  0.00     0.000 C 
ENDBRANCH  24  27
ENDBRANCH  23  24
ENDBRANCH  22  23
ENDBRANCH   4  22
TORSDOF 10
