REMARK  6 active torsions:
REMARK  status: ('A' for Active; 'I' for Inactive)
REMARK    1  A    between atoms: N_5  and  S_1 
REMARK    2  A    between atoms: C_6  and  S_1 
REMARK    3  A    between atoms: C_2  and  C_10 
REMARK       I    between atoms: N_3  and  C_2 
REMARK    4  A    between atoms: C_11  and  N_4 
REMARK    5  A    between atoms: C_17  and  N_5 
REMARK    6  A    between atoms: O_29  and  C_23 
ROOT
ATOM      1  C   UNL d   1      -0.709   1.157   0.000  0.00  0.00     0.057 A 
ATOM      2  C   UNL d   1      -2.323   0.817   0.000  0.00  0.00     0.094 A 
ATOM      3  C   UNL d   1      -0.966   0.369   0.000  0.00  0.00     0.006 A 
ATOM      4  C   UNL d   1      -1.265   1.767   0.000  0.00  0.00     0.006 A 
ATOM      5  C   UNL d   1      -1.775   0.207   0.000  0.00  0.00     0.020 A 
ATOM      6  C   UNL d   1      -2.061   1.601   0.000  0.00  0.00     0.020 A 
ENDROOT
BRANCH   1   7
ATOM      7  C   UNL d   1       0.104   1.331   0.000  0.00  0.00     0.265 C 
ATOM      8  N   UNL d   1       0.664   0.718   0.000  0.00  0.00    -0.269 N 
ATOM      9  C   UNL d   1       1.460   0.892   0.000  0.00  0.00     0.102 A 
ATOM     10  C   UNL d   1       0.411  -0.066   0.000  0.00  0.00     0.102 A 
ATOM     11  C   UNL d   1       2.016   0.282   0.000  0.00  0.00     0.100 A 
ATOM     12  N   UNL d   1       1.759  -0.498   0.000  0.00  0.00    -0.301 N 
ATOM     13  C   UNL d   1       0.962  -0.672   0.000  0.00  0.00     0.100 A 
ATOM     14  O   UNL d   1       0.353   2.115   0.000  0.00  0.00    -0.267 OA
BRANCH  12  15
ATOM     15  C   UNL d   1       2.302  -1.099   0.000  0.00  0.00     0.064 A 
ATOM     16  C   UNL d   1       2.045  -1.883   0.000  0.00  0.00     0.020 A 
ATOM     17  C   UNL d   1       2.592  -2.493   0.000  0.00  0.00     0.026 A 
ATOM     18  C   UNL d   1       3.401  -2.327   0.000  0.00  0.00     0.094 A 
ATOM     19  C   UNL d   1       3.650  -1.535   0.000  0.00  0.00     0.026 A 
ATOM     20  C   UNL d   1       3.103  -0.933   0.000  0.00  0.00     0.020 A 
BRANCH  18  21
ATOM     21  O   UNL d   1       3.949  -2.937   0.000  0.00  0.00    -0.328 OA
ATOM     22  C   UNL d   1       4.753  -2.762   0.000  0.00  0.00     0.181 C 
ENDBRANCH  18  21
ENDBRANCH  12  15
ENDBRANCH   1   7
BRANCH   2  23
ATOM     23  N   UNL d   1      -3.119   0.643   0.000  0.00  0.00    -0.158 NA
BRANCH  23  24
ATOM     24  S   UNL d   1      -3.380  -0.141   0.000  0.00  0.00     0.285 S 
ATOM     25  O   UNL d   1      -4.156   0.120   0.000  0.00  0.00    -0.198 OA
ATOM     26  O   UNL d   1      -2.596  -0.390   0.000  0.00  0.00    -0.198 OA
BRANCH  24  27
ATOM     27  C   UNL d   1      -3.629  -0.921   0.000  0.00  0.00     0.107 A 
ATOM     28  C   UNL d   1      -3.082  -1.530   0.000  0.00  0.00     0.043 A 
ATOM     29  C   UNL d   1      -3.335  -2.319   0.000  0.00  0.00     0.141 A 
ATOM     30  F   UNL d   1      -2.783  -2.941   0.000  0.00  0.00    -0.204 F 
ATOM     31  C   UNL d   1      -4.144  -2.489   0.000  0.00  0.00     0.030 A 
ATOM     32  C   UNL d   1      -4.699  -1.871   0.000  0.00  0.00     0.003 A 
ATOM     33  C   UNL d   1      -4.438  -1.087   0.000  0.00  0.00     0.013 A 
ENDBRANCH  24  27
ENDBRANCH  23  24
ENDBRANCH   2  23
TORSDOF 6
