REMARK  5 active torsions:
REMARK  status: ('A' for Active; 'I' for Inactive)
REMARK    1  A    between atoms: C_4  and  S_1 
REMARK    2  A    between atoms: N_5  and  S_1 
REMARK       I    between atoms: N_2  and  C_3 
REMARK    3  A    between atoms: C_3  and  C_12 
REMARK    4  A    between atoms: C_19  and  N_5 
REMARK    5  A    between atoms: C_20  and  C_19 
ROOT
ATOM      1  C   UNL d   1       0.597  -0.050   0.000  0.00  0.00     0.057 A 
ATOM      2  C   UNL d   1       0.340  -0.836   0.000  0.00  0.00     0.005 A 
ATOM      3  C   UNL d   1       0.050   0.563   0.000  0.00  0.00     0.005 A 
ATOM      4  C   UNL d   1      -1.017  -0.391   0.000  0.00  0.00     0.020 A 
ATOM      5  C   UNL d   1      -0.462  -1.000   0.000  0.00  0.00     0.002 A 
ATOM      6  C   UNL d   1      -0.756   0.391   0.000  0.00  0.00     0.002 A 
ENDROOT
BRANCH   4   7
ATOM      7  C   UNL d   1      -1.823  -0.559   0.000  0.00  0.00     0.112 C 
BRANCH   7   8
ATOM      8  N   UNL d   1      -2.079  -1.349   0.000  0.00  0.00    -0.157 NA
BRANCH   8   9
ATOM      9  S   UNL d   1      -2.894  -1.517   0.000  0.00  0.00     0.285 S 
ATOM     10  O   UNL d   1      -2.731  -2.332   0.000  0.00  0.00    -0.198 OA
ATOM     11  O   UNL d   1      -3.063  -0.697   0.000  0.00  0.00    -0.198 OA
BRANCH   9  12
ATOM     12  C   UNL d   1      -3.714  -1.681   0.000  0.00  0.00     0.106 A 
ATOM     13  C   UNL d   1      -4.256  -1.071   0.000  0.00  0.00     0.024 A 
ATOM     14  C   UNL d   1      -5.062  -1.235   0.000  0.00  0.00     0.059 A 
ATOM     15 CL   UNL d   1      -5.617  -0.622   0.000  0.00  0.00    -0.082 Cl
ATOM     16  C   UNL d   1      -5.327  -2.017   0.000  0.00  0.00     0.011 A 
ATOM     17  C   UNL d   1      -4.777  -2.626   0.000  0.00  0.00     0.002 A 
ATOM     18  C   UNL d   1      -3.966  -2.462   0.000  0.00  0.00     0.013 A 
ENDBRANCH   9  12
ENDBRANCH   8   9
ENDBRANCH   7   8
ENDBRANCH   4   7
BRANCH   1  19
ATOM     19  C   UNL d   1       1.416   0.126   0.000  0.00  0.00     0.265 C 
ATOM     20  N   UNL d   1       1.970  -0.491   0.000  0.00  0.00    -0.268 N 
ATOM     21  C   UNL d   1       1.714  -1.277   0.000  0.00  0.00     0.108 A 
ATOM     22  C   UNL d   1       2.777  -0.315   0.000  0.00  0.00     0.108 A 
ATOM     23  C   UNL d   1       2.273  -1.895   0.000  0.00  0.00     0.118 A 
ATOM     24  C   UNL d   1       2.017  -2.684   0.000  0.00  0.00     0.028 C 
ATOM     25  O   UNL d   1       3.079  -1.718   0.000  0.00  0.00    -0.304 OA
ATOM     26  C   UNL d   1       3.340  -0.933   0.000  0.00  0.00     0.118 A 
ATOM     27  C   UNL d   1       4.151  -0.760   0.000  0.00  0.00     0.028 C 
ATOM     28  O   UNL d   1       1.668   0.916   0.000  0.00  0.00    -0.267 OA
ENDBRANCH   1  19
TORSDOF 5
