REMARK  3 active torsions:
REMARK  status: ('A' for Active; 'I' for Inactive)
REMARK    1  A    between atoms: N_4  and  C_2 
REMARK    2  A    between atoms: C_10  and  C_3 
REMARK       I    between atoms: C_7  and  N_4 
REMARK    3  A    between atoms: C_8  and  C_7 
ROOT
ATOM      1  N   UNL d   1       2.077   3.513   0.000  0.00  0.00    -0.051 NA
ATOM      2  C   UNL d   1       1.520   2.910   0.000  0.00  0.00     0.760 A 
ATOM      3  C   UNL d   1       1.662   4.233   0.000  0.00  0.00     0.147 A 
ATOM      4  N   UNL d   1       0.758   3.249   0.000  0.00  0.00    -0.019 NA
ATOM      5  S   UNL d   1       0.858   4.062   0.000  0.00  0.00     0.052 SA
ENDROOT
BRANCH   2   6
ATOM      6  N   UNL d   1       1.600   2.081   0.000  0.00  0.00    -0.018 NA
ATOM      7  C   UNL d   1       0.934   1.595   0.000  0.00  0.00     0.301 C 
ATOM      8  O   UNL d   1       0.176   1.935   0.000  0.00  0.00    -0.264 OA
BRANCH   7   9
ATOM      9  C   UNL d   1       1.018   0.775   0.000  0.00  0.00     0.088 A 
ATOM     10  S   UNL d   1       0.394   0.222   0.000  0.00  0.00    -0.082 SA
ATOM     11  C   UNL d   1       0.729  -0.540   0.000  0.00  0.00     0.036 A 
ATOM     12  C   UNL d   1       1.549  -0.456   0.000  0.00  0.00     0.008 A 
ATOM     13  C   UNL d   1       1.725   0.352   0.000  0.00  0.00     0.012 A 
ENDBRANCH   7   9
ENDBRANCH   2   6
BRANCH   3  14
ATOM     14  C   UNL d   1       2.010   4.979   0.000  0.00  0.00     0.026 A 
ATOM     15  C   UNL d   1       1.524   5.657   0.000  0.00  0.00     0.002 A 
ATOM     16  C   UNL d   1       1.872   6.411   0.000  0.00  0.00     0.000 A 
ATOM     17  C   UNL d   1       2.692   6.486   0.000  0.00  0.00     0.000 A 
ATOM     18  C   UNL d   1       3.178   5.820   0.000  0.00  0.00     0.000 A 
ATOM     19  C   UNL d   1       2.839   5.067   0.000  0.00  0.00     0.002 A 
ENDBRANCH   3  14
TORSDOF 3
