REMARK  6 active torsions:
REMARK  status: ('A' for Active; 'I' for Inactive)
REMARK    1  A    between atoms: C_2  and  S_1 
REMARK    2  A    between atoms: N_5  and  S_1 
REMARK    3  A    between atoms: C_15  and  N_5 
REMARK    4  A    between atoms: C_7  and  C_6 
REMARK    5  A    between atoms: C_20  and  C_15 
REMARK    6  A    between atoms: O_19  and  C_20 
ROOT
ATOM      1  C   UNL d   1       2.567   0.689   0.000  0.00  0.00     0.105 A 
ATOM      2  C   UNL d   1       2.567  -0.968   0.000  0.00  0.00     0.000 A 
ATOM      3  C   UNL d   1       3.285   0.276   0.000  0.00  0.00     0.013 A 
ATOM      4  C   UNL d   1       1.853   0.276   0.000  0.00  0.00     0.013 A 
ATOM      5  C   UNL d   1       1.853  -0.555   0.000  0.00  0.00     0.001 A 
ATOM      6  C   UNL d   1       3.285  -0.555   0.000  0.00  0.00     0.001 A 
ENDROOT
BRANCH   1   7
ATOM      7  S   UNL d   1       2.559   1.515   0.000  0.00  0.00     0.285 S 
ATOM      8  O   UNL d   1       2.559   2.337   0.000  0.00  0.00    -0.198 OA
ATOM      9  O   UNL d   1       1.740   1.515   0.000  0.00  0.00    -0.198 OA
BRANCH   7  10
ATOM     10  N   UNL d   1       3.385   1.523   0.000  0.00  0.00    -0.155 NA
BRANCH  10  11
ATOM     11  C   UNL d   1       3.794   2.241   0.000  0.00  0.00     0.138 C 
BRANCH  11  12
ATOM     12  C   UNL d   1       3.373   2.951   0.000  0.00  0.00     0.138 C 
BRANCH  12  13
ATOM     13  O   UNL d   1       3.786   3.677   0.000  0.00  0.00    -0.325 OA
ATOM     14  C   UNL d   1       3.368   4.374   0.000  0.00  0.00     0.182 C 
ENDBRANCH  12  13
ENDBRANCH  11  12
ENDBRANCH  10  11
ENDBRANCH   7  10
ENDBRANCH   1   7
BRANCH   2  15
ATOM     15  C   UNL d   1       2.559  -1.791   0.000  0.00  0.00     0.000 A 
ATOM     16  C   UNL d   1       3.272  -2.204   0.000  0.00  0.00     0.001 A 
ATOM     17  C   UNL d   1       3.281  -3.022   0.000  0.00  0.00     0.011 A 
ATOM     18  C   UNL d   1       2.559  -3.443   0.000  0.00  0.00     0.058 A 
ATOM     19  C   UNL d   1       1.845  -3.030   0.000  0.00  0.00     0.011 A 
ATOM     20 CL   UNL d   1       2.559  -4.261   0.000  0.00  0.00    -0.082 Cl
ATOM     21  C   UNL d   1       1.845  -2.204   0.000  0.00  0.00     0.001 A 
ENDBRANCH   2  15
TORSDOF 6
