REMARK  3 active torsions:
REMARK  status: ('A' for Active; 'I' for Inactive)
REMARK    1  A    between atoms: S_8  and  C_2 
REMARK       I    between atoms: N_6  and  C_7 
REMARK    2  A    between atoms: C_7  and  C_9 
REMARK    3  A    between atoms: C_9  and  S_8 
ROOT
ATOM      1  N   UNL d   1       2.843  -0.877   0.000  0.00  0.00    -0.267 N 
ATOM      2  C   UNL d   1       2.124  -1.289   0.000  0.00  0.00     0.272 C 
ATOM      3  O   UNL d   1       2.124  -2.120   0.000  0.00  0.00    -0.266 OA
ATOM      4  O   UNL d   1       4.269  -0.054   0.000  0.00  0.00    -0.300 OA
ATOM      5  C   UNL d   1       3.554  -1.289   0.000  0.00  0.00     0.110 A 
ATOM      6  C   UNL d   1       2.843  -0.054   0.000  0.00  0.00     0.110 A 
ATOM      7  C   UNL d   1       3.554   0.357   0.000  0.00  0.00     0.142 A 
ATOM      8  C   UNL d   1       4.269  -0.877   0.000  0.00  0.00     0.142 A 
ENDROOT
BRANCH   2   9
ATOM      9  C   UNL d   1       1.409  -0.877   0.000  0.00  0.00     0.099 C 
BRANCH   9  10
ATOM     10  S   UNL d   1       1.409  -0.054   0.000  0.00  0.00    -0.041 SA
BRANCH  10  11
ATOM     11  C   UNL d   1       0.698   0.357   0.000  0.00  0.00     0.233 A 
ATOM     12  N   UNL d   1       0.524   1.168   0.000  0.00  0.00    -0.029 NA
ATOM     13  C   UNL d   1      -0.295   1.247   0.000  0.00  0.00     0.788 A 
ATOM     14  N   UNL d   1      -0.632   0.507   0.000  0.00  0.00     0.050 NA
ATOM     15  N   UNL d   1      -0.707   1.979   0.000  0.00  0.00     0.064 N 
ATOM     16  N   UNL d   1      -0.021  -0.054   0.000  0.00  0.00    -0.105 NA
ENDBRANCH  10  11
ENDBRANCH   9  10
ENDBRANCH   2   9
TORSDOF 3
