REMARK  4 active torsions:
REMARK  status: ('A' for Active; 'I' for Inactive)
REMARK    1  A    between atoms: N_2  and  S_1 
REMARK    2  A    between atoms: C_7  and  S_1 
REMARK    3  A    between atoms: C_11  and  C_4 
REMARK    4  A    between atoms: C_18  and  C_11 
ROOT
ATOM      1  N   UNL d   1       3.208  -0.374   0.000  0.00  0.00    -0.202 N 
ATOM      2  C   UNL d   1       3.919   0.037   0.000  0.00  0.00     0.218 A 
ATOM      3  C   UNL d   1       2.588   0.183   0.000  0.00  0.00     0.135 A 
ATOM      4  N   UNL d   1       3.744   0.845   0.000  0.00  0.00    -0.178 NA
ATOM      5  C   UNL d   1       2.925   0.924   0.000  0.00  0.00     0.298 A 
ATOM      6  S   UNL d   1       4.685  -0.291   0.000  0.00  0.00    -0.037 SA
ATOM      7  O   UNL d   1       2.501   1.643   0.000  0.00  0.00    -0.264 OA
ENDROOT
BRANCH   1   8
ATOM      8  S   UNL d   1       3.208  -1.198   0.000  0.00  0.00     0.273 S 
ATOM      9  O   UNL d   1       2.376  -1.198   0.000  0.00  0.00    -0.200 OA
ATOM     10  O   UNL d   1       4.032  -1.198   0.000  0.00  0.00    -0.200 OA
BRANCH   8  11
ATOM     11  C   UNL d   1       3.208  -2.022   0.000  0.00  0.00     0.104 A 
ATOM     12  C   UNL d   1       2.496  -2.434   0.000  0.00  0.00     0.012 A 
ATOM     13  C   UNL d   1       2.496  -3.262   0.000  0.00  0.00     0.001 A 
ATOM     14  C   UNL d   1       1.777  -2.010   0.000  0.00  0.00     0.001 C 
ATOM     15  C   UNL d   1       3.208  -3.674   0.000  0.00  0.00     0.000 A 
ATOM     16  C   UNL d   1       3.923  -3.262   0.000  0.00  0.00     0.001 A 
ATOM     17  C   UNL d   1       3.923  -2.434   0.000  0.00  0.00     0.013 A 
ATOM     18  C   UNL d   1       4.643  -3.682   0.000  0.00  0.00     0.000 C 
ENDBRANCH   8  11
ENDBRANCH   1   8
BRANCH   3  19
ATOM     19  C   UNL d   1       1.777   0.033   0.000  0.00  0.00     0.023 C 
BRANCH  19  20
ATOM     20  C   UNL d   1       1.240   0.657   0.000  0.00  0.00     0.002 C 
ATOM     21  C   UNL d   1       1.514   1.431   0.000  0.00  0.00     0.000 C 
ATOM     22  C   UNL d   1       0.437   0.507   0.000  0.00  0.00     0.000 C 
ENDBRANCH  19  20
ENDBRANCH   3  19
TORSDOF 4
