REMARK  6 active torsions:
REMARK  status: ('A' for Active; 'I' for Inactive)
REMARK    1  A    between atoms: N_13  and  C_2 
REMARK    2  A    between atoms: C_22  and  C_5 
REMARK    3  A    between atoms: C_23  and  C_6 
REMARK    4  A    between atoms: C_7  and  S_17 
REMARK       I    between atoms: C_16  and  N_13 
REMARK    5  A    between atoms: C_25  and  C_16 
REMARK    6  A    between atoms: S_17  and  C_25 
ROOT
ATOM      1  C   UNL d   1       3.798  -0.366   0.000  0.00  0.00     0.092 A 
ATOM      2  C   UNL d   1       3.020  -1.560   0.000  0.00  0.00     0.057 A 
ATOM      3  C   UNL d   1       3.062  -0.741   0.000  0.00  0.00     0.016 A 
ATOM      4  C   UNL d   1       4.485  -0.815   0.000  0.00  0.00     0.120 A 
ATOM      5  N   UNL d   1       4.447  -1.639   0.000  0.00  0.00    -0.239 NA
ATOM      6  C   UNL d   1       3.711  -2.014   0.000  0.00  0.00     0.081 A 
ATOM      7  C   UNL d   1       2.284  -1.926   0.000  0.00  0.00     0.193 A 
ATOM      8  C   UNL d   1       3.836   0.458   0.000  0.00  0.00     0.103 C 
ATOM      9  N   UNL d   1       3.886   1.281   0.000  0.00  0.00    -0.191 NA
ATOM     10  C   UNL d   1       2.933  -3.212   0.000  0.00  0.00     0.042 A 
ATOM     11  C   UNL d   1       2.234  -2.762   0.000  0.00  0.00     0.019 A 
ATOM     12  C   UNL d   1       3.674  -2.837   0.000  0.00  0.00    -0.003 A 
ATOM     13  O   UNL d   1       1.589  -1.477   0.000  0.00  0.00    -0.287 OA
ATOM     14  C   UNL d   1       3.470  -3.836   0.000  0.00  0.00     0.009 C 
ATOM     15  C   UNL d   1       2.188  -3.582   0.000  0.00  0.00     0.009 C 
ENDROOT
BRANCH   4  16
ATOM     16  S   UNL d   1       5.221  -0.441   0.000  0.00  0.00    -0.062 SA
BRANCH  16  17
ATOM     17  C   UNL d   1       5.916  -0.890   0.000  0.00  0.00     0.100 C 
BRANCH  17  18
ATOM     18  C   UNL d   1       5.870  -1.714   0.000  0.00  0.00     0.302 C 
ATOM     19  N   UNL d   1       5.142  -2.088   0.000  0.00  0.00    -0.018 NA
ATOM     20  O   UNL d   1       6.557  -2.163   0.000  0.00  0.00    -0.264 OA
BRANCH  19  21
ATOM     21  C   UNL d   1       5.096  -2.925   0.000  0.00  0.00     0.760 A 
ATOM     22  N   UNL d   1       5.733  -3.445   0.000  0.00  0.00    -0.051 NA
ATOM     23  C   UNL d   1       5.433  -4.206   0.000  0.00  0.00     0.147 A 
ATOM     24  S   UNL d   1       4.618  -4.156   0.000  0.00  0.00     0.052 SA
ATOM     25  N   UNL d   1       4.410  -3.361   0.000  0.00  0.00    -0.019 NA
BRANCH  23  26
ATOM     26  C   UNL d   1       5.845  -4.922   0.000  0.00  0.00     0.026 A 
ATOM     27  C   UNL d   1       6.669  -4.922   0.000  0.00  0.00     0.002 A 
ATOM     28  C   UNL d   1       7.081  -5.641   0.000  0.00  0.00     0.000 A 
ATOM     29  C   UNL d   1       6.677  -6.353   0.000  0.00  0.00     0.000 A 
ATOM     30  C   UNL d   1       5.854  -6.353   0.000  0.00  0.00     0.000 A 
ATOM     31  C   UNL d   1       5.433  -5.633   0.000  0.00  0.00     0.002 A 
ENDBRANCH  23  26
ENDBRANCH  19  21
ENDBRANCH  17  18
ENDBRANCH  16  17
ENDBRANCH   4  16
BRANCH   3  32
ATOM     32  C   UNL d   1       2.376  -0.291   0.000  0.00  0.00     0.001 A 
ATOM     33  C   UNL d   1       1.639  -0.666   0.000  0.00  0.00     0.000 A 
ATOM     34  C   UNL d   1       0.953  -0.216   0.000  0.00  0.00     0.000 A 
ATOM     35  C   UNL d   1       0.990   0.607   0.000  0.00  0.00     0.000 A 
ATOM     36  C   UNL d   1       1.726   0.982   0.000  0.00  0.00     0.000 A 
ATOM     37  C   UNL d   1       2.421   0.532   0.000  0.00  0.00     0.000 A 
ENDBRANCH   3  32
TORSDOF 6
