REMARK  3 active torsions:
REMARK  status: ('A' for Active; 'I' for Inactive)
REMARK    1  A    between atoms: C_2  and  S_1 
REMARK    2  A    between atoms: N_3  and  S_1 
REMARK    3  A    between atoms: C_12  and  N_3 
ROOT
ATOM      1  S   UNL d   1       2.182   1.372   0.000  0.00  0.00     0.285 S 
ATOM      2  O   UNL d   1       2.921   1.506   0.000  0.00  0.00    -0.198 OA
ATOM      3  O   UNL d   1       1.410   1.444   0.000  0.00  0.00    -0.198 OA
ENDROOT
BRANCH   1   4
ATOM      4  C   UNL d   1       2.182   0.537   0.000  0.00  0.00     0.105 A 
ATOM      5  C   UNL d   1       1.465   0.122   0.000  0.00  0.00     0.012 A 
ATOM      6  C   UNL d   1       1.465  -0.705   0.000  0.00  0.00     0.001 A 
ATOM      7  C   UNL d   1       0.743   0.554   0.000  0.00  0.00     0.001 C 
ATOM      8  C   UNL d   1       2.182  -1.112   0.000  0.00  0.00     0.000 A 
ATOM      9  C   UNL d   1       2.908  -0.705   0.000  0.00  0.00     0.001 A 
ATOM     10  C   UNL d   1       2.908   0.122   0.000  0.00  0.00     0.013 A 
ATOM     11  C   UNL d   1       3.630  -1.125   0.000  0.00  0.00     0.000 C 
ENDBRANCH   1   4
BRANCH   1  12
ATOM     12  N   UNL d   1       2.253   2.115   0.000  0.00  0.00    -0.158 NA
BRANCH  12  13
ATOM     13  C   UNL d   1       1.628   2.413   0.000  0.00  0.00     0.095 A 
ATOM     14  C   UNL d   1       1.578   3.105   0.000  0.00  0.00     0.040 A 
ATOM     15  C   UNL d   1       0.957   3.386   0.000  0.00  0.00     0.089 A 
ATOM     16  N   UNL d   1       0.760   4.045   0.000  0.00  0.00    -0.236 NA
ATOM     17  C   UNL d   1       0.390   3.005   0.000  0.00  0.00     0.049 A 
ATOM     18  C   UNL d   1       0.067   4.058   0.000  0.00  0.00     0.135 A 
ATOM     19  S   UNL d   1      -0.151   3.420   0.000  0.00  0.00    -0.064 SA
ATOM     20  C   UNL d   1       0.453   2.312   0.000  0.00  0.00     0.010 A 
ATOM     21  C   UNL d   1       1.074   2.014   0.000  0.00  0.00     0.021 A 
ENDBRANCH  12  13
ENDBRANCH   1  12
TORSDOF 3
