REMARK  3 active torsions:
REMARK  status: ('A' for Active; 'I' for Inactive)
REMARK    1  A    between atoms: N_5  and  C_2 
REMARK    2  A    between atoms: C_9  and  C_3 
REMARK       I    between atoms: C_7  and  N_5 
REMARK    3  A    between atoms: C_8  and  C_7 
ROOT
ATOM      1  N   UNL d   1       1.189   4.281   0.000  0.00  0.00    -0.200 NA
ATOM      2  C   UNL d   1       1.858   3.811   0.000  0.00  0.00     0.216 A 
ATOM      3  C   UNL d   1       1.446   5.075   0.000  0.00  0.00     0.172 A 
ATOM      4  N   UNL d   1       2.269   5.075   0.000  0.00  0.00    -0.187 NA
ATOM      5  S   UNL d   1       2.523   4.294   0.000  0.00  0.00     0.054 SA
ENDROOT
BRANCH   2   6
ATOM      6  N   UNL d   1       1.858   2.988   0.000  0.00  0.00    -0.181 NA
ATOM      7  C   UNL d   1       1.139   2.577   0.000  0.00  0.00     0.281 C 
ATOM      8  O   UNL d   1       0.428   2.988   0.000  0.00  0.00    -0.265 OA
BRANCH   7   9
ATOM      9  C   UNL d   1       1.139   1.758   0.000  0.00  0.00     0.058 A 
ATOM     10  C   UNL d   1       0.428   1.347   0.000  0.00  0.00     0.005 A 
ATOM     11  C   UNL d   1       0.428   0.519   0.000  0.00  0.00     0.000 A 
ATOM     12  C   UNL d   1       1.139   0.108   0.000  0.00  0.00     0.000 A 
ATOM     13  C   UNL d   1       1.858   0.519   0.000  0.00  0.00     0.000 A 
ATOM     14  C   UNL d   1       1.139  -0.715   0.000  0.00  0.00     0.000 C 
ATOM     15  C   UNL d   1       1.858   1.347   0.000  0.00  0.00     0.005 A 
ENDBRANCH   7   9
ENDBRANCH   2   6
BRANCH   3  16
ATOM     16  C   UNL d   1       0.964   5.736   0.000  0.00  0.00     0.036 A 
ATOM     17  C   UNL d   1       0.141   5.640   0.000  0.00  0.00     0.003 A 
ATOM     18  C   UNL d   1      -0.337   6.314   0.000  0.00  0.00     0.000 A 
ATOM     19  C   UNL d   1       0.000   7.074   0.000  0.00  0.00     0.000 A 
ATOM     20  C   UNL d   1       0.815   7.157   0.000  0.00  0.00     0.000 A 
ATOM     21  C   UNL d   1       1.301   6.488   0.000  0.00  0.00     0.003 A 
ENDBRANCH   3  16
TORSDOF 3
