REMARK  6 active torsions:
REMARK  status: ('A' for Active; 'I' for Inactive)
REMARK    1  A    between atoms: C_2  and  S_1 
REMARK    2  A    between atoms: N_5  and  S_1 
REMARK    3  A    between atoms: C_14  and  N_5 
REMARK    4  A    between atoms: C_7  and  C_6 
REMARK    5  A    between atoms: C_19  and  C_14 
REMARK    6  A    between atoms: O_18  and  C_19 
ROOT
ATOM      1  C   UNL d   1       2.497  -0.956   0.000  0.00  0.00     0.105 A 
ATOM      2  C   UNL d   1       2.497  -2.618   0.000  0.00  0.00     0.000 A 
ATOM      3  C   UNL d   1       3.211  -1.369   0.000  0.00  0.00     0.013 A 
ATOM      4  C   UNL d   1       1.783  -1.369   0.000  0.00  0.00     0.013 A 
ATOM      5  C   UNL d   1       1.783  -2.205   0.000  0.00  0.00     0.001 A 
ATOM      6  C   UNL d   1       3.211  -2.205   0.000  0.00  0.00     0.001 A 
ENDROOT
BRANCH   1   7
ATOM      7  S   UNL d   1       2.493  -0.130   0.000  0.00  0.00     0.285 S 
ATOM      8  O   UNL d   1       2.484   0.689   0.000  0.00  0.00    -0.198 OA
ATOM      9  O   UNL d   1       1.670  -0.130   0.000  0.00  0.00    -0.198 OA
BRANCH   7  10
ATOM     10  N   UNL d   1       3.311  -0.125   0.000  0.00  0.00    -0.155 NA
BRANCH  10  11
ATOM     11  C   UNL d   1       3.724   0.597   0.000  0.00  0.00     0.138 C 
BRANCH  11  12
ATOM     12  C   UNL d   1       3.307   1.303   0.000  0.00  0.00     0.138 C 
BRANCH  12  13
ATOM     13  O   UNL d   1       3.712   2.029   0.000  0.00  0.00    -0.325 OA
ATOM     14  C   UNL d   1       3.299   2.739   0.000  0.00  0.00     0.182 C 
ENDBRANCH  12  13
ENDBRANCH  11  12
ENDBRANCH  10  11
ENDBRANCH   7  10
ENDBRANCH   1   7
BRANCH   2  15
ATOM     15  C   UNL d   1       2.493  -3.436   0.000  0.00  0.00     0.000 A 
ATOM     16  C   UNL d   1       3.207  -3.850   0.000  0.00  0.00     0.000 A 
ATOM     17  C   UNL d   1       3.211  -4.676   0.000  0.00  0.00     0.000 A 
ATOM     18  C   UNL d   1       2.484  -5.090   0.000  0.00  0.00     0.000 A 
ATOM     19  C   UNL d   1       1.770  -4.676   0.000  0.00  0.00     0.000 A 
ATOM     20  C   UNL d   1       2.484  -5.916   0.000  0.00  0.00     0.000 C 
ATOM     21  C   UNL d   1       1.770  -3.850   0.000  0.00  0.00     0.000 A 
ENDBRANCH   2  15
TORSDOF 6
