REMARK  4 active torsions:
REMARK  status: ('A' for Active; 'I' for Inactive)
REMARK    1  A    between atoms: N_5  and  C_1 
REMARK    2  A    between atoms: C_8  and  C_2 
REMARK       I    between atoms: C_7  and  N_5 
REMARK    3  A    between atoms: C_10  and  C_7 
REMARK    4  A    between atoms: N_9  and  C_8 
ROOT
ATOM      1  C   UNL d   1       1.204  -4.479   0.000  0.00  0.00     0.115 A 
ATOM      2  C   UNL d   1       0.792  -3.767   0.000  0.00  0.00     0.042 A 
ATOM      3  S   UNL d   1       0.642  -5.100   0.000  0.00  0.00    -0.068 SA
ATOM      4  C   UNL d   1      -0.021  -3.942   0.000  0.00  0.00     0.009 A 
ATOM      5  C   UNL d   1      -0.096  -4.767   0.000  0.00  0.00     0.031 A 
ATOM      6  C   UNL d   1      -0.646  -3.400   0.000  0.00  0.00     0.001 C 
ATOM      7  C   UNL d   1      -0.808  -5.192   0.000  0.00  0.00     0.007 C 
ENDROOT
BRANCH   1   8
ATOM      8  N   UNL d   1       2.029  -4.479   0.000  0.00  0.00    -0.201 NA
ATOM      9  C   UNL d   1       2.442  -3.767   0.000  0.00  0.00     0.280 C 
ATOM     10  O   UNL d   1       2.029  -3.054   0.000  0.00  0.00    -0.265 OA
BRANCH   9  11
ATOM     11  C   UNL d   1       3.267  -3.767   0.000  0.00  0.00     0.058 A 
ATOM     12  C   UNL d   1       3.679  -4.479   0.000  0.00  0.00     0.007 A 
ATOM     13  C   UNL d   1       4.513  -4.479   0.000  0.00  0.00     0.030 A 
ATOM     14  C   UNL d   1       4.925  -3.767   0.000  0.00  0.00     0.140 A 
ATOM     15  C   UNL d   1       4.513  -3.054   0.000  0.00  0.00     0.030 A 
ATOM     16  F   UNL d   1       5.750  -3.767   0.000  0.00  0.00    -0.204 F 
ATOM     17  C   UNL d   1       3.679  -3.054   0.000  0.00  0.00     0.007 A 
ENDBRANCH   9  11
ENDBRANCH   1   8
BRANCH   2  18
ATOM     18  C   UNL d   1       1.129  -3.004   0.000  0.00  0.00     0.082 C 
BRANCH  18  19
ATOM     19  N   UNL d   1       0.642  -2.337   0.000  0.00  0.00    -0.302 N 
ATOM     20  C   UNL d   1      -0.158  -2.542   0.000  0.00  0.00     0.080 A 
ATOM     21  C   UNL d   1      -0.812  -2.050   0.000  0.00  0.00     0.019 A 
ATOM     22  C   UNL d   1      -0.838  -1.225   0.000  0.00  0.00     0.002 A 
ATOM     23  C   UNL d   1      -0.212  -0.688   0.000  0.00  0.00     0.002 A 
ATOM     24  C   UNL d   1       0.600  -0.850   0.000  0.00  0.00     0.019 A 
ATOM     25  C   UNL d   1       0.979  -1.579   0.000  0.00  0.00     0.080 A 
ENDBRANCH  18  19
ENDBRANCH   2  18
TORSDOF 4
