REMARK  5 active torsions:
REMARK  status: ('A' for Active; 'I' for Inactive)
REMARK    1  A    between atoms: S_9  and  C_2 
REMARK    2  A    between atoms: C_7  and  C_18 
REMARK       I    between atoms: N_13  and  C_7 
REMARK    3  A    between atoms: C_18  and  S_9 
REMARK    4  A    between atoms: C_20  and  N_13 
REMARK    5  A    between atoms: C_19  and  C_20 
ROOT
ATOM      1  C   UNL d   1       0.571  -2.635   0.000  0.00  0.00     0.286 C 
ATOM      2  N   UNL d   1       1.364  -2.875   0.000  0.00  0.00    -0.206 NA
ATOM      3  O   UNL d   1       0.382  -1.830   0.000  0.00  0.00    -0.265 OA
ENDROOT
BRANCH   2   4
ATOM      4  C   UNL d   1       1.561  -3.693   0.000  0.00  0.00     0.102 C 
BRANCH   4   5
ATOM      5  C   UNL d   1       2.367  -3.928   0.000  0.00  0.00     0.021 A 
ATOM      6  C   UNL d   1       2.572  -4.734   0.000  0.00  0.00     0.028 A 
ATOM      7  C   UNL d   1       3.374  -4.952   0.000  0.00  0.00     0.119 A 
ATOM      8  O   UNL d   1       3.743  -5.678   0.000  0.00  0.00    -0.300 OA
ATOM      9  C   UNL d   1       3.957  -4.369   0.000  0.00  0.00     0.119 A 
ATOM     10  C   UNL d   1       4.549  -5.569   0.000  0.00  0.00     0.304 A 
ATOM     11  O   UNL d   1       4.683  -4.738   0.000  0.00  0.00    -0.300 OA
ATOM     12  C   UNL d   1       3.743  -3.575   0.000  0.00  0.00     0.026 A 
ATOM     13  C   UNL d   1       2.938  -3.361   0.000  0.00  0.00     0.004 A 
ENDBRANCH   4   5
ENDBRANCH   2   4
BRANCH   1  14
ATOM     14  C   UNL d   1      -0.021  -3.210   0.000  0.00  0.00     0.101 C 
BRANCH  14  15
ATOM     15  S   UNL d   1       0.155  -4.016   0.000  0.00  0.00    -0.041 SA
BRANCH  15  16
ATOM     16  C   UNL d   1      -0.554  -3.605   0.000  0.00  0.00     0.233 A 
ATOM     17  N   UNL d   1      -0.655  -2.774   0.000  0.00  0.00    -0.029 NA
ATOM     18  C   UNL d   1      -1.460  -2.619   0.000  0.00  0.00     0.788 A 
ATOM     19  N   UNL d   1      -1.863  -3.328   0.000  0.00  0.00     0.050 NA
ATOM     20  N   UNL d   1      -1.809  -1.863   0.000  0.00  0.00     0.064 N 
ATOM     21  N   UNL d   1      -1.322  -3.945   0.000  0.00  0.00    -0.105 NA
ENDBRANCH  15  16
ENDBRANCH  14  15
ENDBRANCH   1  14
TORSDOF 5
