REMARK  7 active torsions:
REMARK  status: ('A' for Active; 'I' for Inactive)
REMARK    1  A    between atoms: N_5  and  S_1 
REMARK    2  A    between atoms: C_8  and  S_1 
REMARK    3  A    between atoms: C_2  and  C_11 
REMARK    4  A    between atoms: C_9  and  N_5 
REMARK    5  A    between atoms: C_10  and  C_9 
REMARK       I    between atoms: N_14  and  C_10 
REMARK    6  A    between atoms: C_24  and  N_14 
REMARK    7  A    between atoms: C_15  and  C_16 
ROOT
ATOM      1  C   UNL d   1       6.978  -1.816   0.000  0.00  0.00     0.299 C 
ATOM      2  N   UNL d   1       6.586  -1.104   0.000  0.00  0.00    -0.207 NA
ATOM      3  O   UNL d   1       6.553  -2.529   0.000  0.00  0.00    -0.263 OA
ENDROOT
BRANCH   1   4
ATOM      4  C   UNL d   1       7.811  -1.841   0.000  0.00  0.00     0.174 C 
BRANCH   4   5
ATOM      5  N   UNL d   1       8.227  -1.137   0.000  0.00  0.00    -0.152 NA
BRANCH   5   6
ATOM      6  S   UNL d   1       9.061  -1.154   0.000  0.00  0.00     0.285 S 
ATOM      7  O   UNL d   1       9.040  -1.979   0.000  0.00  0.00    -0.198 OA
ATOM      8  O   UNL d   1       9.077  -0.329   0.000  0.00  0.00    -0.198 OA
BRANCH   6   9
ATOM      9  C   UNL d   1       9.886  -1.167   0.000  0.00  0.00     0.105 A 
ATOM     10  C   UNL d   1      10.310  -0.467   0.000  0.00  0.00     0.013 A 
ATOM     11  C   UNL d   1      11.135  -0.479   0.000  0.00  0.00    -0.004 A 
ATOM     12  C   UNL d   1      11.535  -1.204   0.000  0.00  0.00    -0.023 A 
ATOM     13  C   UNL d   1      11.102  -1.912   0.000  0.00  0.00    -0.004 A 
ATOM     14  C   UNL d   1      10.285  -1.891   0.000  0.00  0.00     0.013 A 
BRANCH  12  15
ATOM     15  C   UNL d   1      12.360  -1.225   0.000  0.00  0.00     0.019 C 
ATOM     16  C   UNL d   1      12.377  -0.404   0.000  0.00  0.00     0.004 C 
ATOM     17  C   UNL d   1      12.339  -2.054   0.000  0.00  0.00     0.004 C 
ATOM     18  C   UNL d   1      13.185  -1.241   0.000  0.00  0.00     0.004 C 
ENDBRANCH  12  15
ENDBRANCH   6   9
ENDBRANCH   5   6
ENDBRANCH   4   5
ENDBRANCH   1   4
BRANCH   2  19
ATOM     19  C   UNL d   1       5.761  -1.087   0.000  0.00  0.00     0.085 A 
ATOM     20  C   UNL d   1       5.374  -0.362   0.000  0.00  0.00     0.019 A 
ATOM     21  C   UNL d   1       4.541  -0.329   0.000  0.00  0.00     0.004 A 
ATOM     22  C   UNL d   1       4.103  -1.025   0.000  0.00  0.00     0.024 A 
ATOM     23  C   UNL d   1       4.491  -1.754   0.000  0.00  0.00     0.004 A 
ATOM     24  C   UNL d   1       5.316  -1.791   0.000  0.00  0.00     0.019 A 
BRANCH  22  25
ATOM     25  C   UNL d   1       3.274  -0.979   0.000  0.00  0.00     0.111 A 
ATOM     26  N   UNL d   1       2.791  -1.641   0.000  0.00  0.00    -0.239 NA
ATOM     27  C   UNL d   1       2.004  -1.391   0.000  0.00  0.00     0.088 A 
ATOM     28  C   UNL d   1       1.291  -1.804   0.000  0.00  0.00     0.020 A 
ATOM     29  C   UNL d   1       2.004  -0.567   0.000  0.00  0.00     0.049 A 
ATOM     30  C   UNL d   1       0.579  -1.391   0.000  0.00  0.00     0.002 A 
ATOM     31  C   UNL d   1       0.579  -0.567   0.000  0.00  0.00     0.001 A 
ATOM     32  C   UNL d   1       1.291  -0.154   0.000  0.00  0.00     0.008 A 
ATOM     33  S   UNL d   1       2.791  -0.312   0.000  0.00  0.00    -0.066 SA
ENDBRANCH  22  25
ENDBRANCH   2  19
TORSDOF 7
