REMARK  3 active torsions:
REMARK  status: ('A' for Active; 'I' for Inactive)
REMARK    1  A    between atoms: S_9  and  C_2 
REMARK    2  A    between atoms: C_15  and  S_9 
REMARK    3  A    between atoms: C_14  and  C_15 
ROOT
ATOM      1  C   UNL d   1       1.693  -0.960   0.000  0.00  0.00     0.119 A 
ATOM      2  C   UNL d   1       1.693  -1.788   0.000  0.00  0.00     0.119 A 
ATOM      3  O   UNL d   1       0.911  -0.712   0.000  0.00  0.00    -0.300 OA
ATOM      4  O   UNL d   1       0.911  -2.041   0.000  0.00  0.00    -0.300 OA
ATOM      5  C   UNL d   1       0.435  -1.378   0.000  0.00  0.00     0.304 A 
ATOM      6  C   UNL d   1       2.401  -0.550   0.000  0.00  0.00     0.027 A 
ATOM      7  C   UNL d   1       2.401  -2.190   0.000  0.00  0.00     0.026 A 
ATOM      8  C   UNL d   1       3.117  -0.960   0.000  0.00  0.00     0.009 A 
ATOM      9  C   UNL d   1       3.117  -1.788   0.000  0.00  0.00     0.003 A 
ENDROOT
BRANCH   8  10
ATOM     10  C   UNL d   1       3.829  -0.550   0.000  0.00  0.00     0.037 C 
BRANCH  10  11
ATOM     11  S   UNL d   1       4.549  -0.960   0.000  0.00  0.00    -0.059 SA
BRANCH  11  12
ATOM     12  C   UNL d   1       5.282  -0.534   0.000  0.00  0.00     0.164 A 
ATOM     13  S   UNL d   1       6.039  -0.882   0.000  0.00  0.00    -0.039 SA
ATOM     14  C   UNL d   1       6.606  -0.253   0.000  0.00  0.00     0.134 A 
ATOM     15  N   UNL d   1       6.188   0.459   0.000  0.00  0.00    -0.140 NA
ATOM     16  C   UNL d   1       7.438  -0.352   0.000  0.00  0.00     0.030 C 
ATOM     17  N   UNL d   1       5.364   0.294   0.000  0.00  0.00    -0.134 NA
ENDBRANCH  11  12
ENDBRANCH  10  11
ENDBRANCH   8  10
TORSDOF 3
