REMARK  6 active torsions:
REMARK  status: ('A' for Active; 'I' for Inactive)
REMARK    1  A    between atoms: C_19  and  N_1 
REMARK    2  A    between atoms: S_12  and  C_2 
REMARK       I    between atoms: N_7  and  C_10 
REMARK    3  A    between atoms: C_10  and  C_23 
REMARK    4  A    between atoms: C_23  and  S_12 
REMARK    5  A    between atoms: O_26  and  C_17 
REMARK    6  A    between atoms: O_27  and  C_18 
ROOT
ATOM      1  S   UNL d   1       5.354  -2.511   0.000  0.00  0.00    -0.044 SA
ENDROOT
BRANCH   1   2
ATOM      2  C   UNL d   1       6.065  -2.099   0.000  0.00  0.00     0.183 A 
ATOM      3  N   UNL d   1       6.784  -2.511   0.000  0.00  0.00    -0.254 N 
ATOM      4  C   UNL d   1       7.499  -2.099   0.000  0.00  0.00     0.271 A 
ATOM      5  C   UNL d   1       7.499  -1.272   0.000  0.00  0.00     0.115 A 
ATOM      6  O   UNL d   1       8.218  -2.519   0.000  0.00  0.00    -0.266 OA
ATOM      7  C   UNL d   1       6.776  -0.861   0.000  0.00  0.00     0.192 A 
ATOM      8  C   UNL d   1       8.110  -0.715   0.000  0.00  0.00     0.130 A 
ATOM      9  N   UNL d   1       6.950  -0.054   0.000  0.00  0.00    -0.128 NA
ATOM     10  N   UNL d   1       6.065  -1.272   0.000  0.00  0.00    -0.201 NA
ATOM     11  N   UNL d   1       7.761   0.033   0.000  0.00  0.00    -0.145 NA
BRANCH   3  12
ATOM     12  C   UNL d   1       6.784  -3.334   0.000  0.00  0.00     0.069 A 
ATOM     13  C   UNL d   1       7.499  -3.745   0.000  0.00  0.00     0.018 A 
ATOM     14  C   UNL d   1       7.499  -4.577   0.000  0.00  0.00     0.002 A 
ATOM     15  C   UNL d   1       6.784  -4.988   0.000  0.00  0.00     0.000 A 
ATOM     16  C   UNL d   1       6.073  -4.577   0.000  0.00  0.00     0.002 A 
ATOM     17  C   UNL d   1       6.073  -3.745   0.000  0.00  0.00     0.018 A 
ENDBRANCH   3  12
ENDBRANCH   1   2
BRANCH   1  18
ATOM     18  C   UNL d   1       4.639  -2.099   0.000  0.00  0.00     0.099 C 
BRANCH  18  19
ATOM     19  C   UNL d   1       3.928  -2.511   0.000  0.00  0.00     0.271 C 
ATOM     20  N   UNL d   1       3.209  -2.099   0.000  0.00  0.00    -0.272 N 
ATOM     21  C   UNL d   1       2.494  -2.511   0.000  0.00  0.00     0.083 A 
ATOM     22  C   UNL d   1       3.209  -1.276   0.000  0.00  0.00     0.083 A 
ATOM     23  C   UNL d   1       1.783  -2.099   0.000  0.00  0.00     0.020 A 
ATOM     24  C   UNL d   1       1.073  -2.511   0.000  0.00  0.00     0.028 A 
ATOM     25  C   UNL d   1       1.783  -1.276   0.000  0.00  0.00     0.005 A 
ATOM     26  C   UNL d   1       0.353  -2.099   0.000  0.00  0.00     0.116 A 
ATOM     27  C   UNL d   1       0.353  -1.276   0.000  0.00  0.00     0.116 A 
ATOM     28  C   UNL d   1       1.073  -0.865   0.000  0.00  0.00     0.026 A 
ATOM     29  C   UNL d   1       2.494  -0.865   0.000  0.00  0.00     0.019 A 
ATOM     30  O   UNL d   1       3.933  -3.334   0.000  0.00  0.00    -0.266 OA
BRANCH  26  31
ATOM     31  O   UNL d   1      -0.362  -2.511   0.000  0.00  0.00    -0.326 OA
ATOM     32  C   UNL d   1      -0.370  -3.334   0.000  0.00  0.00     0.181 C 
ENDBRANCH  26  31
BRANCH  27  33
ATOM     33  O   UNL d   1      -0.362  -0.852   0.000  0.00  0.00    -0.326 OA
ATOM     34  C   UNL d   1      -0.357  -0.029   0.000  0.00  0.00     0.181 C 
ENDBRANCH  27  33
ENDBRANCH  18  19
ENDBRANCH   1  18
TORSDOF 6
