REMARK  4 active torsions:
REMARK  status: ('A' for Active; 'I' for Inactive)
REMARK    1  A    between atoms: C_3  and  C_14 
REMARK    2  A    between atoms: C_21  and  C_4 
REMARK    3  A    between atoms: S_15  and  C_5 
REMARK    4  A    between atoms: C_14  and  S_15 
ROOT
ATOM      1  C   UNL d   1       1.334   0.133   0.000  0.00  0.00     0.092 A 
ATOM      2  C   UNL d   1       1.508  -1.280   0.000  0.00  0.00     0.057 A 
ATOM      3  C   UNL d   1       1.011  -0.625   0.000  0.00  0.00     0.016 A 
ATOM      4  C   UNL d   1       2.154   0.232   0.000  0.00  0.00     0.120 A 
ATOM      5  N   UNL d   1       2.651  -0.414   0.000  0.00  0.00    -0.239 NA
ATOM      6  C   UNL d   1       2.328  -1.180   0.000  0.00  0.00     0.081 A 
ATOM      7  C   UNL d   1       1.185  -2.042   0.000  0.00  0.00     0.193 A 
ATOM      8  C   UNL d   1       0.837   0.791   0.000  0.00  0.00     0.103 C 
ATOM      9  N   UNL d   1       0.340   1.450   0.000  0.00  0.00    -0.191 NA
ATOM     10  C   UNL d   1       2.510  -2.601   0.000  0.00  0.00     0.042 A 
ATOM     11  C   UNL d   1       1.681  -2.709   0.000  0.00  0.00     0.019 A 
ATOM     12  C   UNL d   1       2.837  -1.839   0.000  0.00  0.00    -0.003 A 
ATOM     13  O   UNL d   1       0.364  -2.141   0.000  0.00  0.00    -0.287 OA
ATOM     14  C   UNL d   1       3.322  -2.725   0.000  0.00  0.00     0.009 C 
ATOM     15  C   UNL d   1       2.179  -3.359   0.000  0.00  0.00     0.009 C 
ENDROOT
BRANCH   3  16
ATOM     16  C   UNL d   1       0.191  -0.725   0.000  0.00  0.00     0.001 C 
ATOM     17  C   UNL d   1      -0.120  -1.483   0.000  0.00  0.00     0.000 C 
ENDBRANCH   3  16
BRANCH   4  18
ATOM     18  S   UNL d   1       2.473   0.994   0.000  0.00  0.00    -0.067 SA
BRANCH  18  19
ATOM     19  C   UNL d   1       3.292   1.093   0.000  0.00  0.00     0.041 C 
BRANCH  19  20
ATOM     20  C   UNL d   1       3.789   0.435   0.000  0.00  0.00     0.051 A 
ATOM     21  C   UNL d   1       3.616  -0.290   0.000  0.00  0.00     0.127 A 
ATOM     22  O   UNL d   1       4.229  -0.812   0.000  0.00  0.00    -0.211 OA
ATOM     23  C   UNL d   1       3.131  -0.862   0.000  0.00  0.00     0.029 C 
ATOM     24  N   UNL d   1       4.875  -0.315   0.000  0.00  0.00    -0.126 NA
ATOM     25  C   UNL d   1       4.609   0.456   0.000  0.00  0.00     0.111 A 
ATOM     26  C   UNL d   1       5.073   1.131   0.000  0.00  0.00     0.023 C 
ENDBRANCH  19  20
ENDBRANCH  18  19
ENDBRANCH   4  18
TORSDOF 4
