REMARK  5 active torsions:
REMARK  status: ('A' for Active; 'I' for Inactive)
REMARK    1  A    between atoms: N_2  and  S_1 
REMARK    2  A    between atoms: C_4  and  S_1 
REMARK    3  A    between atoms: C_3  and  C_6 
REMARK    4  A    between atoms: C_12  and  N_5 
REMARK    5  A    between atoms: O_24  and  C_20 
ROOT
ATOM      1  N   UNL d   1       3.942   0.358   0.000  0.00  0.00    -0.226 N 
ATOM      2  N   UNL d   1       5.588   0.371   0.000  0.00  0.00    -0.301 N 
ATOM      3  C   UNL d   1       4.362  -0.354   0.000  0.00  0.00     0.111 A 
ATOM      4  C   UNL d   1       4.354   1.083   0.000  0.00  0.00     0.111 A 
ATOM      5  C   UNL d   1       5.179   1.083   0.000  0.00  0.00     0.100 A 
ATOM      6  C   UNL d   1       5.179  -0.342   0.000  0.00  0.00     0.100 A 
ENDROOT
BRANCH   1   7
ATOM      7  S   UNL d   1       3.129   0.358   0.000  0.00  0.00     0.271 S 
ATOM      8  O   UNL d   1       2.304   0.358   0.000  0.00  0.00    -0.200 OA
ATOM      9  O   UNL d   1       3.125   1.175   0.000  0.00  0.00    -0.200 OA
BRANCH   7  10
ATOM     10  C   UNL d   1       3.129  -0.467   0.000  0.00  0.00     0.104 A 
ATOM     11  C   UNL d   1       2.417  -0.887   0.000  0.00  0.00     0.017 A 
ATOM     12  C   UNL d   1       2.417  -1.712   0.000  0.00  0.00     0.072 A 
ATOM     13  C   UNL d   1       3.129  -2.125   0.000  0.00  0.00     0.004 A 
ATOM     14  C   UNL d   1       3.850  -1.712   0.000  0.00  0.00     0.001 A 
ATOM     15  C   UNL d   1       3.850  -0.879   0.000  0.00  0.00     0.013 A 
BRANCH  12  16
ATOM     16  C   UNL d   1       1.704  -2.125   0.000  0.00  0.00     0.419 C 
ATOM     17  F   UNL d   1       0.904  -1.817   0.000  0.00  0.00    -0.166 F 
ATOM     18  F   UNL d   1       1.567  -2.975   0.000  0.00  0.00    -0.166 F 
ATOM     19  F   UNL d   1       1.050  -2.500   0.000  0.00  0.00    -0.166 F 
ENDBRANCH  12  16
ENDBRANCH   7  10
ENDBRANCH   1   7
BRANCH   2  20
ATOM     20  C   UNL d   1       6.412   0.371   0.000  0.00  0.00     0.064 A 
ATOM     21  C   UNL d   1       6.825  -0.342   0.000  0.00  0.00     0.020 A 
ATOM     22  C   UNL d   1       7.650  -0.342   0.000  0.00  0.00     0.026 A 
ATOM     23  C   UNL d   1       8.062   0.371   0.000  0.00  0.00     0.094 A 
ATOM     24  C   UNL d   1       7.642   1.087   0.000  0.00  0.00     0.026 A 
ATOM     25  C   UNL d   1       6.817   1.083   0.000  0.00  0.00     0.020 A 
BRANCH  23  26
ATOM     26  O   UNL d   1       8.887   0.375   0.000  0.00  0.00    -0.328 OA
ATOM     27  C   UNL d   1       9.300   1.096   0.000  0.00  0.00     0.181 C 
ENDBRANCH  23  26
ENDBRANCH   2  20
TORSDOF 5
