REMARK  5 active torsions:
REMARK  status: ('A' for Active; 'I' for Inactive)
REMARK    1  A    between atoms: C_4  and  S_1 
REMARK    2  A    between atoms: N_6  and  S_1 
REMARK    3  A    between atoms: C_3  and  C_2 
REMARK    4  A    between atoms: C_10  and  N_6 
REMARK    5  A    between atoms: C_17  and  C_10 
ROOT
ATOM      1  C   UNL d   1       2.513  -1.710   0.000  0.00  0.00     0.083 A 
ATOM      2  C   UNL d   1       1.797  -0.466   0.000  0.00  0.00     0.105 A 
ATOM      3  C   UNL d   1       2.513  -0.878   0.000  0.00  0.00     0.018 A 
ATOM      4  C   UNL d   1       1.797  -2.122   0.000  0.00  0.00     0.062 A 
ATOM      5  C   UNL d   1       1.086  -0.878   0.000  0.00  0.00     0.014 A 
ATOM      6  C   UNL d   1       1.086  -1.710   0.000  0.00  0.00     0.012 A 
ATOM      7 CL   UNL d   1       1.797  -2.946   0.000  0.00  0.00    -0.082 Cl
ENDROOT
BRANCH   2   8
ATOM      8  S   UNL d   1       1.789   0.358   0.000  0.00  0.00     0.285 S 
ATOM      9  O   UNL d   1       1.789   1.173   0.000  0.00  0.00    -0.198 OA
ATOM     10  O   UNL d   1       0.974   0.358   0.000  0.00  0.00    -0.198 OA
BRANCH   8  11
ATOM     11  N   UNL d   1       2.613   0.362   0.000  0.00  0.00    -0.155 NA
BRANCH  11  12
ATOM     12  C   UNL d   1       3.025   1.082   0.000  0.00  0.00     0.137 C 
BRANCH  12  13
ATOM     13  C   UNL d   1       3.849   1.082   0.000  0.00  0.00     0.120 A 
ATOM     14  O   UNL d   1       4.348   0.420   0.000  0.00  0.00    -0.304 OA
ATOM     15  C   UNL d   1       5.122   0.686   0.000  0.00  0.00     0.123 A 
ATOM     16  C   UNL d   1       5.117   1.506   0.000  0.00  0.00     0.029 A 
ATOM     17  C   UNL d   1       4.331   1.756   0.000  0.00  0.00     0.028 A 
ENDBRANCH  12  13
ENDBRANCH  11  12
ENDBRANCH   8  11
ENDBRANCH   2   8
BRANCH   1  18
ATOM     18  C   UNL d   1       3.224  -2.122   0.000  0.00  0.00     0.420 C 
ATOM     19  F   UNL d   1       4.032  -1.814   0.000  0.00  0.00    -0.166 F 
ATOM     20  F   UNL d   1       3.882  -2.501   0.000  0.00  0.00    -0.166 F 
ATOM     21  F   UNL d   1       3.362  -2.971   0.000  0.00  0.00    -0.166 F 
ENDBRANCH   1  18
TORSDOF 5
