REMARK  5 active torsions:
REMARK  status: ('A' for Active; 'I' for Inactive)
REMARK    1  A    between atoms: C_4  and  S_1 
REMARK    2  A    between atoms: N_5  and  S_1 
REMARK    3  A    between atoms: C_2  and  C_9 
REMARK       I    between atoms: N_3  and  C_2 
REMARK    4  A    between atoms: C_14  and  N_5 
REMARK    5  A    between atoms: C_15  and  C_14 
ROOT
ATOM      1  C   UNL d   1       0.615  -0.490   0.000  0.00  0.00     0.057 A 
ATOM      2  C   UNL d   1       0.523  -1.313   0.000  0.00  0.00     0.005 A 
ATOM      3  C   UNL d   1      -0.050  -0.004   0.000  0.00  0.00     0.005 A 
ATOM      4  C   UNL d   1      -0.893  -1.151   0.000  0.00  0.00     0.020 A 
ATOM      5  C   UNL d   1      -0.224  -1.645   0.000  0.00  0.00     0.002 A 
ATOM      6  C   UNL d   1      -0.806  -0.337   0.000  0.00  0.00     0.002 A 
ENDROOT
BRANCH   4   7
ATOM      7  C   UNL d   1      -1.653  -1.487   0.000  0.00  0.00     0.112 C 
BRANCH   7   8
ATOM      8  N   UNL d   1      -1.740  -2.310   0.000  0.00  0.00    -0.157 NA
BRANCH   8   9
ATOM      9  S   UNL d   1      -2.501  -2.646   0.000  0.00  0.00     0.285 S 
ATOM     10  O   UNL d   1      -2.164  -3.406   0.000  0.00  0.00    -0.198 OA
ATOM     11  O   UNL d   1      -2.837  -1.886   0.000  0.00  0.00    -0.198 OA
BRANCH   9  12
ATOM     12  C   UNL d   1      -3.261  -2.983   0.000  0.00  0.00     0.106 A 
ATOM     13  C   UNL d   1      -3.921  -2.497   0.000  0.00  0.00     0.024 A 
ATOM     14  C   UNL d   1      -4.682  -2.821   0.000  0.00  0.00     0.059 A 
ATOM     15 CL   UNL d   1      -5.346  -2.335   0.000  0.00  0.00    -0.082 Cl
ATOM     16  C   UNL d   1      -4.769  -3.639   0.000  0.00  0.00     0.011 A 
ATOM     17  C   UNL d   1      -4.108  -4.117   0.000  0.00  0.00     0.002 A 
ATOM     18  C   UNL d   1      -3.352  -3.793   0.000  0.00  0.00     0.013 A 
ENDBRANCH   9  12
ENDBRANCH   8   9
ENDBRANCH   7   8
ENDBRANCH   4   7
BRANCH   1  19
ATOM     19  C   UNL d   1       1.375  -0.149   0.000  0.00  0.00     0.265 C 
ATOM     20  N   UNL d   1       2.048  -0.636   0.000  0.00  0.00    -0.272 N 
ATOM     21  C   UNL d   1       2.048  -1.458   0.000  0.00  0.00     0.083 A 
ATOM     22  C   UNL d   1       2.833  -0.378   0.000  0.00  0.00     0.083 A 
ATOM     23  C   UNL d   1       2.833  -1.712   0.000  0.00  0.00     0.021 A 
ATOM     24  C   UNL d   1       3.315  -1.051   0.000  0.00  0.00     0.021 A 
ATOM     25  O   UNL d   1       1.462   0.681   0.000  0.00  0.00    -0.267 OA
ENDBRANCH   1  19
TORSDOF 5
