REMARK  3 active torsions:
REMARK  status: ('A' for Active; 'I' for Inactive)
REMARK    1  A    between atoms: S_9  and  C_2 
REMARK    2  A    between atoms: C_8  and  C_3 
REMARK    3  A    between atoms: C_10  and  S_9 
ROOT
ATOM      1  N   UNL d   1       1.488   0.283   0.000  0.00  0.00    -0.195 NA
ATOM      2  C   UNL d   1       2.311   0.307   0.000  0.00  0.00     0.086 C 
ATOM      3  C   UNL d   1       3.134   0.324   0.000  0.00  0.00     0.169 C 
ENDROOT
BRANCH   3   4
ATOM      4  S   UNL d   1       3.520   1.043   0.000  0.00  0.00    -0.072 SA
BRANCH   4   5
ATOM      5  C   UNL d   1       3.096   1.746   0.000  0.00  0.00     0.137 A 
ATOM      6  N   UNL d   1       3.408   2.514   0.000  0.00  0.00    -0.232 NA
ATOM      7  C   UNL d   1       2.785   3.042   0.000  0.00  0.00     0.089 A 
ATOM      8  C   UNL d   1       2.087   2.614   0.000  0.00  0.00     0.057 A 
ATOM      9  S   UNL d   1       2.273   1.816   0.000  0.00  0.00    -0.060 SA
BRANCH   7  10
ATOM     10  C   UNL d   1       2.847   3.865   0.000  0.00  0.00     0.018 A 
ATOM     11  C   UNL d   1       3.595   4.206   0.000  0.00  0.00     0.002 A 
ATOM     12  C   UNL d   1       3.658   5.029   0.000  0.00  0.00     0.000 A 
ATOM     13  C   UNL d   1       2.980   5.503   0.000  0.00  0.00     0.000 A 
ATOM     14  C   UNL d   1       2.232   5.141   0.000  0.00  0.00     0.000 A 
ATOM     15  C   UNL d   1       2.174   4.318   0.000  0.00  0.00     0.002 A 
ENDBRANCH   7  10
ENDBRANCH   4   5
ENDBRANCH   3   4
TORSDOF 3
