REMARK  7 active torsions:
REMARK  status: ('A' for Active; 'I' for Inactive)
REMARK    1  A    between atoms: C_2  and  S_1 
REMARK    2  A    between atoms: N_3  and  S_1 
REMARK    3  A    between atoms: C_11  and  N_3 
REMARK    4  A    between atoms: C_4  and  C_7 
REMARK       I    between atoms: N_12  and  C_4 
REMARK    5  A    between atoms: C_22  and  N_12 
REMARK    6  A    between atoms: O_20  and  C_24 
REMARK    7  A    between atoms: C_24  and  C_22 
ROOT
ATOM      1  C   UNL d   1       3.721  -3.784   0.000  0.00  0.00     0.058 A 
ATOM      2  C   UNL d   1       4.885  -4.948   0.000  0.00  0.00     0.094 A 
ATOM      3  C   UNL d   1       4.518  -3.570   0.000  0.00  0.00     0.006 A 
ATOM      4  C   UNL d   1       3.506  -4.581   0.000  0.00  0.00     0.006 A 
ATOM      5  C   UNL d   1       5.099  -4.151   0.000  0.00  0.00     0.020 A 
ATOM      6  C   UNL d   1       4.088  -5.163   0.000  0.00  0.00     0.020 A 
ENDROOT
BRANCH   2   7
ATOM      7  N   UNL d   1       5.466  -5.529   0.000  0.00  0.00    -0.158 NA
BRANCH   7   8
ATOM      8  S   UNL d   1       6.263  -5.314   0.000  0.00  0.00     0.285 S 
ATOM      9  O   UNL d   1       6.048  -4.518   0.000  0.00  0.00    -0.198 OA
ATOM     10  O   UNL d   1       6.473  -6.111   0.000  0.00  0.00    -0.198 OA
BRANCH   8  11
ATOM     11  C   UNL d   1       7.059  -5.108   0.000  0.00  0.00     0.105 A 
ATOM     12  C   UNL d   1       7.641  -5.689   0.000  0.00  0.00     0.012 A 
ATOM     13  C   UNL d   1       8.437  -5.474   0.000  0.00  0.00     0.001 A 
ATOM     14  C   UNL d   1       7.413  -6.490   0.000  0.00  0.00     0.001 C 
ATOM     15  C   UNL d   1       8.652  -4.682   0.000  0.00  0.00     0.000 A 
ATOM     16  C   UNL d   1       8.070  -4.096   0.000  0.00  0.00     0.001 A 
ATOM     17  C   UNL d   1       7.274  -4.303   0.000  0.00  0.00     0.013 A 
ATOM     18  C   UNL d   1       8.294  -3.291   0.000  0.00  0.00     0.000 C 
ENDBRANCH   8  11
ENDBRANCH   7   8
ENDBRANCH   2   7
BRANCH   1  19
ATOM     19  C   UNL d   1       3.127  -3.199   0.000  0.00  0.00     0.279 C 
ATOM     20  O   UNL d   1       2.331  -3.414   0.000  0.00  0.00    -0.265 OA
ATOM     21  N   UNL d   1       3.342  -2.406   0.000  0.00  0.00    -0.204 NA
BRANCH  21  22
ATOM     22  C   UNL d   1       2.756  -1.825   0.000  0.00  0.00     0.128 C 
BRANCH  22  23
ATOM     23  C   UNL d   1       1.960  -2.040   0.000  0.00  0.00     0.137 C 
BRANCH  23  24
ATOM     24  O   UNL d   1       1.365  -1.446   0.000  0.00  0.00    -0.325 OA
ATOM     25  C   UNL d   1       0.573  -1.661   0.000  0.00  0.00     0.182 C 
ENDBRANCH  23  24
ENDBRANCH  22  23
ENDBRANCH  21  22
ENDBRANCH   1  19
TORSDOF 7
