REMARK  3 active torsions:
REMARK  status: ('A' for Active; 'I' for Inactive)
REMARK    1  A    between atoms: N_2  and  S_1 
REMARK    2  A    between atoms: C_3  and  S_1 
REMARK    3  A    between atoms: C_10  and  C_9 
ROOT
ATOM      1  C   UNL d   1       2.562   0.688   0.000  0.00  0.00     0.104 A 
ATOM      2  C   UNL d   1       2.562  -0.967   0.000  0.00  0.00     0.000 A 
ATOM      3  C   UNL d   1       1.850   0.275   0.000  0.00  0.00     0.013 A 
ATOM      4  C   UNL d   1       3.279   0.275   0.000  0.00  0.00     0.013 A 
ATOM      5  C   UNL d   1       3.279  -0.554   0.000  0.00  0.00     0.001 A 
ATOM      6  C   UNL d   1       1.850  -0.554   0.000  0.00  0.00     0.001 A 
ENDROOT
BRANCH   1   7
ATOM      7  S   UNL d   1       2.554   1.512   0.000  0.00  0.00     0.271 S 
ATOM      8  O   UNL d   1       1.738   1.512   0.000  0.00  0.00    -0.200 OA
ATOM      9  O   UNL d   1       2.554   2.333   0.000  0.00  0.00    -0.200 OA
BRANCH   7  10
ATOM     10  N   UNL d   1       3.379   1.521   0.000  0.00  0.00    -0.226 N 
ATOM     11  C   UNL d   1       3.792   0.800   0.000  0.00  0.00     0.111 A 
ATOM     12  C   UNL d   1       4.617   0.808   0.000  0.00  0.00     0.100 A 
ATOM     13  N   UNL d   1       5.017   1.525   0.000  0.00  0.00    -0.299 N 
ATOM     14  C   UNL d   1       4.612   2.237   0.000  0.00  0.00     0.100 A 
ATOM     15  C   UNL d   1       5.850   1.525   0.000  0.00  0.00     0.100 C 
ATOM     16  C   UNL d   1       3.788   2.233   0.000  0.00  0.00     0.111 A 
ENDBRANCH   7  10
ENDBRANCH   1   7
BRANCH   2  17
ATOM     17  C   UNL d   1       2.554  -1.788   0.000  0.00  0.00     0.000 A 
ATOM     18  C   UNL d   1       1.842  -2.200   0.000  0.00  0.00     0.001 A 
ATOM     19  C   UNL d   1       1.842  -3.025   0.000  0.00  0.00     0.011 A 
ATOM     20  C   UNL d   1       2.554  -3.438   0.000  0.00  0.00     0.058 A 
ATOM     21  C   UNL d   1       3.275  -3.017   0.000  0.00  0.00     0.011 A 
ATOM     22 CL   UNL d   1       2.554  -4.254   0.000  0.00  0.00    -0.082 Cl
ATOM     23  C   UNL d   1       3.267  -2.200   0.000  0.00  0.00     0.001 A 
ENDBRANCH   2  17
TORSDOF 3
