REMARK  6 active torsions:
REMARK  status: ('A' for Active; 'I' for Inactive)
REMARK    1  A    between atoms: N_5  and  S_1 
REMARK    2  A    between atoms: C_6  and  S_1 
REMARK    3  A    between atoms: C_2  and  C_11 
REMARK    4  A    between atoms: C_9  and  N_5 
REMARK    5  A    between atoms: C_10  and  C_9 
REMARK       I    between atoms: N_15  and  C_10 
REMARK    6  A    between atoms: C_19  and  N_15 
ROOT
ATOM      1  C   UNL d   1       4.104  -1.025   0.000  0.00  0.00     0.024 A 
ATOM      2  C   UNL d   1       4.491  -1.754   0.000  0.00  0.00     0.004 A 
ATOM      3  C   UNL d   1       4.541  -0.329   0.000  0.00  0.00     0.004 A 
ATOM      4  C   UNL d   1       5.762  -1.087   0.000  0.00  0.00     0.085 A 
ATOM      5  C   UNL d   1       5.374  -0.362   0.000  0.00  0.00     0.019 A 
ATOM      6  C   UNL d   1       5.316  -1.792   0.000  0.00  0.00     0.019 A 
ENDROOT
BRANCH   4   7
ATOM      7  N   UNL d   1       6.587  -1.104   0.000  0.00  0.00    -0.207 NA
ATOM      8  C   UNL d   1       6.978  -1.825   0.000  0.00  0.00     0.299 C 
ATOM      9  O   UNL d   1       6.553  -2.529   0.000  0.00  0.00    -0.263 OA
BRANCH   8  10
ATOM     10  C   UNL d   1       7.812  -1.841   0.000  0.00  0.00     0.174 C 
BRANCH  10  11
ATOM     11  N   UNL d   1       8.237  -1.137   0.000  0.00  0.00    -0.152 NA
BRANCH  11  12
ATOM     12  S   UNL d   1       9.062  -1.154   0.000  0.00  0.00     0.285 S 
ATOM     13  O   UNL d   1       9.041  -1.979   0.000  0.00  0.00    -0.198 OA
ATOM     14  O   UNL d   1       9.074  -0.329   0.000  0.00  0.00    -0.198 OA
BRANCH  12  15
ATOM     15  C   UNL d   1       9.878  -1.167   0.000  0.00  0.00     0.106 A 
ATOM     16  C   UNL d   1      10.278  -1.891   0.000  0.00  0.00     0.024 A 
ATOM     17  C   UNL d   1      11.103  -1.904   0.000  0.00  0.00     0.059 A 
ATOM     18 CL   UNL d   1      11.515  -2.637   0.000  0.00  0.00    -0.082 Cl
ATOM     19  C   UNL d   1      11.536  -1.204   0.000  0.00  0.00     0.011 A 
ATOM     20  C   UNL d   1      11.136  -0.479   0.000  0.00  0.00     0.002 A 
ATOM     21  C   UNL d   1      10.303  -0.467   0.000  0.00  0.00     0.013 A 
ENDBRANCH  12  15
ENDBRANCH  11  12
ENDBRANCH  10  11
ENDBRANCH   8  10
ENDBRANCH   4   7
BRANCH   1  22
ATOM     22  C   UNL d   1       3.275  -0.979   0.000  0.00  0.00     0.111 A 
ATOM     23  N   UNL d   1       2.791  -1.641   0.000  0.00  0.00    -0.239 NA
ATOM     24  C   UNL d   1       2.004  -1.391   0.000  0.00  0.00     0.088 A 
ATOM     25  C   UNL d   1       1.292  -1.804   0.000  0.00  0.00     0.020 A 
ATOM     26  C   UNL d   1       2.004  -0.567   0.000  0.00  0.00     0.049 A 
ATOM     27  C   UNL d   1       0.579  -1.391   0.000  0.00  0.00     0.002 A 
ATOM     28  C   UNL d   1       0.579  -0.567   0.000  0.00  0.00     0.001 A 
ATOM     29  C   UNL d   1       1.292  -0.154   0.000  0.00  0.00     0.008 A 
ATOM     30  S   UNL d   1       2.791  -0.312   0.000  0.00  0.00    -0.066 SA
ENDBRANCH   1  22
TORSDOF 6
