REMARK  3 active torsions:
REMARK  status: ('A' for Active; 'I' for Inactive)
REMARK    1  A    between atoms: S_2  and  N_1 
REMARK    2  A    between atoms: C_7  and  S_2 
REMARK    3  A    between atoms: C_14  and  C_6 
ROOT
ATOM      1  S   UNL d   1       2.177   1.372   0.000  0.00  0.00     0.273 S 
ATOM      2  O   UNL d   1       1.401   1.439   0.000  0.00  0.00    -0.200 OA
ATOM      3  O   UNL d   1       2.903   1.502   0.000  0.00  0.00    -0.200 OA
ENDROOT
BRANCH   1   4
ATOM      4  N   UNL d   1       2.244   2.115   0.000  0.00  0.00    -0.202 N 
ATOM      5  C   UNL d   1       2.895   2.498   0.000  0.00  0.00     0.218 A 
ATOM      6  N   UNL d   1       2.728   3.237   0.000  0.00  0.00    -0.178 NA
ATOM      7  S   UNL d   1       3.529   2.086   0.000  0.00  0.00    -0.037 SA
ATOM      8  C   UNL d   1       1.981   3.299   0.000  0.00  0.00     0.298 A 
ATOM      9  C   UNL d   1       1.681   2.611   0.000  0.00  0.00     0.135 A 
ATOM     10  O   UNL d   1       1.627   3.962   0.000  0.00  0.00    -0.264 OA
BRANCH   9  11
ATOM     11  C   UNL d   1       0.951   2.440   0.000  0.00  0.00     0.022 C 
ATOM     12  C   UNL d   1       0.442   2.991   0.000  0.00  0.00     0.002 C 
ATOM     13  C   UNL d   1       0.730   1.723   0.000  0.00  0.00     0.002 C 
ENDBRANCH   9  11
ENDBRANCH   1   4
BRANCH   1  14
ATOM     14  C   UNL d   1       2.177   0.546   0.000  0.00  0.00     0.104 A 
ATOM     15  C   UNL d   1       1.464   0.125   0.000  0.00  0.00     0.012 A 
ATOM     16  C   UNL d   1       1.464  -0.701   0.000  0.00  0.00     0.001 A 
ATOM     17  C   UNL d   1       0.743   0.559   0.000  0.00  0.00     0.001 C 
ATOM     18  C   UNL d   1       2.177  -1.114   0.000  0.00  0.00     0.000 A 
ATOM     19  C   UNL d   1       2.895  -0.701   0.000  0.00  0.00     0.001 A 
ATOM     20  C   UNL d   1       2.895   0.133   0.000  0.00  0.00     0.013 A 
ATOM     21  C   UNL d   1       3.616  -1.118   0.000  0.00  0.00     0.000 C 
ENDBRANCH   1  14
TORSDOF 3
