REMARK  4 active torsions:
REMARK  status: ('A' for Active; 'I' for Inactive)
REMARK    1  A    between atoms: C_2  and  S_1 
REMARK    2  A    between atoms: N_3  and  S_1 
REMARK    3  A    between atoms: C_6  and  N_3 
REMARK    4  A    between atoms: C_4  and  C_6 
REMARK       I    between atoms: N_5  and  C_4 
ROOT
ATOM      1  S   UNL d   1       2.854   1.825   0.000  0.00  0.00     0.287 S 
ATOM      2  O   UNL d   1       3.650   1.564   0.000  0.00  0.00    -0.198 OA
ATOM      3  O   UNL d   1       2.057   2.099   0.000  0.00  0.00    -0.198 OA
ENDROOT
BRANCH   1   4
ATOM      4  C   UNL d   1       3.123   2.634   0.000  0.00  0.00     0.126 A 
ATOM      5  C   UNL d   1       3.936   2.800   0.000  0.00  0.00     0.071 A 
ATOM      6 CL   UNL d   1       4.509   2.178   0.000  0.00  0.00    -0.082 Cl
ATOM      7  C   UNL d   1       4.197   3.592   0.000  0.00  0.00     0.012 A 
ATOM      8  C   UNL d   1       3.638   4.197   0.000  0.00  0.00     0.002 A 
ATOM      9  C   UNL d   1       2.825   4.023   0.000  0.00  0.00     0.012 A 
ATOM     10  C   UNL d   1       2.567   3.244   0.000  0.00  0.00     0.071 A 
ATOM     11 CL   UNL d   1       1.759   3.069   0.000  0.00  0.00    -0.082 Cl
ENDBRANCH   1   4
BRANCH   1  12
ATOM     12  N   UNL d   1       2.588   1.029   0.000  0.00  0.00    -0.152 NA
BRANCH  12  13
ATOM     13  C   UNL d   1       1.767   0.867   0.000  0.00  0.00     0.173 C 
BRANCH  13  14
ATOM     14  C   UNL d   1       1.506   0.075   0.000  0.00  0.00     0.285 C 
ATOM     15  N   UNL d   1       2.045  -0.552   0.000  0.00  0.00    -0.271 N 
ATOM     16  C   UNL d   1       2.841  -0.340   0.000  0.00  0.00     0.083 A 
ATOM     17  C   UNL d   1       1.717  -1.298   0.000  0.00  0.00     0.083 A 
ATOM     18  C   UNL d   1       3.497  -0.834   0.000  0.00  0.00     0.019 A 
ATOM     19  C   UNL d   1       3.521  -1.655   0.000  0.00  0.00     0.002 A 
ATOM     20  C   UNL d   1       2.912  -2.182   0.000  0.00  0.00     0.002 A 
ATOM     21  C   UNL d   1       2.103  -2.028   0.000  0.00  0.00     0.019 A 
ATOM     22  O   UNL d   1       0.863  -0.029   0.000  0.00  0.00    -0.265 OA
ENDBRANCH  13  14
ENDBRANCH  12  13
ENDBRANCH   1  12
TORSDOF 4
