REMARK  4 active torsions:
REMARK  status: ('A' for Active; 'I' for Inactive)
REMARK    1  A    between atoms: N_6  and  S_1 
REMARK    2  A    between atoms: C_7  and  S_1 
REMARK    3  A    between atoms: C_13  and  N_6 
REMARK    4  A    between atoms: O_18  and  C_15 
ROOT
ATOM      1  S   UNL d   1       1.917   0.408   0.000  0.00  0.00     0.285 S 
ATOM      2  O   UNL d   1       1.100   0.408   0.000  0.00  0.00    -0.198 OA
ATOM      3  O   UNL d   1       1.917   1.233   0.000  0.00  0.00    -0.198 OA
ENDROOT
BRANCH   1   4
ATOM      4  N   UNL d   1       2.742   0.412   0.000  0.00  0.00    -0.158 NA
BRANCH   4   5
ATOM      5  C   UNL d   1       3.154   1.133   0.000  0.00  0.00     0.095 A 
ATOM      6  C   UNL d   1       3.979   1.133   0.000  0.00  0.00     0.040 A 
ATOM      7  C   UNL d   1       4.379   1.850   0.000  0.00  0.00     0.089 A 
ATOM      8  N   UNL d   1       5.192   2.021   0.000  0.00  0.00    -0.238 NA
ATOM      9  C   UNL d   1       3.975   2.562   0.000  0.00  0.00     0.049 A 
ATOM     10  C   UNL d   1       5.279   2.837   0.000  0.00  0.00     0.111 A 
ATOM     11  C   UNL d   1       6.000   3.258   0.000  0.00  0.00     0.028 C 
ATOM     12  S   UNL d   1       4.525   3.175   0.000  0.00  0.00    -0.066 SA
ATOM     13  C   UNL d   1       3.142   2.558   0.000  0.00  0.00     0.010 A 
ATOM     14  C   UNL d   1       2.737   1.837   0.000  0.00  0.00     0.021 A 
ENDBRANCH   4   5
ENDBRANCH   1   4
BRANCH   1  15
ATOM     15  C   UNL d   1       1.925  -0.417   0.000  0.00  0.00     0.107 A 
ATOM     16  C   UNL d   1       2.642  -0.829   0.000  0.00  0.00     0.037 A 
ATOM     17  C   UNL d   1       2.642  -1.654   0.000  0.00  0.00     0.095 A 
ATOM     18  C   UNL d   1       1.925  -2.067   0.000  0.00  0.00     0.024 A 
ATOM     19  C   UNL d   1       1.212  -1.654   0.000  0.00  0.00     0.003 A 
ATOM     20  C   UNL d   1       1.212  -0.829   0.000  0.00  0.00     0.013 A 
BRANCH  17  21
ATOM     21  O   UNL d   1       3.354  -2.067   0.000  0.00  0.00    -0.328 OA
ATOM     22  C   UNL d   1       3.354  -2.892   0.000  0.00  0.00     0.181 C 
ENDBRANCH  17  21
ENDBRANCH   1  15
TORSDOF 4
