REMARK  6 active torsions:
REMARK  status: ('A' for Active; 'I' for Inactive)
REMARK    1  A    between atoms: N_10  and  C_2 
REMARK    2  A    between atoms: C_13  and  C_3 
REMARK    3  A    between atoms: C_6  and  S_15 
REMARK       I    between atoms: C_12  and  N_10 
REMARK    4  A    between atoms: C_14  and  C_12 
REMARK    5  A    between atoms: C_17  and  C_14 
REMARK    6  A    between atoms: S_15  and  C_17 
ROOT
ATOM      1  N   UNL d   1       0.991  -0.341   0.000  0.00  0.00    -0.181 NA
ATOM      2  C   UNL d   1       1.028   0.483   0.000  0.00  0.00     0.282 C 
ATOM      3  O   UNL d   1       1.761   0.870   0.000  0.00  0.00    -0.265 OA
ENDROOT
BRANCH   1   4
ATOM      4  C   UNL d   1       1.690  -0.799   0.000  0.00  0.00     0.216 A 
ATOM      5  N   UNL d   1       2.460  -0.504   0.000  0.00  0.00    -0.200 NA
ATOM      6  C   UNL d   1       2.972  -1.149   0.000  0.00  0.00     0.172 A 
ATOM      7  N   UNL d   1       2.514  -1.827   0.000  0.00  0.00    -0.187 NA
ATOM      8  S   UNL d   1       1.727  -1.611   0.000  0.00  0.00     0.054 SA
BRANCH   6   9
ATOM      9  C   UNL d   1       3.800  -1.149   0.000  0.00  0.00     0.036 A 
ATOM     10  C   UNL d   1       4.212  -0.437   0.000  0.00  0.00     0.003 A 
ATOM     11  C   UNL d   1       5.037  -0.437   0.000  0.00  0.00     0.000 A 
ATOM     12  C   UNL d   1       5.449  -1.149   0.000  0.00  0.00     0.000 A 
ATOM     13  C   UNL d   1       5.037  -1.865   0.000  0.00  0.00     0.000 A 
ATOM     14  C   UNL d   1       4.212  -1.865   0.000  0.00  0.00     0.003 A 
ENDBRANCH   6   9
ENDBRANCH   1   4
BRANCH   2  15
ATOM     15  C   UNL d   1       0.329   0.932   0.000  0.00  0.00     0.070 C 
BRANCH  15  16
ATOM     16  C   UNL d   1       0.366   1.756   0.000  0.00  0.00     0.042 C 
BRANCH  16  17
ATOM     17  S   UNL d   1      -0.333   2.193   0.000  0.00  0.00    -0.059 SA
BRANCH  17  18
ATOM     18  C   UNL d   1      -0.300   3.018   0.000  0.00  0.00     0.164 A 
ATOM     19  S   UNL d   1       0.329   3.555   0.000  0.00  0.00    -0.039 SA
ATOM     20  C   UNL d   1       0.013   4.312   0.000  0.00  0.00     0.134 A 
ATOM     21  C   UNL d   1       0.450   5.024   0.000  0.00  0.00     0.030 C 
ATOM     22  N   UNL d   1      -0.807   4.250   0.000  0.00  0.00    -0.140 NA
ATOM     23  N   UNL d   1      -0.999   3.455   0.000  0.00  0.00    -0.134 NA
ENDBRANCH  17  18
ENDBRANCH  16  17
ENDBRANCH  15  16
ENDBRANCH   2  15
TORSDOF 6
