REMARK  5 active torsions:
REMARK  status: ('A' for Active; 'I' for Inactive)
REMARK    1  A    between atoms: N_4  and  S_1 
REMARK    2  A    between atoms: C_5  and  S_1 
REMARK       I    between atoms: N_2  and  C_3 
REMARK    3  A    between atoms: C_3  and  C_11 
REMARK    4  A    between atoms: C_21  and  N_4 
REMARK    5  A    between atoms: C_12  and  C_13 
ROOT
ATOM      1  C   UNL d   1       0.609  -0.042   0.000  0.00  0.00     0.057 A 
ATOM      2  C   UNL d   1      -1.003  -0.382   0.000  0.00  0.00     0.094 A 
ATOM      3  C   UNL d   1       0.357  -0.823   0.000  0.00  0.00     0.006 A 
ATOM      4  C   UNL d   1       0.055   0.575   0.000  0.00  0.00     0.006 A 
ATOM      5  C   UNL d   1      -0.449  -0.999   0.000  0.00  0.00     0.020 A 
ATOM      6  C   UNL d   1      -0.751   0.399   0.000  0.00  0.00     0.020 A 
ENDROOT
BRANCH   2   7
ATOM      7  N   UNL d   1      -1.809  -0.558   0.000  0.00  0.00    -0.158 NA
BRANCH   7   8
ATOM      8  S   UNL d   1      -2.065  -1.347   0.000  0.00  0.00     0.285 S 
ATOM      9  O   UNL d   1      -1.280  -1.603   0.000  0.00  0.00    -0.198 OA
ATOM     10  O   UNL d   1      -2.854  -1.087   0.000  0.00  0.00    -0.198 OA
BRANCH   8  11
ATOM     11  C   UNL d   1      -2.325  -2.141   0.000  0.00  0.00     0.105 A 
ATOM     12  C   UNL d   1      -1.771  -2.749   0.000  0.00  0.00     0.013 A 
ATOM     13  C   UNL d   1      -2.023  -3.530   0.000  0.00  0.00    -0.004 A 
ATOM     14  C   UNL d   1      -2.829  -3.707   0.000  0.00  0.00    -0.023 A 
ATOM     15  C   UNL d   1      -3.375  -3.090   0.000  0.00  0.00    -0.004 A 
ATOM     16  C   UNL d   1      -3.131  -2.309   0.000  0.00  0.00     0.013 A 
BRANCH  14  17
ATOM     17  C   UNL d   1      -3.098  -4.496   0.000  0.00  0.00     0.019 C 
ATOM     18  C   UNL d   1      -3.362  -5.281   0.000  0.00  0.00     0.004 C 
ATOM     19  C   UNL d   1      -2.313  -4.764   0.000  0.00  0.00     0.004 C 
ATOM     20  C   UNL d   1      -3.879  -4.223   0.000  0.00  0.00     0.004 C 
ENDBRANCH  14  17
ENDBRANCH   8  11
ENDBRANCH   7   8
ENDBRANCH   2   7
BRANCH   1  21
ATOM     21  C   UNL d   1       1.415   0.134   0.000  0.00  0.00     0.265 C 
ATOM     22  N   UNL d   1       1.969  -0.491   0.000  0.00  0.00    -0.268 N 
ATOM     23  C   UNL d   1       1.713  -1.276   0.000  0.00  0.00     0.108 A 
ATOM     24  C   UNL d   1       2.775  -0.315   0.000  0.00  0.00     0.108 A 
ATOM     25  C   UNL d   1       2.271  -1.893   0.000  0.00  0.00     0.118 A 
ATOM     26  C   UNL d   1       2.015  -2.682   0.000  0.00  0.00     0.028 C 
ATOM     27  O   UNL d   1       3.077  -1.717   0.000  0.00  0.00    -0.304 OA
ATOM     28  C   UNL d   1       3.337  -0.932   0.000  0.00  0.00     0.118 A 
ATOM     29  C   UNL d   1       4.147  -0.760   0.000  0.00  0.00     0.028 C 
ATOM     30  O   UNL d   1       1.667   0.915   0.000  0.00  0.00    -0.267 OA
ENDBRANCH   1  21
TORSDOF 5
