REMARK  7 active torsions:
REMARK  status: ('A' for Active; 'I' for Inactive)
REMARK    1  A    between atoms: C_21  and  C_3 
REMARK    2  A    between atoms: S_17  and  C_5 
REMARK    3  A    between atoms: C_11  and  C_16 
REMARK       I    between atoms: N_14  and  C_11 
REMARK    4  A    between atoms: C_19  and  N_14 
REMARK    5  A    between atoms: C_16  and  C_20 
REMARK    6  A    between atoms: C_20  and  S_17 
REMARK    7  A    between atoms: O_27  and  C_22 
ROOT
ATOM      1  C   UNL d   1       1.140  -1.373   0.000  0.00  0.00     0.092 A 
ATOM      2  C   UNL d   1       2.571  -1.373   0.000  0.00  0.00     0.057 A 
ATOM      3  C   UNL d   1       1.859  -1.784   0.000  0.00  0.00     0.016 A 
ATOM      4  N   UNL d   1       1.859  -0.137   0.000  0.00  0.00    -0.239 NA
ATOM      5  C   UNL d   1       1.140  -0.549   0.000  0.00  0.00     0.120 A 
ATOM      6  C   UNL d   1       2.571  -0.549   0.000  0.00  0.00     0.081 A 
ATOM      7  C   UNL d   1       3.282  -1.784   0.000  0.00  0.00     0.193 A 
ATOM      8  C   UNL d   1       0.424  -1.789   0.000  0.00  0.00     0.103 C 
ATOM      9  N   UNL d   1      -0.295  -2.213   0.000  0.00  0.00    -0.191 NA
ATOM     10  C   UNL d   1       3.997  -0.549   0.000  0.00  0.00     0.042 A 
ATOM     11  C   UNL d   1       3.997  -1.373   0.000  0.00  0.00     0.019 A 
ATOM     12  C   UNL d   1       3.282  -0.137   0.000  0.00  0.00    -0.003 A 
ATOM     13  O   UNL d   1       3.282  -2.608   0.000  0.00  0.00    -0.287 OA
ATOM     14  C   UNL d   1       4.280   0.233   0.000  0.00  0.00     0.009 C 
ATOM     15  C   UNL d   1       4.717  -0.953   0.000  0.00  0.00     0.009 C 
ENDROOT
BRANCH   3  16
ATOM     16  C   UNL d   1       1.859  -2.608   0.000  0.00  0.00     0.001 C 
ATOM     17  C   UNL d   1       2.571  -3.020   0.000  0.00  0.00     0.000 C 
ENDBRANCH   3  16
BRANCH   5  18
ATOM     18  S   UNL d   1       0.424  -0.137   0.000  0.00  0.00    -0.067 SA
BRANCH  18  19
ATOM     19  C   UNL d   1      -0.287  -0.553   0.000  0.00  0.00     0.042 C 
BRANCH  19  20
ATOM     20  C   UNL d   1      -1.007  -0.141   0.000  0.00  0.00     0.070 C 
BRANCH  20  21
ATOM     21  C   UNL d   1      -1.722  -0.566   0.000  0.00  0.00     0.280 C 
ATOM     22  N   UNL d   1      -2.442  -0.154   0.000  0.00  0.00    -0.208 NA
ATOM     23  O   UNL d   1      -1.718  -1.389   0.000  0.00  0.00    -0.265 OA
BRANCH  22  24
ATOM     24  C   UNL d   1      -3.157  -0.578   0.000  0.00  0.00     0.085 A 
ATOM     25  C   UNL d   1      -3.153  -1.402   0.000  0.00  0.00     0.021 A 
ATOM     26  C   UNL d   1      -3.864  -1.814   0.000  0.00  0.00     0.026 A 
ATOM     27  C   UNL d   1      -4.588  -1.414   0.000  0.00  0.00     0.094 A 
ATOM     28  C   UNL d   1      -4.592  -0.591   0.000  0.00  0.00     0.026 A 
ATOM     29  C   UNL d   1      -3.877  -0.166   0.000  0.00  0.00     0.021 A 
BRANCH  27  30
ATOM     30  O   UNL d   1      -5.312  -1.839   0.000  0.00  0.00    -0.328 OA
ATOM     31  C   UNL d   1      -6.032  -1.427   0.000  0.00  0.00     0.181 C 
ENDBRANCH  27  30
ENDBRANCH  22  24
ENDBRANCH  20  21
ENDBRANCH  19  20
ENDBRANCH  18  19
ENDBRANCH   5  18
TORSDOF 7
