REMARK  6 active torsions:
REMARK  status: ('A' for Active; 'I' for Inactive)
REMARK    1  A    between atoms: N_2  and  S_1 
REMARK    2  A    between atoms: C_3  and  S_1 
REMARK    3  A    between atoms: C_6  and  N_2 
REMARK    4  A    between atoms: C_12  and  C_6 
REMARK    5  A    between atoms: O_10  and  C_11 
REMARK    6  A    between atoms: C_15  and  O_10 
ROOT
ATOM      1  C   UNL d   1       3.912  -0.944   0.000  0.00  0.00     0.105 A 
ATOM      2  C   UNL d   1       3.900  -0.117   0.000  0.00  0.00     0.015 A 
ATOM      3  C   UNL d   1       3.194  -1.365   0.000  0.00  0.00     0.015 A 
ATOM      4  C   UNL d   1       2.480  -0.130   0.000  0.00  0.00     0.100 A 
ATOM      5  C   UNL d   1       2.480  -0.956   0.000  0.00  0.00     0.025 A 
ATOM      6  C   UNL d   1       3.186   0.288   0.000  0.00  0.00     0.025 A 
ENDROOT
BRANCH   1   7
ATOM      7  S   UNL d   1       4.626  -1.357   0.000  0.00  0.00     0.285 S 
ATOM      8  O   UNL d   1       5.035  -0.643   0.000  0.00  0.00    -0.198 OA
ATOM      9  O   UNL d   1       5.340  -1.766   0.000  0.00  0.00    -0.198 OA
BRANCH   7  10
ATOM     10  N   UNL d   1       4.213  -2.079   0.000  0.00  0.00    -0.155 NA
BRANCH  10  11
ATOM     11  C   UNL d   1       4.635  -2.793   0.000  0.00  0.00     0.137 C 
BRANCH  11  12
ATOM     12  C   UNL d   1       4.221  -3.511   0.000  0.00  0.00     0.120 A 
ATOM     13  O   UNL d   1       3.399  -3.612   0.000  0.00  0.00    -0.304 OA
ATOM     14  C   UNL d   1       3.244  -4.422   0.000  0.00  0.00     0.123 A 
ATOM     15  C   UNL d   1       3.958  -4.822   0.000  0.00  0.00     0.029 A 
ATOM     16  C   UNL d   1       4.564  -4.263   0.000  0.00  0.00     0.028 A 
ENDBRANCH  11  12
ENDBRANCH  10  11
ENDBRANCH   7  10
ENDBRANCH   1   7
BRANCH   4  17
ATOM     17  O   UNL d   1       1.758   0.284   0.000  0.00  0.00    -0.307 OA
BRANCH  17  18
ATOM     18  C   UNL d   1       1.044  -0.138   0.000  0.00  0.00     0.100 A 
ATOM     19  C   UNL d   1       1.044  -0.969   0.000  0.00  0.00     0.025 A 
ATOM     20  C   UNL d   1       0.330  -1.382   0.000  0.00  0.00     0.002 A 
ATOM     21  C   UNL d   1      -0.384  -0.969   0.000  0.00  0.00     0.000 A 
ATOM     22  C   UNL d   1      -0.384  -0.138   0.000  0.00  0.00     0.002 A 
ATOM     23  C   UNL d   1       0.330   0.276   0.000  0.00  0.00     0.025 A 
ENDBRANCH  17  18
ENDBRANCH   4  17
TORSDOF 6
