REMARK  3 active torsions:
REMARK  status: ('A' for Active; 'I' for Inactive)
REMARK    1  A    between atoms: S_11  and  C_2 
REMARK    2  A    between atoms: C_7  and  C_12 
REMARK    3  A    between atoms: C_12  and  S_11 
ROOT
ATOM      1  S   UNL d   1       0.980  -0.782   0.000  0.00  0.00    -0.058 SA
ENDROOT
BRANCH   1   2
ATOM      2  C   UNL d   1       1.647  -1.277   0.000  0.00  0.00     0.164 A 
ATOM      3  S   UNL d   1       1.643  -2.104   0.000  0.00  0.00    -0.039 SA
ATOM      4  C   UNL d   1       2.426  -2.364   0.000  0.00  0.00     0.134 A 
ATOM      5  N   UNL d   1       2.920  -1.697   0.000  0.00  0.00    -0.140 NA
ATOM      6  C   UNL d   1       2.685  -3.155   0.000  0.00  0.00     0.030 C 
ATOM      7  N   UNL d   1       2.438  -1.017   0.000  0.00  0.00    -0.134 NA
ENDBRANCH   1   2
BRANCH   1   8
ATOM      8  C   UNL d   1       1.075   0.037   0.000  0.00  0.00     0.057 C 
BRANCH   8   9
ATOM      9  C   UNL d   1       1.833   0.371   0.000  0.00  0.00     0.095 A 
ATOM     10  N   UNL d   1       2.537  -0.029   0.000  0.00  0.00    -0.238 NA
ATOM     11  C   UNL d   1       3.142   0.515   0.000  0.00  0.00     0.111 A 
ATOM     12  C   UNL d   1       3.953   0.366   0.000  0.00  0.00     0.028 C 
ATOM     13  S   UNL d   1       2.809   1.256   0.000  0.00  0.00    -0.066 SA
ATOM     14  C   UNL d   1       2.006   1.169   0.000  0.00  0.00     0.057 A 
ENDBRANCH   8   9
ENDBRANCH   1   8
TORSDOF 3
