REMARK  6 active torsions:
REMARK  status: ('A' for Active; 'I' for Inactive)
REMARK    1  A    between atoms: N_5  and  S_1 
REMARK    2  A    between atoms: C_8  and  S_1 
REMARK    3  A    between atoms: C_2  and  C_14 
REMARK    4  A    between atoms: C_7  and  N_5 
REMARK    5  A    between atoms: C_6  and  C_7 
REMARK       I    between atoms: N_11  and  C_6 
REMARK    6  A    between atoms: C_19  and  N_11 
ROOT
ATOM      1  C   UNL d   1       6.979  -1.817   0.000  0.00  0.00     0.298 C 
ATOM      2  N   UNL d   1       6.588  -1.104   0.000  0.00  0.00    -0.207 NA
ATOM      3  O   UNL d   1       6.554  -2.529   0.000  0.00  0.00    -0.264 OA
ENDROOT
BRANCH   2   4
ATOM      4  C   UNL d   1       5.763  -1.087   0.000  0.00  0.00     0.085 A 
ATOM      5  C   UNL d   1       5.375  -0.362   0.000  0.00  0.00     0.019 A 
ATOM      6  C   UNL d   1       4.542  -0.329   0.000  0.00  0.00     0.004 A 
ATOM      7  C   UNL d   1       4.104  -1.025   0.000  0.00  0.00     0.024 A 
ATOM      8  C   UNL d   1       4.492  -1.754   0.000  0.00  0.00     0.004 A 
ATOM      9  C   UNL d   1       5.317  -1.792   0.000  0.00  0.00     0.019 A 
BRANCH   7  10
ATOM     10  C   UNL d   1       3.275  -0.979   0.000  0.00  0.00     0.111 A 
ATOM     11  N   UNL d   1       2.792  -1.642   0.000  0.00  0.00    -0.239 NA
ATOM     12  C   UNL d   1       2.004  -1.392   0.000  0.00  0.00     0.088 A 
ATOM     13  C   UNL d   1       1.292  -1.804   0.000  0.00  0.00     0.020 A 
ATOM     14  C   UNL d   1       2.004  -0.567   0.000  0.00  0.00     0.049 A 
ATOM     15  C   UNL d   1       0.579  -1.392   0.000  0.00  0.00     0.002 A 
ATOM     16  C   UNL d   1       0.579  -0.567   0.000  0.00  0.00     0.001 A 
ATOM     17  C   UNL d   1       1.292  -0.154   0.000  0.00  0.00     0.008 A 
ATOM     18  S   UNL d   1       2.792  -0.312   0.000  0.00  0.00    -0.066 SA
ENDBRANCH   7  10
ENDBRANCH   2   4
BRANCH   1  19
ATOM     19  C   UNL d   1       7.804  -1.842   0.000  0.00  0.00     0.151 C 
ATOM     20  C   UNL d   1       8.204  -2.562   0.000  0.00  0.00     0.027 C 
BRANCH  19  21
ATOM     21  N   UNL d   1       8.425  -1.288   0.000  0.00  0.00    -0.153 NA
BRANCH  21  22
ATOM     22  S   UNL d   1       9.204  -1.550   0.000  0.00  0.00     0.285 S 
ATOM     23  O   UNL d   1       8.942  -2.317   0.000  0.00  0.00    -0.198 OA
ATOM     24  O   UNL d   1       9.975  -1.812   0.000  0.00  0.00    -0.198 OA
BRANCH  22  25
ATOM     25  C   UNL d   1       9.463  -0.762   0.000  0.00  0.00     0.106 A 
ATOM     26  C   UNL d   1       8.917  -0.142   0.000  0.00  0.00     0.024 A 
ATOM     27  C   UNL d   1       9.192   0.650   0.000  0.00  0.00     0.059 A 
ATOM     28 CL   UNL d   1       8.642   1.271   0.000  0.00  0.00    -0.082 Cl
ATOM     29  C   UNL d   1      10.000   0.808   0.000  0.00  0.00     0.011 A 
ATOM     30  C   UNL d   1      10.542   0.188   0.000  0.00  0.00     0.002 A 
ATOM     31  C   UNL d   1      10.267  -0.604   0.000  0.00  0.00     0.013 A 
ENDBRANCH  22  25
ENDBRANCH  21  22
ENDBRANCH  19  21
ENDBRANCH   1  19
TORSDOF 6
