REMARK  4 active torsions:
REMARK  status: ('A' for Active; 'I' for Inactive)
REMARK    1  A    between atoms: N_2  and  S_1 
REMARK    2  A    between atoms: C_3  and  S_1 
REMARK    3  A    between atoms: C_17  and  N_4 
REMARK    4  A    between atoms: C_16  and  C_17 
ROOT
ATOM      1  N   UNL d   1       3.012  -0.067   0.000  0.00  0.00    -0.226 N 
ATOM      2  N   UNL d   1       4.654  -0.054   0.000  0.00  0.00    -0.300 N 
ATOM      3  C   UNL d   1       3.416   0.658   0.000  0.00  0.00     0.111 A 
ATOM      4  C   UNL d   1       3.429  -0.779   0.000  0.00  0.00     0.111 A 
ATOM      5  C   UNL d   1       4.254  -0.767   0.000  0.00  0.00     0.100 A 
ATOM      6  C   UNL d   1       4.250   0.658   0.000  0.00  0.00     0.100 A 
ENDROOT
BRANCH   1   7
ATOM      7  S   UNL d   1       2.191  -0.067   0.000  0.00  0.00     0.272 S 
ATOM      8  O   UNL d   1       1.375  -0.067   0.000  0.00  0.00    -0.200 OA
ATOM      9  O   UNL d   1       2.191   0.750   0.000  0.00  0.00    -0.200 OA
BRANCH   7  10
ATOM     10  C   UNL d   1       2.191  -0.892   0.000  0.00  0.00     0.106 A 
ATOM     11  C   UNL d   1       2.916  -1.304   0.000  0.00  0.00     0.043 A 
ATOM     12  C   UNL d   1       2.916  -2.137   0.000  0.00  0.00     0.141 A 
ATOM     13  F   UNL d   1       3.629  -2.550   0.000  0.00  0.00    -0.204 F 
ATOM     14  C   UNL d   1       2.191  -2.550   0.000  0.00  0.00     0.030 A 
ATOM     15  C   UNL d   1       1.487  -2.137   0.000  0.00  0.00     0.003 A 
ATOM     16  C   UNL d   1       1.487  -1.304   0.000  0.00  0.00     0.013 A 
ENDBRANCH   7  10
ENDBRANCH   1   7
BRANCH   2  17
ATOM     17  C   UNL d   1       5.479  -0.054   0.000  0.00  0.00     0.080 C 
BRANCH  17  18
ATOM     18  C   UNL d   1       5.891   0.658   0.000  0.00  0.00     0.020 A 
ATOM     19  C   UNL d   1       5.474   1.362   0.000  0.00  0.00     0.028 A 
ATOM     20  C   UNL d   1       5.878   2.083   0.000  0.00  0.00     0.119 A 
ATOM     21  O   UNL d   1       5.616   2.870   0.000  0.00  0.00    -0.300 OA
ATOM     22  C   UNL d   1       6.703   2.083   0.000  0.00  0.00     0.119 A 
ATOM     23  C   UNL d   1       6.287   3.358   0.000  0.00  0.00     0.304 A 
ATOM     24  O   UNL d   1       6.962   2.870   0.000  0.00  0.00    -0.300 OA
ATOM     25  C   UNL d   1       7.124   1.371   0.000  0.00  0.00     0.026 A 
ATOM     26  C   UNL d   1       6.716   0.658   0.000  0.00  0.00     0.004 A 
ENDBRANCH  17  18
ENDBRANCH   2  17
TORSDOF 4
