REMARK  6 active torsions:
REMARK  status: ('A' for Active; 'I' for Inactive)
REMARK    1  A    between atoms: N_5  and  S_1 
REMARK    2  A    between atoms: C_6  and  S_1 
REMARK    3  A    between atoms: C_2  and  C_14 
REMARK    4  A    between atoms: C_8  and  N_5 
REMARK    5  A    between atoms: C_7  and  C_8 
REMARK       I    between atoms: N_11  and  C_7 
REMARK    6  A    between atoms: C_20  and  N_11 
ROOT
ATOM      1  C   UNL d   1       6.979  -1.825   0.000  0.00  0.00     0.298 C 
ATOM      2  N   UNL d   1       6.588  -1.104   0.000  0.00  0.00    -0.207 NA
ATOM      3  O   UNL d   1       6.550  -2.529   0.000  0.00  0.00    -0.264 OA
ENDROOT
BRANCH   1   4
ATOM      4  C   UNL d   1       7.800  -1.837   0.000  0.00  0.00     0.151 C 
ATOM      5  C   UNL d   1       8.204  -2.562   0.000  0.00  0.00     0.027 C 
BRANCH   4   6
ATOM      6  N   UNL d   1       8.229  -1.142   0.000  0.00  0.00    -0.153 NA
BRANCH   6   7
ATOM      7  S   UNL d   1       9.054  -1.154   0.000  0.00  0.00     0.285 S 
ATOM      8  O   UNL d   1       9.042  -1.979   0.000  0.00  0.00    -0.198 OA
ATOM      9  O   UNL d   1       9.067  -0.329   0.000  0.00  0.00    -0.198 OA
BRANCH   7  10
ATOM     10  C   UNL d   1       9.875  -1.167   0.000  0.00  0.00     0.105 A 
ATOM     11  C   UNL d   1      10.267  -1.887   0.000  0.00  0.00     0.012 A 
ATOM     12  C   UNL d   1      11.100  -1.904   0.000  0.00  0.00     0.001 A 
ATOM     13  C   UNL d   1       9.829  -2.600   0.000  0.00  0.00     0.001 C 
ATOM     14  C   UNL d   1      11.525  -1.204   0.000  0.00  0.00     0.000 A 
ATOM     15  C   UNL d   1      11.129  -0.479   0.000  0.00  0.00     0.001 A 
ATOM     16  C   UNL d   1      10.300  -0.467   0.000  0.00  0.00     0.013 A 
ATOM     17  C   UNL d   1      11.562   0.233   0.000  0.00  0.00     0.000 C 
ENDBRANCH   7  10
ENDBRANCH   6   7
ENDBRANCH   4   6
ENDBRANCH   1   4
BRANCH   2  18
ATOM     18  C   UNL d   1       5.763  -1.087   0.000  0.00  0.00     0.085 A 
ATOM     19  C   UNL d   1       5.375  -0.362   0.000  0.00  0.00     0.019 A 
ATOM     20  C   UNL d   1       4.542  -0.329   0.000  0.00  0.00     0.004 A 
ATOM     21  C   UNL d   1       4.104  -1.025   0.000  0.00  0.00     0.024 A 
ATOM     22  C   UNL d   1       4.492  -1.754   0.000  0.00  0.00     0.004 A 
ATOM     23  C   UNL d   1       5.317  -1.792   0.000  0.00  0.00     0.019 A 
BRANCH  21  24
ATOM     24  C   UNL d   1       3.275  -0.979   0.000  0.00  0.00     0.111 A 
ATOM     25  N   UNL d   1       2.792  -1.642   0.000  0.00  0.00    -0.239 NA
ATOM     26  C   UNL d   1       2.004  -1.392   0.000  0.00  0.00     0.088 A 
ATOM     27  C   UNL d   1       1.292  -1.804   0.000  0.00  0.00     0.020 A 
ATOM     28  C   UNL d   1       2.004  -0.567   0.000  0.00  0.00     0.049 A 
ATOM     29  C   UNL d   1       0.579  -1.392   0.000  0.00  0.00     0.002 A 
ATOM     30  C   UNL d   1       0.579  -0.567   0.000  0.00  0.00     0.001 A 
ATOM     31  C   UNL d   1       1.292  -0.154   0.000  0.00  0.00     0.008 A 
ATOM     32  S   UNL d   1       2.792  -0.312   0.000  0.00  0.00    -0.066 SA
ENDBRANCH  21  24
ENDBRANCH   2  18
TORSDOF 6
