REMARK  6 active torsions:
REMARK  status: ('A' for Active; 'I' for Inactive)
REMARK    1  A    between atoms: S_6  and  C_2 
REMARK    2  A    between atoms: C_9  and  S_6 
REMARK    3  A    between atoms: C_7  and  C_9 
REMARK    4  A    between atoms: C_8  and  C_7 
REMARK    5  A    between atoms: O_12  and  C_15 
REMARK    6  A    between atoms: C_18  and  O_12 
ROOT
ATOM      1  C   UNL d   1       2.938  -1.913   0.000  0.00  0.00     0.040 A 
ATOM      2  C   UNL d   1       3.592  -1.417   0.000  0.00  0.00     0.005 A 
ATOM      3  C   UNL d   1       2.167  -1.579   0.000  0.00  0.00     0.005 A 
ATOM      4  C   UNL d   1       2.742  -0.267   0.000  0.00  0.00     0.100 A 
ATOM      5  C   UNL d   1       3.500  -0.600   0.000  0.00  0.00     0.025 A 
ATOM      6  C   UNL d   1       2.079  -0.762   0.000  0.00  0.00     0.025 A 
ENDROOT
BRANCH   1   7
ATOM      7  C   UNL d   1       3.029  -2.725   0.000  0.00  0.00     0.202 C 
ATOM      8  O   UNL d   1       3.792  -3.050   0.000  0.00  0.00    -0.286 OA
BRANCH   7   9
ATOM      9  C   UNL d   1       2.367  -3.217   0.000  0.00  0.00     0.080 C 
BRANCH   9  10
ATOM     10  S   UNL d   1       2.467  -4.042   0.000  0.00  0.00    -0.043 SA
BRANCH  10  11
ATOM     11  C   UNL d   1       3.229  -4.367   0.000  0.00  0.00     0.233 A 
ATOM     12  N   UNL d   1       3.417  -5.167   0.000  0.00  0.00    -0.029 NA
ATOM     13  C   UNL d   1       4.237  -5.242   0.000  0.00  0.00     0.788 A 
ATOM     14  N   UNL d   1       4.554  -4.487   0.000  0.00  0.00     0.050 NA
ATOM     15  N   UNL d   1       4.654  -5.954   0.000  0.00  0.00     0.064 N 
ATOM     16  N   UNL d   1       3.942  -3.942   0.000  0.00  0.00    -0.105 NA
ENDBRANCH  10  11
ENDBRANCH   9  10
ENDBRANCH   7   9
ENDBRANCH   1   7
BRANCH   4  17
ATOM     17  O   UNL d   1       2.642   0.550   0.000  0.00  0.00    -0.307 OA
BRANCH  17  18
ATOM     18  C   UNL d   1       3.304   1.046   0.000  0.00  0.00     0.100 A 
ATOM     19  C   UNL d   1       3.212   1.858   0.000  0.00  0.00     0.025 A 
ATOM     20  C   UNL d   1       3.867   2.346   0.000  0.00  0.00     0.002 A 
ATOM     21  C   UNL d   1       4.629   2.021   0.000  0.00  0.00     0.000 A 
ATOM     22  C   UNL d   1       4.725   1.200   0.000  0.00  0.00     0.002 A 
ATOM     23  C   UNL d   1       4.062   0.708   0.000  0.00  0.00     0.025 A 
ENDBRANCH  17  18
ENDBRANCH   4  17
TORSDOF 6
