REMARK  7 active torsions:
REMARK  status: ('A' for Active; 'I' for Inactive)
REMARK    1  A    between atoms: S_9  and  C_2 
REMARK    2  A    between atoms: C_6  and  C_8 
REMARK       I    between atoms: N_7  and  C_6 
REMARK    3  A    between atoms: C_11  and  N_7 
REMARK    4  A    between atoms: C_8  and  C_12 
REMARK    5  A    between atoms: C_12  and  S_9 
REMARK    6  A    between atoms: O_18  and  C_13 
REMARK    7  A    between atoms: C_20  and  O_18 
ROOT
ATOM      1  C   UNL d   1       0.430  -0.418   0.000  0.00  0.00     0.280 C 
ATOM      2  N   UNL d   1       1.144  -0.004   0.000  0.00  0.00    -0.208 NA
ATOM      3  O   UNL d   1      -0.288  -0.004   0.000  0.00  0.00    -0.265 OA
ENDROOT
BRANCH   1   4
ATOM      4  C   UNL d   1       0.430  -1.244   0.000  0.00  0.00     0.070 C 
BRANCH   4   5
ATOM      5  C   UNL d   1       1.144  -1.658   0.000  0.00  0.00     0.042 C 
BRANCH   5   6
ATOM      6  S   UNL d   1       1.144  -2.493   0.000  0.00  0.00    -0.059 SA
BRANCH   6   7
ATOM      7  C   UNL d   1       1.858  -2.906   0.000  0.00  0.00     0.164 A 
ATOM      8  S   UNL d   1       2.033  -3.712   0.000  0.00  0.00    -0.039 SA
ATOM      9  C   UNL d   1       2.848  -3.800   0.000  0.00  0.00     0.134 A 
ATOM     10  N   UNL d   1       3.194  -3.048   0.000  0.00  0.00    -0.140 NA
ATOM     11  C   UNL d   1       3.261  -4.526   0.000  0.00  0.00     0.030 C 
ATOM     12  N   UNL d   1       2.572  -2.493   0.000  0.00  0.00    -0.134 NA
ENDBRANCH   6   7
ENDBRANCH   5   6
ENDBRANCH   4   5
ENDBRANCH   1   4
BRANCH   2  13
ATOM     13  C   UNL d   1       1.871  -0.418   0.000  0.00  0.00     0.085 A 
ATOM     14  C   UNL d   1       1.871  -1.244   0.000  0.00  0.00     0.021 A 
ATOM     15  C   UNL d   1       2.584  -1.658   0.000  0.00  0.00     0.026 A 
ATOM     16  C   UNL d   1       3.299  -1.244   0.000  0.00  0.00     0.100 A 
ATOM     17  C   UNL d   1       3.299  -0.418   0.000  0.00  0.00     0.026 A 
ATOM     18  C   UNL d   1       2.584  -0.004   0.000  0.00  0.00     0.021 A 
BRANCH  16  19
ATOM     19  O   UNL d   1       4.025  -1.670   0.000  0.00  0.00    -0.305 OA
BRANCH  19  20
ATOM     20  C   UNL d   1       4.021  -2.497   0.000  0.00  0.00     0.123 C 
ATOM     21  C   UNL d   1       4.735  -2.910   0.000  0.00  0.00     0.029 C 
ENDBRANCH  19  20
ENDBRANCH  16  19
ENDBRANCH   2  13
TORSDOF 7
