REMARK  7 active torsions:
REMARK  status: ('A' for Active; 'I' for Inactive)
REMARK    1  A    between atoms: C_3  and  S_1 
REMARK    2  A    between atoms: N_4  and  S_1 
REMARK    3  A    between atoms: C_2  and  C_9 
REMARK       I    between atoms: N_5  and  C_2 
REMARK    4  A    between atoms: C_15  and  N_4 
REMARK    5  A    between atoms: C_10  and  N_5 
REMARK    6  A    between atoms: C_18  and  C_15 
REMARK    7  A    between atoms: O_22  and  C_16 
ROOT
ATOM      1  C   UNL d   1       5.067  -2.511   0.000  0.00  0.00     0.058 A 
ATOM      2  C   UNL d   1       5.373  -3.280   0.000  0.00  0.00     0.005 A 
ATOM      3  C   UNL d   1       5.576  -1.865   0.000  0.00  0.00     0.005 A 
ATOM      4  C   UNL d   1       6.693  -2.755   0.000  0.00  0.00     0.020 A 
ATOM      5  C   UNL d   1       6.184  -3.400   0.000  0.00  0.00     0.002 A 
ATOM      6  C   UNL d   1       6.391  -1.990   0.000  0.00  0.00     0.002 A 
ENDROOT
BRANCH   4   7
ATOM      7  C   UNL d   1       7.512  -2.871   0.000  0.00  0.00     0.112 C 
BRANCH   7   8
ATOM      8  N   UNL d   1       7.818  -3.640   0.000  0.00  0.00    -0.157 NA
BRANCH   8   9
ATOM      9  S   UNL d   1       8.641  -3.760   0.000  0.00  0.00     0.285 S 
ATOM     10  O   UNL d   1       8.525  -4.583   0.000  0.00  0.00    -0.198 OA
ATOM     11  O   UNL d   1       8.761  -2.933   0.000  0.00  0.00    -0.198 OA
BRANCH   9  12
ATOM     12  C   UNL d   1       9.460  -3.876   0.000  0.00  0.00     0.107 A 
ATOM     13  C   UNL d   1       9.969  -3.231   0.000  0.00  0.00     0.037 A 
ATOM     14  C   UNL d   1      10.788  -3.342   0.000  0.00  0.00     0.095 A 
ATOM     15  C   UNL d   1      11.098  -4.099   0.000  0.00  0.00     0.024 A 
ATOM     16  C   UNL d   1      10.589  -4.753   0.000  0.00  0.00     0.003 A 
ATOM     17  C   UNL d   1       9.770  -4.641   0.000  0.00  0.00     0.013 A 
BRANCH  14  18
ATOM     18  O   UNL d   1      11.296  -2.693   0.000  0.00  0.00    -0.328 OA
ATOM     19  C   UNL d   1      10.995  -1.936   0.000  0.00  0.00     0.181 C 
ENDBRANCH  14  18
ENDBRANCH   9  12
ENDBRANCH   8   9
ENDBRANCH   7   8
ENDBRANCH   4   7
BRANCH   1  20
ATOM     20  C   UNL d   1       4.248  -2.383   0.000  0.00  0.00     0.279 C 
ATOM     21  N   UNL d   1       3.958  -1.617   0.000  0.00  0.00    -0.208 NA
ATOM     22  O   UNL d   1       3.727  -3.020   0.000  0.00  0.00    -0.265 OA
BRANCH  21  23
ATOM     23  C   UNL d   1       3.144  -1.489   0.000  0.00  0.00     0.086 A 
ATOM     24  C   UNL d   1       2.854  -0.712   0.000  0.00  0.00     0.031 A 
ATOM     25  C   UNL d   1       2.039  -0.587   0.000  0.00  0.00     0.059 A 
ATOM     26 CL   UNL d   1       1.750   0.182   0.000  0.00  0.00    -0.082 Cl
ATOM     27  C   UNL d   1       1.518  -1.228   0.000  0.00  0.00     0.011 A 
ATOM     28  C   UNL d   1       1.816  -1.998   0.000  0.00  0.00     0.002 A 
ATOM     29  C   UNL d   1       2.631  -2.122   0.000  0.00  0.00     0.019 A 
ENDBRANCH  21  23
ENDBRANCH   1  20
TORSDOF 7
