REMARK  4 active torsions:
REMARK  status: ('A' for Active; 'I' for Inactive)
REMARK    1  A    between atoms: C_15  and  C_2 
REMARK    2  A    between atoms: C_5  and  S_13 
REMARK       I    between atoms: C_11  and  N_8 
REMARK    3  A    between atoms: C_18  and  C_11 
REMARK    4  A    between atoms: S_13  and  C_18 
ROOT
ATOM      1  N   UNL d   1       2.287   1.274   0.000  0.00  0.00    -0.272 N 
ATOM      2  C   UNL d   1       3.081   1.092   0.000  0.00  0.00     0.271 C 
ATOM      3  C   UNL d   1       0.674   1.621   0.000  0.00  0.00     0.023 A 
ATOM      4  C   UNL d   1       2.027   2.055   0.000  0.00  0.00     0.083 A 
ATOM      5  C   UNL d   1       1.729   0.658   0.000  0.00  0.00     0.083 A 
ATOM      6  O   UNL d   1       3.635   1.688   0.000  0.00  0.00    -0.266 OA
ATOM      7  C   UNL d   1       1.220   2.229   0.000  0.00  0.00     0.021 A 
ATOM      8  C   UNL d   1       0.922   0.840   0.000  0.00  0.00     0.021 A 
ENDROOT
BRANCH   2   9
ATOM      9  C   UNL d   1       3.329   0.298   0.000  0.00  0.00     0.099 C 
BRANCH   9  10
ATOM     10  S   UNL d   1       4.136   0.120   0.000  0.00  0.00    -0.054 SA
BRANCH  10  11
ATOM     11  C   UNL d   1       4.707   0.732   0.000  0.00  0.00     0.164 A 
ATOM     12  S   UNL d   1       5.526   0.633   0.000  0.00  0.00    -0.039 SA
ATOM     13  C   UNL d   1       5.873   1.390   0.000  0.00  0.00     0.134 A 
ATOM     14  C   UNL d   1       6.692   1.551   0.000  0.00  0.00     0.030 C 
ATOM     15  N   UNL d   1       5.261   1.956   0.000  0.00  0.00    -0.140 NA
ATOM     16  N   UNL d   1       4.533   1.547   0.000  0.00  0.00    -0.134 NA
ENDBRANCH  10  11
ENDBRANCH   9  10
ENDBRANCH   2   9
BRANCH   3  17
ATOM     17  C   UNL d   1      -0.124   1.787   0.000  0.00  0.00     0.110 A 
ATOM     18  N   UNL d   1      -0.455   2.531   0.000  0.00  0.00    -0.126 NA
ATOM     19  O   UNL d   1      -1.278   2.453   0.000  0.00  0.00    -0.211 OA
ATOM     20  C   UNL d   1      -1.448   1.659   0.000  0.00  0.00     0.127 A 
ATOM     21  C   UNL d   1      -2.159   1.241   0.000  0.00  0.00     0.029 A 
ATOM     22  C   UNL d   1      -0.732   1.241   0.000  0.00  0.00     0.047 A 
ATOM     23  C   UNL d   1      -2.159   0.430   0.000  0.00  0.00     0.032 A 
ATOM     24  C   UNL d   1      -1.448   0.000   0.000  0.00  0.00     0.140 A 
ATOM     25  C   UNL d   1      -0.732   0.430   0.000  0.00  0.00     0.033 A 
ATOM     26  F   UNL d   1      -1.448  -0.811   0.000  0.00  0.00    -0.204 F 
ENDBRANCH   3  17
TORSDOF 4
