REMARK  8 active torsions:
REMARK  status: ('A' for Active; 'I' for Inactive)
REMARK    1  A    between atoms: C_21  and  C_3 
REMARK    2  A    between atoms: S_17  and  C_5 
REMARK    3  A    between atoms: C_11  and  C_16 
REMARK       I    between atoms: N_14  and  C_11 
REMARK    4  A    between atoms: C_19  and  N_14 
REMARK    5  A    between atoms: C_16  and  C_20 
REMARK    6  A    between atoms: C_20  and  S_17 
REMARK    7  A    between atoms: O_27  and  C_22 
REMARK    8  A    between atoms: C_30  and  O_27 
ROOT
ATOM      1  C   UNL d   1       0.787  -1.229   0.000  0.00  0.00     0.092 A 
ATOM      2  C   UNL d   1       2.217  -1.229   0.000  0.00  0.00     0.057 A 
ATOM      3  C   UNL d   1       1.504  -1.642   0.000  0.00  0.00     0.016 A 
ATOM      4  N   UNL d   1       1.504   0.008   0.000  0.00  0.00    -0.239 NA
ATOM      5  C   UNL d   1       0.787  -0.404   0.000  0.00  0.00     0.120 A 
ATOM      6  C   UNL d   1       2.217  -0.404   0.000  0.00  0.00     0.081 A 
ATOM      7  C   UNL d   1       2.929  -1.642   0.000  0.00  0.00     0.193 A 
ATOM      8  C   UNL d   1       0.067  -1.654   0.000  0.00  0.00     0.103 C 
ATOM      9  N   UNL d   1      -0.658  -2.075   0.000  0.00  0.00    -0.191 NA
ATOM     10  C   UNL d   1       3.642  -0.404   0.000  0.00  0.00     0.042 A 
ATOM     11  C   UNL d   1       3.642  -1.229   0.000  0.00  0.00     0.019 A 
ATOM     12  C   UNL d   1       2.929   0.008   0.000  0.00  0.00    -0.003 A 
ATOM     13  O   UNL d   1       2.929  -2.467   0.000  0.00  0.00    -0.287 OA
ATOM     14  C   UNL d   1       3.929   0.371   0.000  0.00  0.00     0.009 C 
ATOM     15  C   UNL d   1       4.367  -0.817   0.000  0.00  0.00     0.009 C 
ENDROOT
BRANCH   3  16
ATOM     16  C   UNL d   1       1.504  -2.467   0.000  0.00  0.00     0.001 C 
ATOM     17  C   UNL d   1       2.217  -2.879   0.000  0.00  0.00     0.000 C 
ENDBRANCH   3  16
BRANCH   5  18
ATOM     18  S   UNL d   1       0.067   0.008   0.000  0.00  0.00    -0.067 SA
BRANCH  18  19
ATOM     19  C   UNL d   1      -0.646  -0.412   0.000  0.00  0.00     0.042 C 
BRANCH  19  20
ATOM     20  C   UNL d   1      -1.371  -0.004   0.000  0.00  0.00     0.070 C 
BRANCH  20  21
ATOM     21  C   UNL d   1      -2.083  -0.425   0.000  0.00  0.00     0.280 C 
ATOM     22  N   UNL d   1      -2.808  -0.017   0.000  0.00  0.00    -0.208 NA
ATOM     23  O   UNL d   1      -2.075  -1.254   0.000  0.00  0.00    -0.265 OA
BRANCH  22  24
ATOM     24  C   UNL d   1      -3.521  -0.438   0.000  0.00  0.00     0.085 A 
ATOM     25  C   UNL d   1      -3.513  -1.267   0.000  0.00  0.00     0.021 A 
ATOM     26  C   UNL d   1      -4.225  -1.679   0.000  0.00  0.00     0.026 A 
ATOM     27  C   UNL d   1      -4.958  -1.275   0.000  0.00  0.00     0.100 A 
ATOM     28  C   UNL d   1      -4.958  -0.450   0.000  0.00  0.00     0.026 A 
ATOM     29  C   UNL d   1      -4.246  -0.029   0.000  0.00  0.00     0.021 A 
BRANCH  27  30
ATOM     30  O   UNL d   1      -5.683  -1.700   0.000  0.00  0.00    -0.305 OA
BRANCH  30  31
ATOM     31  C   UNL d   1      -6.400  -1.288   0.000  0.00  0.00     0.123 C 
ATOM     32  C   UNL d   1      -7.104  -1.704   0.000  0.00  0.00     0.029 C 
ENDBRANCH  30  31
ENDBRANCH  27  30
ENDBRANCH  22  24
ENDBRANCH  20  21
ENDBRANCH  19  20
ENDBRANCH  18  19
ENDBRANCH   5  18
TORSDOF 8
