REMARK  3 active torsions:
REMARK  status: ('A' for Active; 'I' for Inactive)
REMARK    1  A    between atoms: N_5  and  C_2 
REMARK    2  A    between atoms: C_9  and  C_3 
REMARK       I    between atoms: C_7  and  N_5 
REMARK    3  A    between atoms: C_8  and  C_7 
ROOT
ATOM      1  N   UNL d   1       1.117   4.092   0.000  0.00  0.00    -0.200 NA
ATOM      2  C   UNL d   1       1.779   3.612   0.000  0.00  0.00     0.216 A 
ATOM      3  C   UNL d   1       1.367   4.879   0.000  0.00  0.00     0.172 A 
ATOM      4  N   UNL d   1       2.192   4.879   0.000  0.00  0.00    -0.187 NA
ATOM      5  S   UNL d   1       2.454   4.092   0.000  0.00  0.00     0.054 SA
ENDROOT
BRANCH   2   6
ATOM      6  N   UNL d   1       1.779   2.788   0.000  0.00  0.00    -0.181 NA
ATOM      7  C   UNL d   1       1.067   2.383   0.000  0.00  0.00     0.281 C 
ATOM      8  O   UNL d   1       0.354   2.796   0.000  0.00  0.00    -0.265 OA
BRANCH   7   9
ATOM      9  C   UNL d   1       1.067   1.558   0.000  0.00  0.00     0.058 A 
ATOM     10  C   UNL d   1       0.354   1.146   0.000  0.00  0.00     0.006 A 
ATOM     11  C   UNL d   1       0.354   0.321   0.000  0.00  0.00     0.012 A 
ATOM     12  C   UNL d   1       1.067  -0.092   0.000  0.00  0.00     0.058 A 
ATOM     13  C   UNL d   1       1.779   0.321   0.000  0.00  0.00     0.012 A 
ATOM     14 CL   UNL d   1       1.067  -0.917   0.000  0.00  0.00    -0.082 Cl
ATOM     15  C   UNL d   1       1.779   1.146   0.000  0.00  0.00     0.006 A 
ENDBRANCH   7   9
ENDBRANCH   2   6
BRANCH   3  16
ATOM     16  C   UNL d   1       0.887   5.542   0.000  0.00  0.00     0.036 A 
ATOM     17  C   UNL d   1       0.067   5.454   0.000  0.00  0.00     0.003 A 
ATOM     18  C   UNL d   1      -0.421   6.129   0.000  0.00  0.00     0.000 A 
ATOM     19  C   UNL d   1      -0.083   6.888   0.000  0.00  0.00     0.000 A 
ATOM     20  C   UNL d   1       0.742   6.967   0.000  0.00  0.00     0.000 A 
ATOM     21  C   UNL d   1       1.225   6.300   0.000  0.00  0.00     0.003 A 
ENDBRANCH   3  16
TORSDOF 3
