REMARK  3 active torsions:
REMARK  status: ('A' for Active; 'I' for Inactive)
REMARK    1  A    between atoms: N_4  and  C_2 
REMARK    2  A    between atoms: C_9  and  C_3 
REMARK       I    between atoms: C_7  and  N_4 
REMARK    3  A    between atoms: C_8  and  C_7 
ROOT
ATOM      1  N   UNL d   1       4.817   0.971   0.000  0.00  0.00    -0.051 NA
ATOM      2  C   UNL d   1       4.037   1.225   0.000  0.00  0.00     0.760 A 
ATOM      3  C   UNL d   1       5.304   1.637   0.000  0.00  0.00     0.147 A 
ATOM      4  N   UNL d   1       4.037   2.050   0.000  0.00  0.00    -0.019 NA
ATOM      5  S   UNL d   1       4.817   2.308   0.000  0.00  0.00     0.052 SA
ENDROOT
BRANCH   2   6
ATOM      6  N   UNL d   1       3.317   0.808   0.000  0.00  0.00    -0.018 NA
ATOM      7  C   UNL d   1       2.604   1.221   0.000  0.00  0.00     0.295 C 
ATOM      8  O   UNL d   1       2.604   2.046   0.000  0.00  0.00    -0.265 OA
BRANCH   7   9
ATOM      9  C   UNL d   1       1.892   0.808   0.000  0.00  0.00     0.059 A 
ATOM     10  C   UNL d   1       1.179   1.221   0.000  0.00  0.00     0.007 A 
ATOM     11  C   UNL d   1       0.467   0.800   0.000  0.00  0.00     0.030 A 
ATOM     12  C   UNL d   1       0.467  -0.025   0.000  0.00  0.00     0.140 A 
ATOM     13  C   UNL d   1       1.179  -0.438   0.000  0.00  0.00     0.030 A 
ATOM     14  F   UNL d   1      -0.250  -0.429   0.000  0.00  0.00    -0.204 F 
ATOM     15  C   UNL d   1       1.892  -0.025   0.000  0.00  0.00     0.007 A 
ENDBRANCH   7   9
ENDBRANCH   2   6
BRANCH   3  16
ATOM     16  C   UNL d   1       6.125   1.637   0.000  0.00  0.00     0.026 A 
ATOM     17  C   UNL d   1       6.542   2.350   0.000  0.00  0.00     0.002 A 
ATOM     18  C   UNL d   1       7.367   2.350   0.000  0.00  0.00     0.000 A 
ATOM     19  C   UNL d   1       7.775   1.633   0.000  0.00  0.00     0.000 A 
ATOM     20  C   UNL d   1       7.367   0.921   0.000  0.00  0.00     0.000 A 
ATOM     21  C   UNL d   1       6.542   0.921   0.000  0.00  0.00     0.002 A 
ENDBRANCH   3  16
TORSDOF 3
