REMARK  4 active torsions:
REMARK  status: ('A' for Active; 'I' for Inactive)
REMARK    1  A    between atoms: N_2  and  S_1 
REMARK    2  A    between atoms: C_3  and  S_1 
REMARK    3  A    between atoms: C_5  and  N_4 
REMARK    4  A    between atoms: O_17  and  C_14 
ROOT
ATOM      1  N   UNL d   1       2.742   0.412   0.000  0.00  0.00    -0.226 N 
ATOM      2  N   UNL d   1       4.379   0.421   0.000  0.00  0.00    -0.299 N 
ATOM      3  C   UNL d   1       3.150   1.133   0.000  0.00  0.00     0.111 A 
ATOM      4  C   UNL d   1       3.154  -0.300   0.000  0.00  0.00     0.111 A 
ATOM      5  C   UNL d   1       3.975   1.133   0.000  0.00  0.00     0.100 A 
ATOM      6  C   UNL d   1       3.979  -0.292   0.000  0.00  0.00     0.100 A 
ENDROOT
BRANCH   1   7
ATOM      7  S   UNL d   1       1.917   0.408   0.000  0.00  0.00     0.272 S 
ATOM      8  O   UNL d   1       1.100   0.408   0.000  0.00  0.00    -0.200 OA
ATOM      9  O   UNL d   1       1.917   1.233   0.000  0.00  0.00    -0.200 OA
BRANCH   7  10
ATOM     10  C   UNL d   1       1.925  -0.417   0.000  0.00  0.00     0.106 A 
ATOM     11  C   UNL d   1       2.642  -0.829   0.000  0.00  0.00     0.037 A 
ATOM     12  C   UNL d   1       2.642  -1.654   0.000  0.00  0.00     0.095 A 
ATOM     13  C   UNL d   1       1.925  -2.067   0.000  0.00  0.00     0.024 A 
ATOM     14  C   UNL d   1       1.212  -1.654   0.000  0.00  0.00     0.003 A 
ATOM     15  C   UNL d   1       1.212  -0.829   0.000  0.00  0.00     0.013 A 
BRANCH  12  16
ATOM     16  O   UNL d   1       3.354  -2.067   0.000  0.00  0.00    -0.328 OA
ATOM     17  C   UNL d   1       3.354  -2.892   0.000  0.00  0.00     0.181 C 
ENDBRANCH  12  16
ENDBRANCH   7  10
ENDBRANCH   1   7
BRANCH   2  18
ATOM     18  C   UNL d   1       5.204   0.421   0.000  0.00  0.00     0.092 A 
ATOM     19  C   UNL d   1       5.612   1.133   0.000  0.00  0.00     0.156 A 
ATOM     20  F   UNL d   1       5.154   1.825   0.000  0.00  0.00    -0.203 F 
ATOM     21  C   UNL d   1       6.438   1.146   0.000  0.00  0.00     0.031 A 
ATOM     22  C   UNL d   1       6.854   0.425   0.000  0.00  0.00     0.002 A 
ATOM     23  C   UNL d   1       6.442  -0.292   0.000  0.00  0.00     0.002 A 
ATOM     24  C   UNL d   1       5.617  -0.292   0.000  0.00  0.00     0.020 A 
ENDBRANCH   2  18
TORSDOF 4
