REMARK  5 active torsions:
REMARK  status: ('A' for Active; 'I' for Inactive)
REMARK    1  A    between atoms: C_2  and  S_1 
REMARK    2  A    between atoms: N_3  and  S_1 
REMARK    3  A    between atoms: C_14  and  N_3 
REMARK    4  A    between atoms: C_15  and  C_14 
REMARK    5  A    between atoms: O_18  and  C_16 
ROOT
ATOM      1  S   UNL d   1       1.917   0.408   0.000  0.00  0.00     0.285 S 
ATOM      2  O   UNL d   1       1.917   1.233   0.000  0.00  0.00    -0.198 OA
ATOM      3  O   UNL d   1       1.100   0.408   0.000  0.00  0.00    -0.198 OA
ENDROOT
BRANCH   1   4
ATOM      4  C   UNL d   1       1.925  -0.417   0.000  0.00  0.00     0.107 A 
ATOM      5  C   UNL d   1       2.642  -0.829   0.000  0.00  0.00     0.037 A 
ATOM      6  C   UNL d   1       2.642  -1.654   0.000  0.00  0.00     0.095 A 
ATOM      7  C   UNL d   1       1.925  -2.067   0.000  0.00  0.00     0.024 A 
ATOM      8  C   UNL d   1       1.212  -1.654   0.000  0.00  0.00     0.003 A 
ATOM      9  C   UNL d   1       1.212  -0.829   0.000  0.00  0.00     0.013 A 
BRANCH   6  10
ATOM     10  O   UNL d   1       3.354  -2.067   0.000  0.00  0.00    -0.328 OA
ATOM     11  C   UNL d   1       3.354  -2.892   0.000  0.00  0.00     0.181 C 
ENDBRANCH   6  10
ENDBRANCH   1   4
BRANCH   1  12
ATOM     12  N   UNL d   1       2.742   0.412   0.000  0.00  0.00    -0.157 NA
BRANCH  12  13
ATOM     13  C   UNL d   1       3.150   1.137   0.000  0.00  0.00     0.112 C 
BRANCH  13  14
ATOM     14  C   UNL d   1       2.729   1.846   0.000  0.00  0.00     0.022 A 
ATOM     15  C   UNL d   1       3.138   2.562   0.000  0.00  0.00     0.028 A 
ATOM     16  C   UNL d   1       2.717   3.271   0.000  0.00  0.00     0.119 A 
ATOM     17  O   UNL d   1       2.967   4.054   0.000  0.00  0.00    -0.300 OA
ATOM     18  C   UNL d   1       1.892   3.271   0.000  0.00  0.00     0.119 A 
ATOM     19  C   UNL d   1       2.300   4.542   0.000  0.00  0.00     0.304 A 
ATOM     20  O   UNL d   1       1.637   4.042   0.000  0.00  0.00    -0.300 OA
ATOM     21  C   UNL d   1       1.488   2.546   0.000  0.00  0.00     0.026 A 
ATOM     22  C   UNL d   1       1.904   1.833   0.000  0.00  0.00     0.004 A 
ENDBRANCH  13  14
ENDBRANCH  12  13
ENDBRANCH   1  12
TORSDOF 5
