REMARK  4 active torsions:
REMARK  status: ('A' for Active; 'I' for Inactive)
REMARK    1  A    between atoms: N_2  and  S_1 
REMARK    2  A    between atoms: C_3  and  S_1 
REMARK    3  A    between atoms: C_5  and  N_4 
REMARK    4  A    between atoms: O_16  and  C_13 
ROOT
ATOM      1  N   UNL d   1       2.979  -0.066   0.000  0.00  0.00    -0.226 N 
ATOM      2  N   UNL d   1       4.624  -0.054   0.000  0.00  0.00    -0.300 N 
ATOM      3  C   UNL d   1       3.388   0.655   0.000  0.00  0.00     0.111 A 
ATOM      4  C   UNL d   1       3.392  -0.779   0.000  0.00  0.00     0.111 A 
ATOM      5  C   UNL d   1       4.216   0.663   0.000  0.00  0.00     0.100 A 
ATOM      6  C   UNL d   1       4.220  -0.771   0.000  0.00  0.00     0.100 A 
ENDROOT
BRANCH   1   7
ATOM      7  S   UNL d   1       2.168  -0.066   0.000  0.00  0.00     0.272 S 
ATOM      8  O   UNL d   1       1.360  -0.066   0.000  0.00  0.00    -0.200 OA
ATOM      9  O   UNL d   1       2.168   0.742   0.000  0.00  0.00    -0.200 OA
BRANCH   7  10
ATOM     10  C   UNL d   1       2.168  -0.882   0.000  0.00  0.00     0.106 A 
ATOM     11  C   UNL d   1       2.885  -1.290   0.000  0.00  0.00     0.043 A 
ATOM     12  C   UNL d   1       2.885  -2.114   0.000  0.00  0.00     0.141 A 
ATOM     13  F   UNL d   1       3.590  -2.522   0.000  0.00  0.00    -0.204 F 
ATOM     14  C   UNL d   1       2.168  -2.522   0.000  0.00  0.00     0.030 A 
ATOM     15  C   UNL d   1       1.471  -2.114   0.000  0.00  0.00     0.003 A 
ATOM     16  C   UNL d   1       1.471  -1.290   0.000  0.00  0.00     0.013 A 
ENDBRANCH   7  10
ENDBRANCH   1   7
BRANCH   2  17
ATOM     17  C   UNL d   1       5.444  -0.054   0.000  0.00  0.00     0.086 A 
ATOM     18  C   UNL d   1       5.852   0.663   0.000  0.00  0.00     0.110 A 
ATOM     19  C   UNL d   1       6.680   0.663   0.000  0.00  0.00     0.026 A 
ATOM     20  C   UNL d   1       7.101  -0.054   0.000  0.00  0.00     0.002 A 
ATOM     21  C   UNL d   1       6.688  -0.771   0.000  0.00  0.00     0.002 A 
ATOM     22  C   UNL d   1       5.860  -0.771   0.000  0.00  0.00     0.019 A 
BRANCH  18  23
ATOM     23  O   UNL d   1       5.440   1.368   0.000  0.00  0.00    -0.327 OA
ATOM     24  C   UNL d   1       5.790   1.962   0.000  0.00  0.00     0.181 C 
ENDBRANCH  18  23
ENDBRANCH   2  17
TORSDOF 4
