REMARK  7 active torsions:
REMARK  status: ('A' for Active; 'I' for Inactive)
REMARK    1  A    between atoms: N_2  and  S_1 
REMARK    2  A    between atoms: C_3  and  S_1 
REMARK    3  A    between atoms: C_16  and  N_2 
REMARK    4  A    between atoms: C_4  and  C_10 
REMARK       I    between atoms: N_7  and  C_4 
REMARK    5  A    between atoms: C_17  and  N_7 
REMARK    6  A    between atoms: C_9  and  C_17 
REMARK    7  A    between atoms: O_23  and  C_20 
ROOT
ATOM      1  C   UNL d   1       3.734  -2.540   0.000  0.00  0.00     0.058 A 
ATOM      2  C   UNL d   1       5.362  -2.801   0.000  0.00  0.00     0.094 A 
ATOM      3  C   UNL d   1       4.256  -1.902   0.000  0.00  0.00     0.006 A 
ATOM      4  C   UNL d   1       4.028  -3.311   0.000  0.00  0.00     0.006 A 
ATOM      5  C   UNL d   1       5.072  -2.030   0.000  0.00  0.00     0.020 A 
ATOM      6  C   UNL d   1       4.840  -3.448   0.000  0.00  0.00     0.020 A 
ENDROOT
BRANCH   2   7
ATOM      7  N   UNL d   1       6.170  -2.934   0.000  0.00  0.00    -0.158 NA
BRANCH   7   8
ATOM      8  S   UNL d   1       6.692  -2.292   0.000  0.00  0.00     0.285 S 
ATOM      9  O   UNL d   1       7.335  -2.814   0.000  0.00  0.00    -0.198 OA
ATOM     10  O   UNL d   1       6.058  -1.770   0.000  0.00  0.00    -0.198 OA
BRANCH   8  11
ATOM     11  C   UNL d   1       7.215  -1.658   0.000  0.00  0.00     0.107 A 
ATOM     12  C   UNL d   1       6.925  -0.887   0.000  0.00  0.00     0.037 A 
ATOM     13  C   UNL d   1       7.447  -0.240   0.000  0.00  0.00     0.095 A 
ATOM     14  C   UNL d   1       8.259  -0.377   0.000  0.00  0.00     0.024 A 
ATOM     15  C   UNL d   1       8.553  -1.148   0.000  0.00  0.00     0.003 A 
ATOM     16  C   UNL d   1       8.031  -1.790   0.000  0.00  0.00     0.013 A 
BRANCH  13  17
ATOM     17  O   UNL d   1       7.152   0.543   0.000  0.00  0.00    -0.328 OA
ATOM     18  C   UNL d   1       6.332   0.671   0.000  0.00  0.00     0.181 C 
ENDBRANCH  13  17
ENDBRANCH   8  11
ENDBRANCH   7   8
ENDBRANCH   2   7
BRANCH   1  19
ATOM     19  C   UNL d   1       2.909  -2.412   0.000  0.00  0.00     0.279 C 
ATOM     20  N   UNL d   1       2.615  -1.645   0.000  0.00  0.00    -0.204 NA
ATOM     21  O   UNL d   1       2.387  -3.058   0.000  0.00  0.00    -0.265 OA
BRANCH  20  22
ATOM     22  C   UNL d   1       1.794  -1.517   0.000  0.00  0.00     0.127 C 
BRANCH  22  23
ATOM     23  C   UNL d   1       1.496  -0.738   0.000  0.00  0.00     0.119 A 
ATOM     24  O   UNL d   1       1.944  -0.050   0.000  0.00  0.00    -0.304 OA
ATOM     25  C   UNL d   1       1.421   0.584   0.000  0.00  0.00     0.123 A 
ATOM     26  C   UNL d   1       0.663   0.286   0.000  0.00  0.00     0.029 A 
ATOM     27  C   UNL d   1       0.709  -0.535   0.000  0.00  0.00     0.028 A 
ENDBRANCH  22  23
ENDBRANCH  20  22
ENDBRANCH   1  19
TORSDOF 7
