REMARK  1 active torsions:
REMARK  status: ('A' for Active; 'I' for Inactive)
REMARK    1  A    between atoms: C_9  and  N_4 
ROOT
ATOM      1  C   UNL d   1       3.730  -0.727   0.000  0.00  0.00     0.096 A 
ATOM      2  C   UNL d   1       4.140  -1.433   0.000  0.00  0.00     0.109 A 
ATOM      3  N   UNL d   1       3.599  -2.049   0.000  0.00  0.00    -0.162 NA
ATOM      4  N   UNL d   1       2.846  -1.712   0.000  0.00  0.00    -0.195 N 
ATOM      5  C   UNL d   1       2.931  -0.900   0.000  0.00  0.00     0.283 A 
ATOM      6  C   UNL d   1       4.140  -0.003   0.000  0.00  0.00     0.105 A 
ATOM      7  C   UNL d   1       4.960  -1.426   0.000  0.00  0.00     0.037 A 
ATOM      8  N   UNL d   1       4.960   0.000   0.000  0.00  0.00    -0.244 NA
ATOM      9  C   UNL d   1       5.378  -0.714   0.000  0.00  0.00     0.083 A 
ATOM     10  O   UNL d   1       2.315  -0.351   0.000  0.00  0.00    -0.265 OA
ATOM     11  C   UNL d   1       5.378  -2.137   0.000  0.00  0.00     0.003 A 
ATOM     12  C   UNL d   1       6.205  -0.714   0.000  0.00  0.00     0.019 A 
ATOM     13  C   UNL d   1       6.205  -2.129   0.000  0.00  0.00     0.000 A 
ATOM     14  C   UNL d   1       6.615  -1.423   0.000  0.00  0.00     0.002 A 
ENDROOT
BRANCH   4  15
ATOM     15  C   UNL d   1       2.129  -2.122   0.000  0.00  0.00     0.086 A 
ATOM     16  C   UNL d   1       2.129  -2.949   0.000  0.00  0.00     0.020 A 
ATOM     17  C   UNL d   1       1.423  -3.359   0.000  0.00  0.00     0.013 A 
ATOM     18  C   UNL d   1       0.706  -2.949   0.000  0.00  0.00     0.058 A 
ATOM     19  C   UNL d   1       0.706  -2.122   0.000  0.00  0.00     0.013 A 
ATOM     20 CL   UNL d   1       0.000  -3.351   0.000  0.00  0.00    -0.082 Cl
ATOM     21  C   UNL d   1       1.407  -1.712   0.000  0.00  0.00     0.020 A 
ENDBRANCH   4  15
TORSDOF 1
