REMARK  4 active torsions:
REMARK  status: ('A' for Active; 'I' for Inactive)
REMARK    1  A    between atoms: C_3  and  C_1 
REMARK       I    between atoms: N_6  and  C_3 
REMARK    2  A    between atoms: C_12  and  N_5 
REMARK    3  A    between atoms: C_8  and  N_6 
REMARK    4  A    between atoms: S_11  and  C_10 
ROOT
ATOM      1  C   UNL d   1      -3.772   3.032   0.000  0.00  0.00     0.348 C 
ATOM      2  N   UNL d   1      -4.600   2.936   0.000  0.00  0.00    -0.363 NA
ATOM      3  O   UNL d   1      -3.433   3.814   0.000  0.00  0.00    -0.249 OA
ENDROOT
BRANCH   1   4
ATOM      4  C   UNL d   1      -3.283   2.354   0.000  0.00  0.00     0.173 A 
ATOM      5  N   UNL d   1      -3.546   1.564   0.000  0.00  0.00    -0.159 NA
ATOM      6  N   UNL d   1      -2.869   1.079   0.000  0.00  0.00    -0.227 N 
ATOM      7  C   UNL d   1      -2.204   1.564   0.000  0.00  0.00     0.102 A 
ATOM      8  C   UNL d   1      -2.455   2.354   0.000  0.00  0.00     0.048 A 
BRANCH   6   9
ATOM      9  C   UNL d   1      -2.869   0.251   0.000  0.00  0.00     0.101 C 
ATOM     10  C   UNL d   1      -2.283  -0.330   0.000  0.00  0.00     0.022 C 
ENDBRANCH   6   9
ENDBRANCH   1   4
BRANCH   2  11
ATOM     11  C   UNL d   1      -5.478   3.107   0.000  0.00  0.00     0.141 A 
ATOM     12  C   UNL d   1      -5.992   2.467   0.000  0.00  0.00     0.055 A 
ATOM     13  C   UNL d   1      -6.787   2.597   0.000  0.00  0.00     0.009 A 
ATOM     14  C   UNL d   1      -7.080   3.370   0.000  0.00  0.00     0.001 A 
ATOM     15  C   UNL d   1      -6.565   3.998   0.000  0.00  0.00     0.003 A 
ATOM     16  C   UNL d   1      -5.758   3.860   0.000  0.00  0.00     0.033 A 
BRANCH  12  17
ATOM     17  S   UNL d   1      -5.704   1.689   0.000  0.00  0.00    -0.110 SA
ATOM     18  C   UNL d   1      -6.223   1.037   0.000  0.00  0.00     0.074 C 
ENDBRANCH  12  17
ENDBRANCH   2  11
TORSDOF 4
