REMARK  3 active torsions:
REMARK  status: ('A' for Active; 'I' for Inactive)
REMARK    1  A    between atoms: C_3  and  C_1 
REMARK       I    between atoms: N_6  and  C_3 
REMARK    2  A    between atoms: C_12  and  N_5 
REMARK    3  A    between atoms: C_8  and  N_6 
ROOT
ATOM      1  C   UNL d   1      -3.770   3.030   0.000  0.00  0.00     0.348 C 
ATOM      2  N   UNL d   1      -4.597   2.934   0.000  0.00  0.00    -0.362 NA
ATOM      3  O   UNL d   1      -3.431   3.812   0.000  0.00  0.00    -0.249 OA
ENDROOT
BRANCH   1   4
ATOM      4  C   UNL d   1      -3.281   2.353   0.000  0.00  0.00     0.173 A 
ATOM      5  N   UNL d   1      -3.544   1.563   0.000  0.00  0.00    -0.159 NA
ATOM      6  N   UNL d   1      -2.867   1.078   0.000  0.00  0.00    -0.227 N 
ATOM      7  C   UNL d   1      -2.202   1.563   0.000  0.00  0.00     0.102 A 
ATOM      8  C   UNL d   1      -2.453   2.353   0.000  0.00  0.00     0.048 A 
BRANCH   6   9
ATOM      9  C   UNL d   1      -2.867   0.251   0.000  0.00  0.00     0.101 C 
ATOM     10  C   UNL d   1      -2.282  -0.330   0.000  0.00  0.00     0.022 C 
ENDBRANCH   6   9
ENDBRANCH   1   4
BRANCH   2  11
ATOM     11  C   UNL d   1      -5.425   2.955   0.000  0.00  0.00     0.146 A 
ATOM     12  C   UNL d   1      -5.864   2.244   0.000  0.00  0.00     0.087 A 
ATOM     13 CL   UNL d   1      -5.462   1.513   0.000  0.00  0.00    -0.080 Cl
ATOM     14  C   UNL d   1      -6.674   2.265   0.000  0.00  0.00     0.014 A 
ATOM     15  C   UNL d   1      -7.063   2.992   0.000  0.00  0.00     0.001 A 
ATOM     16  C   UNL d   1      -6.637   3.699   0.000  0.00  0.00     0.003 A 
ATOM     17  C   UNL d   1      -5.813   3.682   0.000  0.00  0.00     0.033 A 
ENDBRANCH   2  11
TORSDOF 3
