REMARK  3 active torsions:
REMARK  status: ('A' for Active; 'I' for Inactive)
REMARK    1  A    between atoms: N_2  and  S_1 
REMARK    2  A    between atoms: C_3  and  C_7 
REMARK       I    between atoms: N_4  and  C_3 
REMARK    3  A    between atoms: C_13  and  N_4 
ROOT
ATOM      1  N   UNL d   1      -3.143   1.733   0.000  0.00  0.00    -0.233 N 
ATOM      2  C   UNL d   1      -1.729   2.557   0.000  0.00  0.00     0.061 A 
ATOM      3  C   UNL d   1      -3.143   2.557   0.000  0.00  0.00     0.091 A 
ATOM      4  C   UNL d   1      -2.440   1.330   0.000  0.00  0.00     0.091 A 
ATOM      5  C   UNL d   1      -1.729   1.733   0.000  0.00  0.00     0.025 A 
ATOM      6  C   UNL d   1      -2.440   2.976   0.000  0.00  0.00     0.025 A 
ENDROOT
BRANCH   2   7
ATOM      7  C   UNL d   1      -1.010   2.976   0.000  0.00  0.00     0.279 C 
ATOM      8  N   UNL d   1      -0.295   2.552   0.000  0.00  0.00    -0.208 NA
ATOM      9  O   UNL d   1      -1.006   3.791   0.000  0.00  0.00    -0.265 OA
BRANCH   8  10
ATOM     10  C   UNL d   1       0.424   2.964   0.000  0.00  0.00     0.085 A 
ATOM     11  C   UNL d   1       0.428   3.799   0.000  0.00  0.00     0.019 A 
ATOM     12  C   UNL d   1       1.151   4.203   0.000  0.00  0.00     0.002 A 
ATOM     13  C   UNL d   1       1.862   3.787   0.000  0.00  0.00     0.000 A 
ATOM     14  C   UNL d   1       1.858   2.956   0.000  0.00  0.00     0.002 A 
ATOM     15  C   UNL d   1       2.582   4.194   0.000  0.00  0.00     0.000 C 
ATOM     16  C   UNL d   1       1.139   2.552   0.000  0.00  0.00     0.019 A 
ENDBRANCH   8  10
ENDBRANCH   2   7
BRANCH   1  17
ATOM     17  S   UNL d   1      -3.862   1.322   0.000  0.00  0.00     0.252 S 
ATOM     18  O   UNL d   1      -3.450   0.607   0.000  0.00  0.00    -0.204 OA
ATOM     19  O   UNL d   1      -4.261   2.120   0.000  0.00  0.00    -0.204 OA
ATOM     20  C   UNL d   1      -4.573   0.919   0.000  0.00  0.00     0.164 C 
ENDBRANCH   1  17
TORSDOF 3
