REMARK  6 active torsions:
REMARK  status: ('A' for Active; 'I' for Inactive)
REMARK    1  A    between atoms: C_3  and  N_1 
REMARK       I    between atoms: C_2  and  N_10 
REMARK    2  A    between atoms: C_9  and  C_2 
REMARK    3  A    between atoms: C_15  and  N_4 
REMARK    4  A    between atoms: O_14  and  C_8 
REMARK    5  A    between atoms: N_10  and  C_13 
REMARK    6  A    between atoms: C_13  and  C_15 
ROOT
ATOM      1  N   UNL d   1      -2.326   7.905   0.000  0.00  0.00    -0.300 N 
ATOM      2  N   UNL d   1      -2.326   6.256   0.000  0.00  0.00    -0.299 N 
ATOM      3  C   UNL d   1      -3.037   7.494   0.000  0.00  0.00     0.100 A 
ATOM      4  C   UNL d   1      -1.608   7.490   0.000  0.00  0.00     0.100 A 
ATOM      5  C   UNL d   1      -3.037   6.672   0.000  0.00  0.00     0.100 A 
ATOM      6  C   UNL d   1      -1.608   6.672   0.000  0.00  0.00     0.100 A 
ENDROOT
BRANCH   2   7
ATOM      7  C   UNL d   1      -2.326   5.434   0.000  0.00  0.00     0.101 C 
BRANCH   7   8
ATOM      8  C   UNL d   1      -3.037   5.014   0.000  0.00  0.00     0.121 C 
BRANCH   8   9
ATOM      9  N   UNL d   1      -3.037   4.200   0.000  0.00  0.00    -0.205 NA
ATOM     10  C   UNL d   1      -3.747   3.789   0.000  0.00  0.00     0.279 C 
ATOM     11  O   UNL d   1      -4.457   4.192   0.000  0.00  0.00    -0.265 OA
BRANCH  10  12
ATOM     12  C   UNL d   1      -3.747   2.954   0.000  0.00  0.00     0.058 A 
ATOM     13  C   UNL d   1      -4.433   2.555   0.000  0.00  0.00     0.005 A 
ATOM     14  C   UNL d   1      -4.433   1.720   0.000  0.00  0.00     0.000 A 
ATOM     15  C   UNL d   1      -3.722   1.309   0.000  0.00  0.00     0.000 A 
ATOM     16  C   UNL d   1      -3.003   1.741   0.000  0.00  0.00     0.000 A 
ATOM     17  C   UNL d   1      -3.012   2.551   0.000  0.00  0.00     0.005 A 
ENDBRANCH  10  12
ENDBRANCH   8   9
ENDBRANCH   7   8
ENDBRANCH   2   7
BRANCH   1  18
ATOM     18  C   UNL d   1      -2.326   8.728   0.000  0.00  0.00     0.086 A 
ATOM     19  C   UNL d   1      -3.037   9.148   0.000  0.00  0.00     0.110 A 
ATOM     20  C   UNL d   1      -3.037   9.974   0.000  0.00  0.00     0.026 A 
ATOM     21  C   UNL d   1      -2.326  10.373   0.000  0.00  0.00     0.002 A 
ATOM     22  C   UNL d   1      -1.608   9.962   0.000  0.00  0.00     0.002 A 
ATOM     23  C   UNL d   1      -1.608   9.148   0.000  0.00  0.00     0.019 A 
BRANCH  19  24
ATOM     24  O   UNL d   1      -3.760   8.728   0.000  0.00  0.00    -0.327 OA
ATOM     25  C   UNL d   1      -4.470   9.152   0.000  0.00  0.00     0.181 C 
ENDBRANCH  19  24
ENDBRANCH   1  18
TORSDOF 6
