REMARK  6 active torsions:
REMARK  status: ('A' for Active; 'I' for Inactive)
REMARK    1  A    between atoms: N_13  and  C_4 
REMARK    2  A    between atoms: O_17  and  C_9 
REMARK    3  A    between atoms: O_18  and  C_11 
REMARK    4  A    between atoms: C_19  and  N_13 
REMARK    5  A    between atoms: C_15  and  C_20 
REMARK    6  A    between atoms: C_20  and  C_19 
ROOT
ATOM      1  C   UNL d   1       5.737  -1.873   0.000  0.00  0.00     0.101 C 
ENDROOT
BRANCH   1   2
ATOM      2  N   UNL d   1       6.431  -2.285   0.000  0.00  0.00    -0.225 NA
BRANCH   2   3
ATOM      3  C   UNL d   1       6.431  -3.094   0.000  0.00  0.00     0.169 A 
ATOM      4  C   UNL d   1       7.101  -3.477   0.000  0.00  0.00     0.094 A 
ATOM      5  C   UNL d   1       7.096  -4.260   0.000  0.00  0.00     0.190 A 
ATOM      6  C   UNL d   1       8.452  -3.489   0.000  0.00  0.00     0.128 A 
ATOM      7  N   UNL d   1       6.431  -4.647   0.000  0.00  0.00    -0.203 NA
ATOM      8  N   UNL d   1       7.766  -4.647   0.000  0.00  0.00    -0.128 NA
ATOM      9  C   UNL d   1       5.750  -4.260   0.000  0.00  0.00     0.202 A 
ATOM     10  N   UNL d   1       5.750  -3.477   0.000  0.00  0.00    -0.205 NA
ATOM     11  N   UNL d   1       8.439  -4.268   0.000  0.00  0.00    -0.145 NA
ENDBRANCH   2   3
ENDBRANCH   1   2
BRANCH   1  12
ATOM     12  C   UNL d   1       5.737  -1.048   0.000  0.00  0.00     0.021 C 
BRANCH  12  13
ATOM     13  C   UNL d   1       5.030  -0.631   0.000  0.00  0.00     0.004 A 
ATOM     14  C   UNL d   1       4.323  -1.040   0.000  0.00  0.00     0.026 A 
ATOM     15  C   UNL d   1       3.603  -0.623   0.000  0.00  0.00     0.116 A 
ATOM     16  C   UNL d   1       3.603   0.202   0.000  0.00  0.00     0.116 A 
ATOM     17  C   UNL d   1       4.323   0.615   0.000  0.00  0.00     0.026 A 
ATOM     18  C   UNL d   1       5.038   0.198   0.000  0.00  0.00     0.002 A 
BRANCH  15  19
ATOM     19  O   UNL d   1       2.883  -1.040   0.000  0.00  0.00    -0.326 OA
ATOM     20  C   UNL d   1       2.883  -1.873   0.000  0.00  0.00     0.181 C 
ENDBRANCH  15  19
BRANCH  16  21
ATOM     21  O   UNL d   1       2.883   0.627   0.000  0.00  0.00    -0.326 OA
ATOM     22  C   UNL d   1       2.163   0.210   0.000  0.00  0.00     0.181 C 
ENDBRANCH  16  21
ENDBRANCH  12  13
ENDBRANCH   1  12
TORSDOF 6
