REMARK  4 active torsions:
REMARK  status: ('A' for Active; 'I' for Inactive)
REMARK    1  A    between atoms: N_9  and  C_1 
REMARK    2  A    between atoms: C_5  and  O_12 
REMARK    3  A    between atoms: C_13  and  N_9 
REMARK    4  A    between atoms: O_12  and  C_17 
ROOT
ATOM      1  C   UNL d   1       5.435 -10.423   0.000  0.00  0.00     0.083 A 
ATOM      2  C   UNL d   1       4.008  -9.589   0.000  0.00  0.00     0.102 A 
ATOM      3  C   UNL d   1       5.443  -9.589   0.000  0.00  0.00     0.021 A 
ATOM      4  C   UNL d   1       4.722 -10.836   0.000  0.00  0.00     0.021 A 
ATOM      5  C   UNL d   1       4.730  -9.176   0.000  0.00  0.00     0.026 A 
ATOM      6  C   UNL d   1       4.008 -10.415   0.000  0.00  0.00     0.026 A 
ENDROOT
BRANCH   1   7
ATOM      7  N   UNL d   1       6.156 -10.836   0.000  0.00  0.00    -0.227 NA
BRANCH   7   8
ATOM      8  C   UNL d   1       6.156 -11.662   0.000  0.00  0.00     0.169 A 
ATOM      9  C   UNL d   1       6.832 -12.054   0.000  0.00  0.00     0.094 A 
ATOM     10  C   UNL d   1       6.824 -12.842   0.000  0.00  0.00     0.190 A 
ATOM     11  C   UNL d   1       8.196 -12.067   0.000  0.00  0.00     0.128 A 
ATOM     12  N   UNL d   1       7.508 -13.230   0.000  0.00  0.00    -0.128 NA
ATOM     13  N   UNL d   1       6.156 -13.230   0.000  0.00  0.00    -0.203 NA
ATOM     14  N   UNL d   1       8.188 -12.855   0.000  0.00  0.00    -0.145 NA
ATOM     15  C   UNL d   1       5.472 -12.842   0.000  0.00  0.00     0.202 A 
ATOM     16  N   UNL d   1       5.472 -12.054   0.000  0.00  0.00    -0.205 NA
ENDBRANCH   7   8
ENDBRANCH   1   7
BRANCH   2  17
ATOM     17  O   UNL d   1       3.295  -9.176   0.000  0.00  0.00    -0.253 OA
BRANCH  17  18
ATOM     18  C   UNL d   1       3.303  -8.350   0.000  0.00  0.00     0.530 C 
ATOM     19  F   UNL d   1       4.021  -7.937   0.000  0.00  0.00    -0.144 F 
ATOM     20  F   UNL d   1       2.590  -7.937   0.000  0.00  0.00    -0.144 F 
ATOM     21  F   UNL d   1       3.308  -7.099   0.000  0.00  0.00    -0.144 F 
ENDBRANCH  17  18
ENDBRANCH   2  17
TORSDOF 4
