REMARK  5 active torsions:
REMARK  status: ('A' for Active; 'I' for Inactive)
REMARK    1  A    between atoms: N_7  and  C_1 
REMARK    2  A    between atoms: O_17  and  C_5 
REMARK    3  A    between atoms: C_10  and  N_7 
REMARK    4  A    between atoms: O_18  and  C_8 
REMARK    5  A    between atoms: O_19  and  C_9 
ROOT
ATOM      1  C   UNL d   1       4.272  -9.660   0.000  0.00  0.00     0.139 A 
ATOM      2  C   UNL d   1       4.272 -10.485   0.000  0.00  0.00     0.120 A 
ATOM      3  C   UNL d   1       5.000  -9.247   0.000  0.00  0.00     0.120 A 
ATOM      4  C   UNL d   1       5.699 -10.485   0.000  0.00  0.00     0.087 A 
ATOM      5  C   UNL d   1       5.712  -9.664   0.000  0.00  0.00     0.045 A 
ATOM      6  C   UNL d   1       4.992 -10.910   0.000  0.00  0.00     0.045 A 
ENDROOT
BRANCH   4   7
ATOM      7  N   UNL d   1       6.419 -10.901   0.000  0.00  0.00    -0.226 NA
BRANCH   7   8
ATOM      8  C   UNL d   1       6.419 -11.722   0.000  0.00  0.00     0.169 A 
ATOM      9  C   UNL d   1       7.088 -12.122   0.000  0.00  0.00     0.094 A 
ATOM     10  C   UNL d   1       7.088 -12.909   0.000  0.00  0.00     0.190 A 
ATOM     11  C   UNL d   1       8.452 -12.126   0.000  0.00  0.00     0.128 A 
ATOM     12  N   UNL d   1       7.766 -13.296   0.000  0.00  0.00    -0.128 NA
ATOM     13  N   UNL d   1       6.419 -13.296   0.000  0.00  0.00    -0.203 NA
ATOM     14  N   UNL d   1       8.439 -12.918   0.000  0.00  0.00    -0.145 NA
ATOM     15  C   UNL d   1       5.724 -12.909   0.000  0.00  0.00     0.202 A 
ATOM     16  N   UNL d   1       5.724 -12.122   0.000  0.00  0.00    -0.205 NA
ENDBRANCH   7   8
ENDBRANCH   4   7
BRANCH   3  17
ATOM     17  O   UNL d   1       5.005  -8.414   0.000  0.00  0.00    -0.326 OA
ATOM     18  C   UNL d   1       4.285  -7.997   0.000  0.00  0.00     0.181 C 
ENDBRANCH   3  17
BRANCH   2  19
ATOM     19  O   UNL d   1       3.552 -10.901   0.000  0.00  0.00    -0.326 OA
ATOM     20  C   UNL d   1       3.552 -11.735   0.000  0.00  0.00     0.181 C 
ENDBRANCH   2  19
BRANCH   1  21
ATOM     21  O   UNL d   1       3.561  -9.235   0.000  0.00  0.00    -0.324 OA
ATOM     22  C   UNL d   1       2.833  -9.651   0.000  0.00  0.00     0.182 C 
ENDBRANCH   1  21
TORSDOF 5
