REMARK  3 active torsions:
REMARK  status: ('A' for Active; 'I' for Inactive)
REMARK    1  A    between atoms: C_7  and  C_1 
REMARK       I    between atoms: C_6  and  N_9 
REMARK       I    between atoms: N_8  and  C_6 
REMARK    2  A    between atoms: N_9  and  C_7 
REMARK    3  A    between atoms: C_11  and  N_8 
ROOT
ATOM      1  C   UNL d   1      -3.764   3.050   0.000  0.00  0.00     0.369 C 
ATOM      2  N   UNL d   1      -4.590   2.967   0.000  0.00  0.00    -0.191 NA
ATOM      3  N   UNL d   1      -3.280   2.387   0.000  0.00  0.00    -0.189 NA
ATOM      4  O   UNL d   1      -3.426   3.805   0.000  0.00  0.00    -0.242 OA
ENDROOT
BRANCH   3   5
ATOM      5  C   UNL d   1      -2.462   2.474   0.000  0.00  0.00     0.107 C 
BRANCH   5   6
ATOM      6  C   UNL d   1      -1.974   1.798   0.000  0.00  0.00     0.058 A 
ATOM      7  C   UNL d   1      -1.147   1.798   0.000  0.00  0.00     0.104 A 
ATOM      8  N   UNL d   1      -0.889   1.010   0.000  0.00  0.00    -0.165 NA
ATOM      9  C   UNL d   1      -0.663   2.466   0.000  0.00  0.00     0.023 C 
ATOM     10  N   UNL d   1      -1.561   0.526   0.000  0.00  0.00    -0.225 N 
ATOM     11  C   UNL d   1      -2.228   1.010   0.000  0.00  0.00     0.104 A 
ATOM     12  C   UNL d   1      -1.561  -0.292   0.000  0.00  0.00     0.121 C 
ENDBRANCH   5   6
ENDBRANCH   3   5
BRANCH   2  13
ATOM     13  C   UNL d   1      -4.915   2.216   0.000  0.00  0.00     0.086 A 
ATOM     14  C   UNL d   1      -4.431   1.548   0.000  0.00  0.00     0.020 A 
ATOM     15  C   UNL d   1      -4.778   0.797   0.000  0.00  0.00     0.013 A 
ATOM     16  C   UNL d   1      -5.591   0.709   0.000  0.00  0.00     0.058 A 
ATOM     17  C   UNL d   1      -6.063   1.377   0.000  0.00  0.00     0.013 A 
ATOM     18 CL   UNL d   1      -5.934  -0.042   0.000  0.00  0.00    -0.082 Cl
ATOM     19  C   UNL d   1      -5.742   2.128   0.000  0.00  0.00     0.020 A 
ENDBRANCH   2  13
TORSDOF 3
