REMARK  2 active torsions:
REMARK  status: ('A' for Active; 'I' for Inactive)
REMARK    1  A    between atoms: C_2  and  N_1 
REMARK    2  A    between atoms: N_8  and  C_3 
REMARK       I    between atoms: C_12  and  N_8 
ROOT
ATOM      1  N   UNL d   1      -4.465   5.978   0.000  0.00  0.00    -0.189 N 
ATOM      2  C   UNL d   1      -3.803   5.481   0.000  0.00  0.00     0.171 A 
ATOM      3  N   UNL d   1      -4.203   6.764   0.000  0.00  0.00    -0.162 NA
ATOM      4  C   UNL d   1      -3.131   5.964   0.000  0.00  0.00     0.060 A 
ATOM      5  C   UNL d   1      -3.375   6.750   0.000  0.00  0.00     0.105 A 
ATOM      6  C   UNL d   1      -2.878   7.412   0.000  0.00  0.00     0.023 C 
ENDROOT
BRANCH   1   7
ATOM      7  C   UNL d   1      -5.251   5.771   0.000  0.00  0.00     0.197 A 
ATOM      8  N   UNL d   1      -5.830   6.359   0.000  0.00  0.00    -0.221 NA
ATOM      9  C   UNL d   1      -6.575   5.978   0.000  0.00  0.00     0.090 A 
ATOM     10  C   UNL d   1      -7.338   6.253   0.000  0.00  0.00     0.020 A 
ATOM     11  C   UNL d   1      -6.423   5.164   0.000  0.00  0.00     0.050 A 
ATOM     12  C   UNL d   1      -7.978   5.729   0.000  0.00  0.00     0.002 A 
ATOM     13  C   UNL d   1      -7.826   4.929   0.000  0.00  0.00     0.001 A 
ATOM     14  C   UNL d   1      -7.053   4.639   0.000  0.00  0.00     0.008 A 
ATOM     15  S   UNL d   1      -5.610   5.049   0.000  0.00  0.00    -0.047 SA
ENDBRANCH   1   7
BRANCH   2  16
ATOM     16  N   UNL d   1      -3.807   4.653   0.000  0.00  0.00    -0.189 NA
ATOM     17  C   UNL d   1      -3.099   4.258   0.000  0.00  0.00     0.281 C 
ATOM     18  O   UNL d   1      -3.099   3.430   0.000  0.00  0.00    -0.265 OA
ATOM     19  C   UNL d   1      -2.382   4.653   0.000  0.00  0.00     0.068 C 
ENDBRANCH   2  16
TORSDOF 2
