REMARK  3 active torsions:
REMARK  status: ('A' for Active; 'I' for Inactive)
REMARK    1  A    between atoms: C_2  and  N_1 
REMARK    2  A    between atoms: N_8  and  C_3 
REMARK       I    between atoms: C_9  and  N_8 
REMARK    3  A    between atoms: C_10  and  C_9 
ROOT
ATOM      1  N   UNL d   1      -4.428   5.934   0.000  0.00  0.00    -0.189 N 
ATOM      2  C   UNL d   1      -3.795   5.401   0.000  0.00  0.00     0.171 A 
ATOM      3  N   UNL d   1      -4.125   6.696   0.000  0.00  0.00    -0.162 NA
ATOM      4  C   UNL d   1      -3.107   5.856   0.000  0.00  0.00     0.060 A 
ATOM      5  C   UNL d   1      -3.300   6.640   0.000  0.00  0.00     0.105 A 
ATOM      6  C   UNL d   1      -2.763   7.274   0.000  0.00  0.00     0.023 C 
ENDROOT
BRANCH   1   7
ATOM      7  C   UNL d   1      -5.241   5.759   0.000  0.00  0.00     0.197 A 
ATOM      8  N   UNL d   1      -5.819   6.347   0.000  0.00  0.00    -0.221 NA
ATOM      9  C   UNL d   1      -6.562   5.966   0.000  0.00  0.00     0.090 A 
ATOM     10  C   UNL d   1      -7.324   6.241   0.000  0.00  0.00     0.020 A 
ATOM     11  C   UNL d   1      -6.411   5.154   0.000  0.00  0.00     0.050 A 
ATOM     12  C   UNL d   1      -7.962   5.718   0.000  0.00  0.00     0.002 A 
ATOM     13  C   UNL d   1      -7.811   4.920   0.000  0.00  0.00     0.001 A 
ATOM     14  C   UNL d   1      -7.040   4.630   0.000  0.00  0.00     0.008 A 
ATOM     15  S   UNL d   1      -5.599   5.039   0.000  0.00  0.00    -0.047 SA
ENDBRANCH   1   7
BRANCH   2  16
ATOM     16  N   UNL d   1      -3.841   4.575   0.000  0.00  0.00    -0.189 NA
ATOM     17  C   UNL d   1      -3.153   4.139   0.000  0.00  0.00     0.281 C 
ATOM     18  O   UNL d   1      -2.423   4.520   0.000  0.00  0.00    -0.265 OA
BRANCH  17  19
ATOM     19  C   UNL d   1      -3.194   3.313   0.000  0.00  0.00     0.058 A 
ATOM     20  C   UNL d   1      -3.231   2.478   0.000  0.00  0.00     0.005 A 
ATOM     21  C   UNL d   1      -2.501   2.864   0.000  0.00  0.00     0.005 A 
ENDBRANCH  17  19
ENDBRANCH   2  16
TORSDOF 3
