REMARK  6 active torsions:
REMARK  status: ('A' for Active; 'I' for Inactive)
REMARK    1  A    between atoms: C_2  and  S_1 
REMARK    2  A    between atoms: N_7  and  S_1 
REMARK    3  A    between atoms: C_15  and  N_7 
REMARK    4  A    between atoms: C_14  and  O_21 
REMARK    5  A    between atoms: C_24  and  C_15 
REMARK    6  A    between atoms: O_21  and  C_24 
ROOT
ATOM      1  S   UNL d   1      -4.464   4.180   0.000  0.00  0.00     0.285 S 
ATOM      2  O   UNL d   1      -4.881   4.900   0.000  0.00  0.00    -0.198 OA
ATOM      3  O   UNL d   1      -4.052   3.465   0.000  0.00  0.00    -0.198 OA
ENDROOT
BRANCH   1   4
ATOM      4  C   UNL d   1      -5.193   3.768   0.000  0.00  0.00     0.107 A 
ATOM      5  C   UNL d   1      -5.899   4.180   0.000  0.00  0.00     0.040 A 
ATOM      6  C   UNL d   1      -6.605   3.768   0.000  0.00  0.00     0.123 A 
ATOM      7  O   UNL d   1      -7.320   4.180   0.000  0.00  0.00    -0.301 OA
ATOM      8  C   UNL d   1      -6.605   2.942   0.000  0.00  0.00     0.123 A 
ATOM      9  C   UNL d   1      -8.035   3.768   0.000  0.00  0.00     0.149 A 
ATOM     10  C   UNL d   1      -8.035   2.942   0.000  0.00  0.00     0.149 A 
ATOM     11  O   UNL d   1      -7.320   2.530   0.000  0.00  0.00    -0.301 OA
ATOM     12  C   UNL d   1      -5.899   2.530   0.000  0.00  0.00     0.028 A 
ATOM     13  C   UNL d   1      -5.193   2.942   0.000  0.00  0.00     0.015 A 
ENDBRANCH   1   4
BRANCH   1  14
ATOM     14  N   UNL d   1      -3.749   4.597   0.000  0.00  0.00    -0.155 NA
BRANCH  14  15
ATOM     15  C   UNL d   1      -3.034   4.189   0.000  0.00  0.00     0.139 C 
BRANCH  15  16
ATOM     16  C   UNL d   1      -2.319   4.597   0.000  0.00  0.00     0.144 C 
BRANCH  16  17
ATOM     17  O   UNL d   1      -1.604   4.189   0.000  0.00  0.00    -0.303 OA
BRANCH  17  18
ATOM     18  C   UNL d   1      -0.889   4.597   0.000  0.00  0.00     0.100 A 
ATOM     19  C   UNL d   1      -0.889   5.422   0.000  0.00  0.00     0.027 A 
ATOM     20  C   UNL d   1      -0.174   5.835   0.000  0.00  0.00     0.032 A 
ATOM     21  C   UNL d   1       0.541   5.422   0.000  0.00  0.00     0.140 A 
ATOM     22  C   UNL d   1       0.541   4.597   0.000  0.00  0.00     0.032 A 
ATOM     23  F   UNL d   1       1.270   5.835   0.000  0.00  0.00    -0.204 F 
ATOM     24  C   UNL d   1      -0.174   4.189   0.000  0.00  0.00     0.027 A 
ENDBRANCH  17  18
ENDBRANCH  16  17
ENDBRANCH  15  16
ENDBRANCH  14  15
ENDBRANCH   1  14
TORSDOF 6
