REMARK  5 active torsions:
REMARK  status: ('A' for Active; 'I' for Inactive)
REMARK    1  A    between atoms: C_3  and  C_1 
REMARK       I    between atoms: N_4  and  C_1 
REMARK    2  A    between atoms: C_9  and  N_4 
REMARK    3  A    between atoms: C_5  and  O_6 
REMARK    4  A    between atoms: O_6  and  C_10 
REMARK    5  A    between atoms: C_10  and  C_9 
ROOT
ATOM      1  C   UNL d   1      -1.522   7.045   0.000  0.00  0.00     0.279 C 
ATOM      2  O   UNL d   1      -1.522   6.220   0.000  0.00  0.00    -0.265 OA
ATOM      3  N   UNL d   1      -2.237   7.457   0.000  0.00  0.00    -0.204 NA
ENDROOT
BRANCH   3   4
ATOM      4  C   UNL d   1      -2.952   7.045   0.000  0.00  0.00     0.129 C 
BRANCH   4   5
ATOM      5  C   UNL d   1      -3.667   7.457   0.000  0.00  0.00     0.143 C 
BRANCH   5   6
ATOM      6  O   UNL d   1      -4.382   7.045   0.000  0.00  0.00    -0.303 OA
BRANCH   6   7
ATOM      7  C   UNL d   1      -5.110   7.457   0.000  0.00  0.00     0.100 A 
ATOM      8  C   UNL d   1      -5.110   8.282   0.000  0.00  0.00     0.025 A 
ATOM      9  C   UNL d   1      -5.816   8.695   0.000  0.00  0.00     0.002 A 
ATOM     10  C   UNL d   1      -6.527   8.282   0.000  0.00  0.00     0.000 A 
ATOM     11  C   UNL d   1      -6.527   7.457   0.000  0.00  0.00     0.002 A 
ATOM     12  C   UNL d   1      -5.816   7.045   0.000  0.00  0.00     0.025 A 
ENDBRANCH   6   7
ENDBRANCH   5   6
ENDBRANCH   4   5
ENDBRANCH   3   4
BRANCH   1  13
ATOM     13  C   UNL d   1      -0.811   7.457   0.000  0.00  0.00     0.058 A 
ATOM     14  C   UNL d   1      -0.105   7.045   0.000  0.00  0.00     0.005 A 
ATOM     15  C   UNL d   1       0.610   7.457   0.000  0.00  0.00     0.000 A 
ATOM     16  C   UNL d   1       0.610   8.282   0.000  0.00  0.00     0.000 A 
ATOM     17  C   UNL d   1      -0.105   8.695   0.000  0.00  0.00     0.000 A 
ATOM     18  C   UNL d   1      -0.811   8.282   0.000  0.00  0.00     0.005 A 
ENDBRANCH   1  13
TORSDOF 5
