REMARK  6 active torsions:
REMARK  status: ('A' for Active; 'I' for Inactive)
REMARK    1  A    between atoms: C_2  and  C_1 
REMARK       I    between atoms: N_10  and  C_1 
REMARK    2  A    between atoms: C_3  and  C_4 
REMARK    3  A    between atoms: C_16  and  N_10 
REMARK    4  A    between atoms: C_11  and  O_12 
REMARK    5  A    between atoms: O_12  and  C_17 
REMARK    6  A    between atoms: C_17  and  C_16 
ROOT
ATOM      1  C   UNL d   1      -1.522   7.045   0.000  0.00  0.00     0.279 C 
ATOM      2  O   UNL d   1      -1.522   6.220   0.000  0.00  0.00    -0.265 OA
ATOM      3  N   UNL d   1      -2.237   7.457   0.000  0.00  0.00    -0.204 NA
ENDROOT
BRANCH   1   4
ATOM      4  C   UNL d   1      -0.811   7.457   0.000  0.00  0.00     0.058 A 
ATOM      5  C   UNL d   1      -0.811   8.282   0.000  0.00  0.00     0.004 A 
ATOM      6  C   UNL d   1      -0.105   8.695   0.000  0.00  0.00    -0.004 A 
ATOM      7  C   UNL d   1       0.619   8.282   0.000  0.00  0.00    -0.023 A 
ATOM      8  C   UNL d   1       0.619   7.457   0.000  0.00  0.00    -0.004 A 
ATOM      9  C   UNL d   1      -0.096   7.045   0.000  0.00  0.00     0.004 A 
BRANCH   7  10
ATOM     10  C   UNL d   1       1.338   8.695   0.000  0.00  0.00     0.019 C 
ATOM     11  C   UNL d   1       2.067   9.107   0.000  0.00  0.00     0.004 C 
ATOM     12  C   UNL d   1       0.926   9.423   0.000  0.00  0.00     0.004 C 
ATOM     13  C   UNL d   1       1.751   7.975   0.000  0.00  0.00     0.004 C 
ENDBRANCH   7  10
ENDBRANCH   1   4
BRANCH   3  14
ATOM     14  C   UNL d   1      -2.952   7.045   0.000  0.00  0.00     0.129 C 
BRANCH  14  15
ATOM     15  C   UNL d   1      -3.667   7.457   0.000  0.00  0.00     0.143 C 
BRANCH  15  16
ATOM     16  O   UNL d   1      -4.382   7.045   0.000  0.00  0.00    -0.303 OA
BRANCH  16  17
ATOM     17  C   UNL d   1      -5.110   7.457   0.000  0.00  0.00     0.100 A 
ATOM     18  C   UNL d   1      -5.816   7.045   0.000  0.00  0.00     0.025 A 
ATOM     19  C   UNL d   1      -6.527   7.457   0.000  0.00  0.00     0.002 A 
ATOM     20  C   UNL d   1      -6.527   8.282   0.000  0.00  0.00     0.000 A 
ATOM     21  C   UNL d   1      -5.816   8.695   0.000  0.00  0.00     0.002 A 
ATOM     22  C   UNL d   1      -5.110   8.282   0.000  0.00  0.00     0.025 A 
ENDBRANCH  16  17
ENDBRANCH  15  16
ENDBRANCH  14  15
ENDBRANCH   3  14
TORSDOF 6
