REMARK  5 active torsions:
REMARK  status: ('A' for Active; 'I' for Inactive)
REMARK    1  A    between atoms: C_11  and  N_1 
REMARK    2  A    between atoms: C_2  and  S_13 
REMARK       I    between atoms: C_12  and  N_14 
REMARK    3  A    between atoms: C_18  and  C_12 
REMARK    4  A    between atoms: S_13  and  C_18 
REMARK    5  A    between atoms: N_14  and  C_19 
ROOT
ATOM      1  C   UNL d   1       2.330  -0.091   0.000  0.00  0.00     0.286 C 
ATOM      2  N   UNL d   1       1.629  -0.527   0.000  0.00  0.00    -0.208 NA
ATOM      3  O   UNL d   1       2.301   0.734   0.000  0.00  0.00    -0.265 OA
ENDROOT
BRANCH   1   4
ATOM      4  C   UNL d   1       3.060  -0.485   0.000  0.00  0.00     0.101 C 
BRANCH   4   5
ATOM      5  S   UNL d   1       3.761  -0.042   0.000  0.00  0.00    -0.037 SA
BRANCH   5   6
ATOM      6  C   UNL d   1       4.495  -0.440   0.000  0.00  0.00     0.215 A 
ATOM      7  N   UNL d   1       5.241  -0.079   0.000  0.00  0.00    -0.214 NA
ATOM      8  C   UNL d   1       5.813  -0.676   0.000  0.00  0.00     0.107 A 
ATOM      9  C   UNL d   1       6.634  -0.647   0.000  0.00  0.00     0.021 A 
ATOM     10  C   UNL d   1       5.423  -1.397   0.000  0.00  0.00     0.120 A 
ATOM     11  C   UNL d   1       7.070  -1.348   0.000  0.00  0.00     0.002 A 
ATOM     12  C   UNL d   1       6.680  -2.077   0.000  0.00  0.00     0.002 A 
ATOM     13  C   UNL d   1       5.851  -2.102   0.000  0.00  0.00     0.026 A 
ATOM     14  O   UNL d   1       4.607  -1.260   0.000  0.00  0.00    -0.283 OA
ENDBRANCH   5   6
ENDBRANCH   4   5
ENDBRANCH   1   4
BRANCH   2  15
ATOM     15  C   UNL d   1       1.654  -1.348   0.000  0.00  0.00     0.085 A 
ATOM     16  C   UNL d   1       2.393  -1.742   0.000  0.00  0.00     0.021 A 
ATOM     17  C   UNL d   1       2.417  -2.554   0.000  0.00  0.00     0.021 A 
ATOM     18  C   UNL d   1       1.721  -3.002   0.000  0.00  0.00     0.086 A 
ATOM     19  C   UNL d   1       0.995  -2.612   0.000  0.00  0.00     0.021 A 
ATOM     20  C   UNL d   1       0.962  -1.783   0.000  0.00  0.00     0.021 A 
BRANCH  18  21
ATOM     21  N   UNL d   1       1.746  -3.823   0.000  0.00  0.00    -0.189 N 
ATOM     22  N   UNL d   1       1.099  -4.333   0.000  0.00  0.00    -0.038 NA
ATOM     23  N   UNL d   1       1.385  -5.104   0.000  0.00  0.00    -0.022 NA
ATOM     24  N   UNL d   1       2.206  -5.079   0.000  0.00  0.00    -0.104 NA
ATOM     25  C   UNL d   1       2.430  -4.283   0.000  0.00  0.00     0.226 A 
ENDBRANCH  18  21
ENDBRANCH   2  15
TORSDOF 5
