REMARK  6 active torsions:
REMARK  status: ('A' for Active; 'I' for Inactive)
REMARK    1  A    between atoms: C_3  and  C_1 
REMARK    2  A    between atoms: C_4  and  N_2 
REMARK       I    between atoms: N_14  and  C_3 
REMARK    3  A    between atoms: N_5  and  C_19 
REMARK    4  A    between atoms: O_18  and  C_13 
REMARK    5  A    between atoms: C_17  and  N_14 
REMARK    6  A    between atoms: C_19  and  C_17 
ROOT
ATOM      1  N   UNL d   1      -3.153   7.893   0.000  0.00  0.00    -0.300 N 
ATOM      2  N   UNL d   1      -3.141   6.244   0.000  0.00  0.00    -0.299 N 
ATOM      3  C   UNL d   1      -3.874   7.483   0.000  0.00  0.00     0.100 A 
ATOM      4  C   UNL d   1      -2.432   7.487   0.000  0.00  0.00     0.100 A 
ATOM      5  C   UNL d   1      -3.862   6.650   0.000  0.00  0.00     0.100 A 
ATOM      6  C   UNL d   1      -2.432   6.667   0.000  0.00  0.00     0.100 A 
ENDROOT
BRANCH   2   7
ATOM      7  C   UNL d   1      -3.141   5.424   0.000  0.00  0.00     0.101 C 
BRANCH   7   8
ATOM      8  C   UNL d   1      -3.841   5.001   0.000  0.00  0.00     0.121 C 
BRANCH   8   9
ATOM      9  N   UNL d   1      -3.841   4.189   0.000  0.00  0.00    -0.205 NA
ATOM     10  C   UNL d   1      -4.558   3.779   0.000  0.00  0.00     0.280 C 
ATOM     11  O   UNL d   1      -5.266   4.189   0.000  0.00  0.00    -0.265 OA
BRANCH  10  12
ATOM     12  C   UNL d   1      -4.558   2.954   0.000  0.00  0.00     0.065 A 
ATOM     13  C   UNL d   1      -3.886   2.469   0.000  0.00  0.00     0.040 A 
ATOM     14  S   UNL d   1      -4.147   1.686   0.000  0.00  0.00    -0.086 SA
ATOM     15  C   UNL d   1      -4.955   1.686   0.000  0.00  0.00     0.036 A 
ATOM     16  C   UNL d   1      -5.216   2.474   0.000  0.00  0.00     0.012 A 
ENDBRANCH  10  12
ENDBRANCH   8   9
ENDBRANCH   7   8
ENDBRANCH   2   7
BRANCH   1  17
ATOM     17  C   UNL d   1      -3.166   8.718   0.000  0.00  0.00     0.086 A 
ATOM     18  C   UNL d   1      -3.886   9.128   0.000  0.00  0.00     0.110 A 
ATOM     19  C   UNL d   1      -3.886   9.948   0.000  0.00  0.00     0.026 A 
ATOM     20  C   UNL d   1      -3.178  10.371   0.000  0.00  0.00     0.002 A 
ATOM     21  C   UNL d   1      -2.457   9.961   0.000  0.00  0.00     0.002 A 
ATOM     22  C   UNL d   1      -2.445   9.140   0.000  0.00  0.00     0.019 A 
BRANCH  18  23
ATOM     23  O   UNL d   1      -4.595   8.718   0.000  0.00  0.00    -0.327 OA
ATOM     24  C   UNL d   1      -5.316   9.128   0.000  0.00  0.00     0.181 C 
ENDBRANCH  18  23
ENDBRANCH   1  17
TORSDOF 6
