REMARK  6 active torsions:
REMARK  status: ('A' for Active; 'I' for Inactive)
REMARK    1  A    between atoms: N_4  and  C_2 
REMARK    2  A    between atoms: C_9  and  N_4 
REMARK    3  A    between atoms: O_16  and  C_8 
REMARK    4  A    between atoms: O_24  and  C_10 
REMARK    5  A    between atoms: C_22  and  O_16 
REMARK    6  A    between atoms: C_26  and  C_22 
ROOT
ATOM      1  C   UNL d   1       2.167   0.713   0.000  0.00  0.00     0.056 A 
ATOM      2  C   UNL d   1       2.879   1.125   0.000  0.00  0.00     0.166 A 
ATOM      3  C   UNL d   1       2.167  -0.113   0.000  0.00  0.00     0.088 A 
ATOM      4  C   UNL d   1       1.454   1.125   0.000  0.00  0.00     0.031 A 
ATOM      5  N   UNL d   1       3.600   0.713   0.000  0.00  0.00    -0.205 NA
ATOM      6  C   UNL d   1       1.454  -0.525   0.000  0.00  0.00     0.046 A 
ATOM      7  C   UNL d   1       0.742  -0.113   0.000  0.00  0.00     0.124 A 
ATOM      8  C   UNL d   1       0.742   0.713   0.000  0.00  0.00     0.117 A 
ATOM      9  N   UNL d   1       2.879  -0.525   0.000  0.00  0.00    -0.224 NA
ATOM     10  C   UNL d   1       3.600  -0.113   0.000  0.00  0.00     0.200 A 
ENDROOT
BRANCH   2  11
ATOM     11  N   UNL d   1       2.879   1.958   0.000  0.00  0.00    -0.224 NA
BRANCH  11  12
ATOM     12  C   UNL d   1       3.592   2.362   0.000  0.00  0.00     0.110 A 
ATOM     13  C   UNL d   1       4.312   1.958   0.000  0.00  0.00     0.158 A 
ATOM     14  C   UNL d   1       5.029   2.362   0.000  0.00  0.00     0.038 A 
ATOM     15  F   UNL d   1       4.312   1.125   0.000  0.00  0.00    -0.203 F 
ATOM     16  C   UNL d   1       5.029   3.196   0.000  0.00  0.00     0.037 A 
ATOM     17  C   UNL d   1       4.304   3.608   0.000  0.00  0.00     0.008 A 
ATOM     18 BR   UNL d   1       5.754   3.608   0.000  0.00  0.00    -0.049 Br
ATOM     19  C   UNL d   1       3.592   3.196   0.000  0.00  0.00     0.022 A 
ENDBRANCH  11  12
ENDBRANCH   2  11
BRANCH   8  20
ATOM     20  O   UNL d   1       0.017   1.125   0.000  0.00  0.00    -0.326 OA
ATOM     21  C   UNL d   1      -0.696   0.708   0.000  0.00  0.00     0.181 C 
ENDBRANCH   8  20
BRANCH   7  22
ATOM     22  O   UNL d   1       0.017  -0.529   0.000  0.00  0.00    -0.303 OA
BRANCH  22  23
ATOM     23  C   UNL d   1      -0.700  -0.117   0.000  0.00  0.00     0.123 C 
BRANCH  23  24
ATOM     24  C   UNL d   1      -1.413  -0.537   0.000  0.00  0.00     0.028 A 
ATOM     25  C   UNL d   1      -1.408  -1.367   0.000  0.00  0.00     0.021 A 
ATOM     26  C   UNL d   1      -2.121  -1.779   0.000  0.00  0.00     0.080 A 
ATOM     27  N   UNL d   1      -2.846  -1.375   0.000  0.00  0.00    -0.301 N 
ATOM     28  C   UNL d   1      -2.850  -0.550   0.000  0.00  0.00     0.080 A 
ATOM     29  C   UNL d   1      -3.571  -1.800   0.000  0.00  0.00     0.100 C 
ATOM     30  C   UNL d   1      -2.133  -0.129   0.000  0.00  0.00     0.021 A 
ENDBRANCH  23  24
ENDBRANCH  22  23
ENDBRANCH   7  22
TORSDOF 6
