REMARK  3 active torsions:
REMARK  status: ('A' for Active; 'I' for Inactive)
REMARK    1  A    between atoms: C_2  and  C_1 
REMARK    2  A    between atoms: C_5  and  C_2 
REMARK    3  A    between atoms: C_4  and  C_3 
ROOT
ATOM      1  C   UNL d   1       2.459  -1.134   0.000  0.00  0.00     0.045 A 
ATOM      2  C   UNL d   1       3.170  -0.715   0.000  0.00  0.00     0.068 A 
ATOM      3  C   UNL d   1       2.459  -1.957   0.000  0.00  0.00     0.003 A 
ATOM      4  C   UNL d   1       3.888  -1.126   0.000  0.00  0.00     0.006 A 
ATOM      5  C   UNL d   1       3.170  -2.368   0.000  0.00  0.00     0.000 A 
ATOM      6  C   UNL d   1       3.893  -1.948   0.000  0.00  0.00     0.000 A 
ENDROOT
BRANCH   1   7
ATOM      7  C   UNL d   1       1.736  -0.723   0.000  0.00  0.00     0.196 C 
ATOM      8  O   UNL d   1       1.736   0.100   0.000  0.00  0.00    -0.287 OA
BRANCH   7   9
ATOM      9  C   UNL d   1       1.022  -1.138   0.000  0.00  0.00     0.039 A 
ATOM     10  C   UNL d   1       1.022  -1.969   0.000  0.00  0.00     0.005 A 
ATOM     11  C   UNL d   1       0.303  -2.380   0.000  0.00  0.00     0.030 A 
ATOM     12  C   UNL d   1      -0.407  -1.969   0.000  0.00  0.00     0.140 A 
ATOM     13  C   UNL d   1      -0.407  -1.147   0.000  0.00  0.00     0.030 A 
ATOM     14  F   UNL d   1      -1.122  -2.393   0.000  0.00  0.00    -0.204 F 
ATOM     15  C   UNL d   1       0.303  -0.727   0.000  0.00  0.00     0.005 A 
ENDBRANCH   7   9
ENDBRANCH   1   7
BRANCH   2  16
ATOM     16  C   UNL d   1       3.157   0.108   0.000  0.00  0.00     0.211 C 
ATOM     17  O   UNL d   1       2.434   0.511   0.000  0.00  0.00    -0.644 OA
ATOM     18  O   UNL d   1       3.868   0.519   0.000  0.00  0.00    -0.644 OA
ENDBRANCH   2  16
TORSDOF 3
