REMARK  3 active torsions:
REMARK  status: ('A' for Active; 'I' for Inactive)
REMARK    1  A    between atoms: N_4  and  C_1 
REMARK    2  A    between atoms: C_3  and  N_4 
REMARK    3  A    between atoms: C_8  and  C_5 
ROOT
ATOM      1  C   UNL d   1       6.542  -5.192   0.000  0.00  0.00     0.750 A 
ATOM      2  N   UNL d   1       6.542  -6.017   0.000  0.00  0.00    -0.059 NA
ATOM      3  C   UNL d   1       7.254  -6.429   0.000  0.00  0.00     0.103 A 
ATOM      4  N   UNL d   1       7.242  -4.779   0.000  0.00  0.00    -0.058 NA
ATOM      5  C   UNL d   1       7.967  -6.013   0.000  0.00  0.00     0.041 A 
ATOM      6  C   UNL d   1       7.963  -5.179   0.000  0.00  0.00     0.120 A 
ENDROOT
BRANCH   1   7
ATOM      7  N   UNL d   1       5.825  -4.787   0.000  0.00  0.00    -0.059 NA
BRANCH   7   8
ATOM      8  C   UNL d   1       5.112  -5.204   0.000  0.00  0.00     0.101 A 
ATOM      9  C   UNL d   1       5.112  -6.029   0.000  0.00  0.00     0.041 A 
ATOM     10  C   UNL d   1       4.392  -6.442   0.000  0.00  0.00     0.104 A 
ATOM     11  N   UNL d   1       4.392  -7.267   0.000  0.00  0.00    -0.148 N 
ATOM     12  C   UNL d   1       3.679  -6.029   0.000  0.00  0.00     0.021 A 
ATOM     13  C   UNL d   1       3.679  -5.204   0.000  0.00  0.00     0.003 A 
ATOM     14  C   UNL d   1       4.392  -4.792   0.000  0.00  0.00     0.018 A 
ATOM     15  C   UNL d   1       4.392  -3.967   0.000  0.00  0.00     0.002 C 
ENDBRANCH   7   8
ENDBRANCH   1   7
BRANCH   3  16
ATOM     16  C   UNL d   1       7.254  -7.250   0.000  0.00  0.00     0.037 A 
ATOM     17  C   UNL d   1       7.967  -7.654   0.000  0.00  0.00     0.100 A 
ATOM     18  N   UNL d   1       7.979  -8.479   0.000  0.00  0.00    -0.242 NA
ATOM     19  C   UNL d   1       7.263  -8.900   0.000  0.00  0.00     0.099 A 
ATOM     20  C   UNL d   1       6.542  -8.488   0.000  0.00  0.00     0.021 A 
ATOM     21  C   UNL d   1       6.542  -7.667   0.000  0.00  0.00     0.005 A 
ENDBRANCH   3  16
TORSDOF 3
