REMARK  2 active torsions:
REMARK  status: ('A' for Active; 'I' for Inactive)
REMARK    1  A    between atoms: C_6  and  C_1 
REMARK    2  A    between atoms: C_9  and  C_2 
ROOT
ATOM      1  C   UNL d   1       0.067  -2.188   0.000  0.00  0.00     0.039 A 
ATOM      2  C   UNL d   1       0.728  -1.702   0.000  0.00  0.00     0.120 A 
ATOM      3  N   UNL d   1       0.474  -0.915   0.000  0.00  0.00    -0.164 NA
ATOM      4  N   UNL d   1      -0.345  -0.924   0.000  0.00  0.00    -0.228 N 
ATOM      5  C   UNL d   1      -0.599  -1.710   0.000  0.00  0.00     0.085 A 
ATOM      6  C   UNL d   1      -1.019  -0.441   0.000  0.00  0.00     0.101 A 
ATOM      7  C   UNL d   1      -1.431  -1.710   0.000  0.00  0.00     0.021 A 
ATOM      8  C   UNL d   1      -1.685  -0.928   0.000  0.00  0.00     0.022 A 
ENDROOT
BRANCH   1   9
ATOM      9  C   UNL d   1       0.067  -3.012   0.000  0.00  0.00     0.006 A 
ATOM     10  C   UNL d   1      -0.637  -3.424   0.000  0.00  0.00     0.018 A 
ATOM     11  C   UNL d   1      -0.637  -4.248   0.000  0.00  0.00     0.085 A 
ATOM     12  C   UNL d   1      -1.356  -3.012   0.000  0.00  0.00     0.005 A 
ATOM     13  C   UNL d   1      -1.356  -4.668   0.000  0.00  0.00     0.061 A 
ATOM     14  N   UNL d   1       0.079  -4.660   0.000  0.00  0.00    -0.244 NA
ATOM     15  C   UNL d   1      -2.068  -4.248   0.000  0.00  0.00     0.197 A 
ATOM     16  C   UNL d   1      -2.068  -3.432   0.000  0.00  0.00     0.042 A 
ATOM     17  O   UNL d   1      -2.779  -4.668   0.000  0.00  0.00    -0.286 OA
ATOM     18  C   UNL d   1       0.790  -4.248   0.000  0.00  0.00     0.099 A 
ATOM     19  C   UNL d   1       0.786  -3.420   0.000  0.00  0.00     0.021 A 
ENDBRANCH   1   9
BRANCH   2  20
ATOM     20  C   UNL d   1       1.514  -1.951   0.000  0.00  0.00     0.101 A 
ATOM     21  N   UNL d   1       2.122  -1.398   0.000  0.00  0.00    -0.242 NA
ATOM     22  C   UNL d   1       2.900  -1.639   0.000  0.00  0.00     0.099 A 
ATOM     23  C   UNL d   1       3.083  -2.450   0.000  0.00  0.00     0.021 A 
ATOM     24  C   UNL d   1       2.471  -3.008   0.000  0.00  0.00     0.003 A 
ATOM     25  C   UNL d   1       1.689  -2.750   0.000  0.00  0.00     0.021 A 
ENDBRANCH   2  20
TORSDOF 2
