REMARK  7 active torsions:
REMARK  status: ('A' for Active; 'I' for Inactive)
REMARK    1  A    between atoms: N_2  and  S_1 
REMARK    2  A    between atoms: C_5  and  S_1 
REMARK    3  A    between atoms: C_3  and  N_2 
REMARK    4  A    between atoms: C_4  and  C_3 
REMARK    5  A    between atoms: C_13  and  C_3 
REMARK    6  A    between atoms: C_9  and  C_8 
REMARK    7  A    between atoms: O_22  and  C_19 
ROOT
ATOM      1  C   UNL d   1       1.942  -1.312   0.000  0.00  0.00     0.105 A 
ATOM      2  C   UNL d   1       3.367  -0.487   0.000  0.00  0.00     0.000 A 
ATOM      3  C   UNL d   1       2.654  -1.725   0.000  0.00  0.00     0.013 A 
ATOM      4  C   UNL d   1       1.942  -0.487   0.000  0.00  0.00     0.013 A 
ATOM      5  C   UNL d   1       2.654  -0.075   0.000  0.00  0.00     0.001 A 
ATOM      6  C   UNL d   1       3.367  -1.312   0.000  0.00  0.00     0.001 A 
ENDROOT
BRANCH   1   7
ATOM      7  S   UNL d   1       1.217  -1.729   0.000  0.00  0.00     0.285 S 
ATOM      8  O   UNL d   1       0.804  -1.004   0.000  0.00  0.00    -0.198 OA
ATOM      9  O   UNL d   1       1.637  -2.450   0.000  0.00  0.00    -0.198 OA
BRANCH   7  10
ATOM     10  N   UNL d   1       0.500  -2.142   0.000  0.00  0.00    -0.152 NA
BRANCH  10  11
ATOM     11  C   UNL d   1      -0.221  -1.729   0.000  0.00  0.00     0.158 C 
BRANCH  11  12
ATOM     12  C   UNL d   1      -0.221  -0.904   0.000  0.00  0.00     0.230 C 
ATOM     13  O   UNL d   1      -0.933  -0.492   0.000  0.00  0.00    -0.643 OA
ATOM     14  O   UNL d   1       0.492  -0.492   0.000  0.00  0.00    -0.643 OA
ENDBRANCH  11  12
BRANCH  11  15
ATOM     15  C   UNL d   1      -0.933  -2.142   0.000  0.00  0.00     0.025 C 
ATOM     16  C   UNL d   1      -0.933  -2.975   0.000  0.00  0.00     0.002 C 
ATOM     17  C   UNL d   1      -1.646  -1.729   0.000  0.00  0.00     0.002 C 
ENDBRANCH  11  15
ENDBRANCH  10  11
ENDBRANCH   7  10
ENDBRANCH   1   7
BRANCH   2  18
ATOM     18  C   UNL d   1       4.079  -0.075   0.000  0.00  0.00     0.000 A 
ATOM     19  C   UNL d   1       4.792  -0.487   0.000  0.00  0.00     0.002 A 
ATOM     20  C   UNL d   1       5.513  -0.075   0.000  0.00  0.00     0.024 A 
ATOM     21  C   UNL d   1       5.513   0.758   0.000  0.00  0.00     0.094 A 
ATOM     22  C   UNL d   1       4.792   1.171   0.000  0.00  0.00     0.024 A 
ATOM     23  C   UNL d   1       4.079   0.758   0.000  0.00  0.00     0.002 A 
BRANCH  21  24
ATOM     24  O   UNL d   1       6.229   1.175   0.000  0.00  0.00    -0.328 OA
ATOM     25  C   UNL d   1       6.954   0.762   0.000  0.00  0.00     0.181 C 
ENDBRANCH  21  24
ENDBRANCH   2  18
TORSDOF 7
