REMARK  2 active torsions:
REMARK  status: ('A' for Active; 'I' for Inactive)
REMARK    1  A    between atoms: C_3  and  C_1 
REMARK       I    between atoms: C_2  and  N_4 
REMARK    2  A    between atoms: N_4  and  C_9 
ROOT
ATOM      1  C   UNL d   1       1.754  -2.487   0.000  0.00  0.00     0.065 A 
ATOM      2  C   UNL d   1       2.467  -2.075   0.000  0.00  0.00     0.008 A 
ATOM      3  C   UNL d   1       1.042  -2.075   0.000  0.00  0.00     0.008 A 
ATOM      4  C   UNL d   1       1.754  -0.829   0.000  0.00  0.00     0.085 A 
ATOM      5  C   UNL d   1       2.467  -1.242   0.000  0.00  0.00     0.019 A 
ATOM      6  C   UNL d   1       1.042  -1.250   0.000  0.00  0.00     0.019 A 
ENDROOT
BRANCH   4   7
ATOM      7  N   UNL d   1       1.750  -0.004   0.000  0.00  0.00    -0.208 NA
ATOM      8  C   UNL d   1       2.467   0.408   0.000  0.00  0.00     0.279 C 
ATOM      9  O   UNL d   1       2.462   1.233   0.000  0.00  0.00    -0.265 OA
ATOM     10  C   UNL d   1       3.179  -0.004   0.000  0.00  0.00     0.068 C 
ENDBRANCH   4   7
BRANCH   1  11
ATOM     11  C   UNL d   1       1.754  -3.317   0.000  0.00  0.00     0.211 C 
ATOM     12  O   UNL d   1       2.467  -3.729   0.000  0.00  0.00    -0.644 OA
ATOM     13  O   UNL d   1       1.042  -3.729   0.000  0.00  0.00    -0.644 OA
ENDBRANCH   1  11
TORSDOF 2
