REMARK  0 active torsions:
REMARK  status: ('A' for Active; 'I' for Inactive)
ROOT
ATOM      1  C   UNL d   1       5.837  -1.508   0.000  0.00  0.00     0.020 A 
ATOM      2  N   UNL d   1       7.270  -1.512   0.000  0.00  0.00    -0.242 NA
ATOM      3  C   UNL d   1       5.845  -0.685   0.000  0.00  0.00     0.003 A 
ATOM      4  C   UNL d   1       5.126  -1.923   0.000  0.00  0.00     0.013 A 
ATOM      5  C   UNL d   1       5.126  -0.274   0.000  0.00  0.00     0.001 A 
ATOM      6  C   UNL d   1       4.416  -1.512   0.000  0.00  0.00     0.058 A 
ATOM      7  C   UNL d   1       4.416  -0.685   0.000  0.00  0.00     0.011 A 
ATOM      8  C   UNL d   1       6.555  -1.923   0.000  0.00  0.00     0.099 A 
ATOM      9 CL   UNL d   1       3.705  -1.923   0.000  0.00  0.00    -0.082 Cl
ATOM     10  C   UNL d   1       7.270  -0.685   0.000  0.00  0.00     0.099 A 
ATOM     11  C   UNL d   1       6.555  -0.266   0.000  0.00  0.00     0.021 A 
ENDROOT
TORSDOF 0
