REMARK  4 active torsions:
REMARK  status: ('A' for Active; 'I' for Inactive)
REMARK    1  A    between atoms: N_7  and  C_1 
REMARK    2  A    between atoms: C_8  and  C_4 
REMARK    3  A    between atoms: C_10  and  N_7 
REMARK    4  A    between atoms: C_12  and  C_8 
ROOT
ATOM      1  C   UNL d   1      -3.456   2.782   0.000  0.00  0.00     0.184 A 
ATOM      2  N   UNL d   1      -2.736   2.368   0.000  0.00  0.00    -0.129 NA
ATOM      3  N   UNL d   1      -2.736   1.542   0.000  0.00  0.00    -0.147 NA
ATOM      4  C   UNL d   1      -3.440   1.128   0.000  0.00  0.00     0.103 A 
ATOM      5  C   UNL d   1      -4.160   2.358   0.000  0.00  0.00     0.039 A 
ATOM      6  C   UNL d   1      -4.160   1.531   0.000  0.00  0.00     0.022 A 
ATOM      7  C   UNL d   1      -4.880   2.782   0.000  0.00  0.00     0.003 A 
ATOM      8  C   UNL d   1      -4.880   1.118   0.000  0.00  0.00     0.002 A 
ATOM      9  C   UNL d   1      -5.584   1.531   0.000  0.00  0.00     0.000 A 
ATOM     10  C   UNL d   1      -5.584   2.358   0.000  0.00  0.00     0.000 A 
ENDROOT
BRANCH   1  11
ATOM     11  N   UNL d   1      -3.456   3.599   0.000  0.00  0.00    -0.225 NA
BRANCH  11  12
ATOM     12  C   UNL d   1      -2.751   4.012   0.000  0.00  0.00     0.083 A 
ATOM     13  C   UNL d   1      -2.751   4.834   0.000  0.00  0.00     0.020 A 
ATOM     14  C   UNL d   1      -2.047   5.242   0.000  0.00  0.00     0.013 A 
ATOM     15  C   UNL d   1      -1.327   4.849   0.000  0.00  0.00     0.058 A 
ATOM     16  C   UNL d   1      -1.327   4.022   0.000  0.00  0.00     0.013 A 
ATOM     17 CL   UNL d   1      -0.623   5.242   0.000  0.00  0.00    -0.082 Cl
ATOM     18  C   UNL d   1      -2.037   3.599   0.000  0.00  0.00     0.020 A 
ENDBRANCH  11  12
ENDBRANCH   1  11
BRANCH   4  19
ATOM     19  C   UNL d   1      -3.440   0.301   0.000  0.00  0.00     0.021 C 
BRANCH  19  20
ATOM     20  C   UNL d   1      -4.160  -0.112   0.000  0.00  0.00     0.005 A 
ATOM     21  C   UNL d   1      -4.864   0.301   0.000  0.00  0.00     0.021 A 
ATOM     22  C   UNL d   1      -5.574  -0.112   0.000  0.00  0.00     0.099 A 
ATOM     23  N   UNL d   1      -5.574  -0.934   0.000  0.00  0.00    -0.242 NA
ATOM     24  C   UNL d   1      -4.864  -1.347   0.000  0.00  0.00     0.099 A 
ATOM     25  C   UNL d   1      -4.150  -0.924   0.000  0.00  0.00     0.021 A 
ENDBRANCH  19  20
ENDBRANCH   4  19
TORSDOF 4
