REMARK  3 active torsions:
REMARK  status: ('A' for Active; 'I' for Inactive)
REMARK    1  A    between atoms: C_4  and  C_1 
REMARK    2  A    between atoms: C_11  and  C_10 
REMARK    3  A    between atoms: O_20  and  C_11 
ROOT
ATOM      1  C   UNL d   1       5.417  -1.792   0.000  0.00  0.00     0.004 A 
ATOM      2  C   UNL d   1       4.704  -3.029   0.000  0.00  0.00     0.102 A 
ATOM      3  C   UNL d   1       4.704  -2.204   0.000  0.00  0.00     0.023 A 
ATOM      4  O   UNL d   1       5.417  -3.442   0.000  0.00  0.00    -0.307 OA
ATOM      5  C   UNL d   1       6.129  -3.029   0.000  0.00  0.00     0.102 A 
ATOM      6  C   UNL d   1       6.129  -2.204   0.000  0.00  0.00     0.023 A 
ATOM      7  C   UNL d   1       3.992  -3.442   0.000  0.00  0.00     0.046 A 
ATOM      8  C   UNL d   1       3.992  -1.792   0.000  0.00  0.00     0.004 A 
ATOM      9  C   UNL d   1       6.842  -3.442   0.000  0.00  0.00     0.046 A 
ATOM     10  C   UNL d   1       3.275  -3.029   0.000  0.00  0.00     0.105 A 
ATOM     11  C   UNL d   1       3.275  -2.204   0.000  0.00  0.00     0.021 A 
ATOM     12  C   UNL d   1       6.842  -1.792   0.000  0.00  0.00     0.004 A 
ATOM     13  N   UNL d   1       2.554  -3.442   0.000  0.00  0.00    -0.148 N 
ATOM     14  C   UNL d   1       7.562  -3.029   0.000  0.00  0.00     0.105 A 
ATOM     15  C   UNL d   1       7.562  -2.204   0.000  0.00  0.00     0.021 A 
ATOM     16  N   UNL d   1       8.279  -3.442   0.000  0.00  0.00    -0.148 N 
ENDROOT
BRANCH   1  17
ATOM     17  C   UNL d   1       5.417  -0.967   0.000  0.00  0.00     0.005 A 
ATOM     18  C   UNL d   1       6.129  -0.554   0.000  0.00  0.00     0.063 A 
ATOM     19  C   UNL d   1       6.129   0.275   0.000  0.00  0.00     0.005 A 
ATOM     20  C   UNL d   1       5.417   0.688   0.000  0.00  0.00     0.000 A 
ATOM     21  C   UNL d   1       4.700   0.275   0.000  0.00  0.00     0.000 A 
ATOM     22  C   UNL d   1       4.700  -0.554   0.000  0.00  0.00     0.000 A 
BRANCH  18  23
ATOM     23  C   UNL d   1       6.979  -0.592   0.000  0.00  0.00     0.296 C 
ATOM     24  O   UNL d   1       7.354   0.250   0.000  0.00  0.00    -0.259 OA
BRANCH  23  25
ATOM     25  O   UNL d   1       7.763  -0.904   0.000  0.00  0.00    -0.296 OA
ATOM     26  C   UNL d   1       8.604  -0.438   0.000  0.00  0.00     0.185 C 
ENDBRANCH  23  25
ENDBRANCH  18  23
ENDBRANCH   1  17
TORSDOF 3
