REMARK  4 active torsions:
REMARK  status: ('A' for Active; 'I' for Inactive)
REMARK    1  A    between atoms: C_6  and  C_1 
REMARK    2  A    between atoms: C_13  and  C_2 
REMARK    3  A    between atoms: P_4  and  C_3 
REMARK    4  A    between atoms: C_17  and  C_13 
ROOT
ATOM      1  C   UNL d   1       1.207  -0.881   0.000  0.00  0.00     0.112 A 
ATOM      2  C   UNL d   1       0.543  -0.401   0.000  0.00  0.00     0.052 A 
ATOM      3  N   UNL d   1       0.952  -1.670   0.000  0.00  0.00    -0.217 NA
ATOM      4  C   UNL d   1       0.125  -1.670   0.000  0.00  0.00     0.215 A 
ATOM      5  S   UNL d   1      -0.125  -0.889   0.000  0.00  0.00    -0.045 SA
ATOM      6  N   UNL d   1      -0.372  -2.347   0.000  0.00  0.00    -0.120 N 
ENDROOT
BRANCH   1   7
ATOM      7  C   UNL d   1       1.983  -0.593   0.000  0.00  0.00     0.119 A 
ATOM      8  O   UNL d   1       2.647  -1.081   0.000  0.00  0.00    -0.297 OA
ATOM      9  C   UNL d   1       3.319  -0.601   0.000  0.00  0.00     0.191 A 
ATOM     10  C   UNL d   1       3.069   0.184   0.000  0.00  0.00     0.036 A 
ATOM     11  C   UNL d   1       2.246   0.188   0.000  0.00  0.00     0.029 A 
BRANCH   9  12
ATOM     12  P   UNL d   1       4.109  -0.856   0.000  0.00  0.00     0.321 P 
ATOM     13  O   UNL d   1       3.850  -1.645   0.000  0.00  0.00    -0.635 OA
ATOM     14  O   UNL d   1       4.363  -0.067   0.000  0.00  0.00    -0.635 OA
ATOM     15  O   UNL d   1       4.898  -1.107   0.000  0.00  0.00    -0.635 OA
ENDBRANCH   9  12
ENDBRANCH   1   7
BRANCH   2  16
ATOM     16  C   UNL d   1       0.543   0.426   0.000  0.00  0.00     0.008 C 
BRANCH  16  17
ATOM     17  C   UNL d   1       1.257   0.839   0.000  0.00  0.00     0.001 C 
ATOM     18  C   UNL d   1       1.257   1.674   0.000  0.00  0.00     0.000 C 
ATOM     19  C   UNL d   1       1.971   0.426   0.000  0.00  0.00     0.000 C 
ENDBRANCH  16  17
ENDBRANCH   2  16
TORSDOF 4
