REMARK  4 active torsions:
REMARK  status: ('A' for Active; 'I' for Inactive)
REMARK    1  A    between atoms: N_7  and  C_1 
REMARK    2  A    between atoms: C_8  and  C_4 
REMARK    3  A    between atoms: C_10  and  N_7 
REMARK    4  A    between atoms: C_12  and  C_8 
ROOT
ATOM      1  C   UNL d   1       4.293   0.609   0.000  0.00  0.00     0.184 A 
ATOM      2  N   UNL d   1       5.011   0.196   0.000  0.00  0.00    -0.129 NA
ATOM      3  N   UNL d   1       5.011  -0.630   0.000  0.00  0.00    -0.147 NA
ATOM      4  C   UNL d   1       4.298  -1.051   0.000  0.00  0.00     0.103 A 
ATOM      5  C   UNL d   1       3.584   0.188   0.000  0.00  0.00     0.039 A 
ATOM      6  C   UNL d   1       3.584  -0.638   0.000  0.00  0.00     0.022 A 
ATOM      7  C   UNL d   1       2.866   0.601   0.000  0.00  0.00     0.003 A 
ATOM      8  C   UNL d   1       2.866  -1.056   0.000  0.00  0.00     0.002 A 
ATOM      9  C   UNL d   1       2.153  -0.643   0.000  0.00  0.00     0.000 A 
ATOM     10  C   UNL d   1       2.153   0.188   0.000  0.00  0.00     0.000 A 
ENDROOT
BRANCH   1  11
ATOM     11  N   UNL d   1       4.285   1.435   0.000  0.00  0.00    -0.225 NA
BRANCH  11  12
ATOM     12  C   UNL d   1       4.998   1.848   0.000  0.00  0.00     0.083 A 
ATOM     13  C   UNL d   1       4.994   2.666   0.000  0.00  0.00     0.020 A 
ATOM     14  C   UNL d   1       5.699   3.087   0.000  0.00  0.00     0.013 A 
ATOM     15  C   UNL d   1       6.426   2.679   0.000  0.00  0.00     0.058 A 
ATOM     16  C   UNL d   1       6.426   1.853   0.000  0.00  0.00     0.013 A 
ATOM     17 CL   UNL d   1       7.139   3.100   0.000  0.00  0.00    -0.082 Cl
ATOM     18  C   UNL d   1       5.712   1.435   0.000  0.00  0.00     0.020 A 
ENDBRANCH  11  12
ENDBRANCH   1  11
BRANCH   4  19
ATOM     19  C   UNL d   1       4.298  -1.878   0.000  0.00  0.00     0.021 C 
BRANCH  19  20
ATOM     20  C   UNL d   1       3.584  -2.291   0.000  0.00  0.00     0.005 A 
ATOM     21  C   UNL d   1       2.871  -1.878   0.000  0.00  0.00     0.021 A 
ATOM     22  C   UNL d   1       2.157  -2.291   0.000  0.00  0.00     0.099 A 
ATOM     23  N   UNL d   1       2.157  -3.117   0.000  0.00  0.00    -0.242 NA
ATOM     24  C   UNL d   1       2.883  -3.530   0.000  0.00  0.00     0.099 A 
ATOM     25  C   UNL d   1       3.592  -3.108   0.000  0.00  0.00     0.021 A 
ENDBRANCH  19  20
ENDBRANCH   4  19
TORSDOF 4
