MODEL 1
REMARK VINA RESULT:      25.9      0.000      0.000
REMARK  4 active torsions:
REMARK  status: ('A' for Active; 'I' for Inactive)
REMARK    1  A    between atoms: N_2  and  S_1 
REMARK    2  A    between atoms: C_3  and  S_1 
REMARK    3  A    between atoms: O_15  and  C_7 
REMARK    4  A    between atoms: C_18  and  O_15 
ROOT
ATOM      1  C   UNL d   1     -56.956 -99.192 -44.311  0.00  0.00     0.106 A 
ATOM      2  C   UNL d   1     -56.434 -99.738 -43.979  0.00  0.00     0.040 A 
ATOM      3  C   UNL d   1     -55.691 -99.846 -44.304  0.00  0.00     0.128 A 
ATOM      4  C   UNL d   1     -55.462 -99.409 -44.966  0.00  0.00     0.163 A 
ATOM      5  C   UNL d   1     -56.727 -98.755 -44.973  0.00  0.00     0.015 A 
ATOM      6  C   UNL d   1     -55.983 -98.863 -45.298  0.00  0.00     0.032 A 
ATOM      7  F   UNL d   1     -54.711 -99.519 -45.295  0.00  0.00    -0.202 F 
ENDROOT
BRANCH   1   8
ATOM      8  S   UNL d   1     -57.707 -99.083 -43.982  0.00  0.00     0.272 S 
ATOM      9  O   UNL d   1     -58.053 -99.362 -44.680  0.00  0.00    -0.200 OA
ATOM     10  O   UNL d   1     -57.361 -98.804 -43.286  0.00  0.00    -0.200 OA
BRANCH   8  11
ATOM     11  N   UNL d   1     -58.456 -98.974 -43.654  0.00  0.00    -0.225 N 
ATOM     12  C   UNL d   1     -59.124 -98.969 -44.139  0.00  0.00     0.118 A 
ATOM     13  C   UNL d   1     -59.874 -98.860 -43.810  0.00  0.00     0.142 A 
ATOM     14  O   UNL d   1     -59.958 -98.755 -42.996  0.00  0.00    -0.300 OA
ATOM     15  C   UNL d   1     -59.290 -98.760 -42.511  0.00  0.00     0.142 A 
ATOM     16  C   UNL d   1     -58.540 -98.869 -42.839  0.00  0.00     0.118 A 
ENDBRANCH   8  11
ENDBRANCH   1   8
BRANCH   3  17
ATOM     17  O   UNL d   1     -55.168-100.398 -43.966  0.00  0.00    -0.303 OA
BRANCH  17  18
ATOM     18  C   UNL d   1     -55.107-101.159 -44.279  0.00  0.00     0.123 C 
ATOM     19  C   UNL d   1     -54.743-101.760 -43.840  0.00  0.00     0.029 C 
ENDBRANCH  17  18
ENDBRANCH   3  17
TORSDOF 4
ENDMDL
