MODEL 1
REMARK VINA RESULT:      -1.8      0.000      0.000
REMARK  4 active torsions:
REMARK  status: ('A' for Active; 'I' for Inactive)
REMARK    1  A    between atoms: C_11  and  C_3 
REMARK    2  A    between atoms: N_10  and  C_4 
REMARK    3  A    between atoms: C_15  and  N_10 
REMARK    4  A    between atoms: C_16  and  C_15 
ROOT
ATOM      1  C   UNL d   1     -41.614-122.207 -52.614  0.00  0.00     0.167 A 
ATOM      2  N   UNL d   1     -41.587-122.560 -51.842  0.00  0.00    -0.195 N 
ATOM      3  C   UNL d   1     -41.791-122.662 -53.261  0.00  0.00     0.057 A 
ATOM      4  C   UNL d   1     -41.411-122.095 -51.210  0.00  0.00     0.167 A 
ATOM      5  N   UNL d   1     -41.918-123.815 -52.418  0.00  0.00    -0.161 NA
ATOM      6  N   UNL d   1     -41.463-121.413 -52.703  0.00  0.00    -0.227 NA
ATOM      7  C   UNL d   1     -41.256-121.290 -51.289  0.00  0.00     0.058 A 
ATOM      8  C   UNL d   1     -41.944-123.473 -53.166  0.00  0.00     0.124 A 
ATOM      9  C   UNL d   1     -41.283-120.943 -52.049  0.00  0.00     0.086 A 
ATOM     10  C   UNL d   1     -41.123-120.105 -52.141  0.00  0.00     0.021 C 
ENDROOT
BRANCH   4  11
ATOM     11  N   UNL d   1     -41.382-122.447 -50.427  0.00  0.00    -0.224 NA
BRANCH  11  12
ATOM     12  C   UNL d   1     -41.588-123.163 -50.003  0.00  0.00     0.120 C 
BRANCH  12  13
ATOM     13  C   UNL d   1     -41.721-123.137 -49.157  0.00  0.00     0.101 A 
ATOM     14  N   UNL d   1     -42.437-122.760 -48.857  0.00  0.00    -0.242 NA
ATOM     15  C   UNL d   1     -42.569-122.734 -48.011  0.00  0.00     0.099 A 
ATOM     16  C   UNL d   1     -41.995-123.078 -47.472  0.00  0.00     0.021 A 
ATOM     17  C   UNL d   1     -41.288-123.449 -47.779  0.00  0.00     0.003 A 
ATOM     18  C   UNL d   1     -41.155-123.476 -48.625  0.00  0.00     0.021 A 
ENDBRANCH  12  13
ENDBRANCH  11  12
ENDBRANCH   4  11
BRANCH   3  19
ATOM     19  C   UNL d   1     -41.817-122.320 -54.010  0.00  0.00     0.005 A 
ATOM     20  C   UNL d   1     -42.509-121.990 -54.281  0.00  0.00     0.001 A 
ATOM     21  C   UNL d   1     -42.535-121.648 -55.029  0.00  0.00     0.011 A 
ATOM     22  C   UNL d   1     -41.869-121.642 -55.495  0.00  0.00     0.058 A 
ATOM     23  C   UNL d   1     -41.175-121.978 -55.213  0.00  0.00     0.011 A 
ATOM     24 CL   UNL d   1     -41.896-121.285 -56.279  0.00  0.00    -0.082 Cl
ATOM     25  C   UNL d   1     -41.150-122.315 -54.477  0.00  0.00     0.001 A 
ENDBRANCH   3  19
TORSDOF 4
ENDMDL
