MODEL 1
REMARK VINA RESULT:      -7.9      0.000      0.000
REMARK  5 active torsions:
REMARK  status: ('A' for Active; 'I' for Inactive)
REMARK    1  A    between atoms: C_6  and  C_1 
REMARK    2  A    between atoms: C_9  and  N_2 
REMARK    3  A    between atoms: O_13  and  C_8 
REMARK    4  A    between atoms: O_15  and  C_9 
REMARK    5  A    between atoms: O_14  and  C_10 
ROOT
ATOM      1  C   UNL d   1     -48.704  14.005  22.814  0.00  0.00     0.149 A 
ATOM      2  N   UNL d   1     -49.501  13.903  22.624  0.00  0.00    -0.269 N 
ATOM      3  N   UNL d   1     -48.661  14.705  23.251  0.00  0.00    -0.227 NA
ATOM      4  C   UNL d   1     -49.932  14.516  22.933  0.00  0.00     0.085 A 
ATOM      5  C   UNL d   1     -49.389  15.035  23.338  0.00  0.00     0.099 A 
ATOM      6  C   UNL d   1     -50.713  14.681  22.911  0.00  0.00     0.019 A 
ATOM      7  C   UNL d   1     -49.726  15.704  23.696  0.00  0.00     0.021 A 
ATOM      8  C   UNL d   1     -50.978  15.344  23.277  0.00  0.00     0.002 A 
ATOM      9  C   UNL d   1     -50.468  15.831  23.657  0.00  0.00     0.002 A 
ENDROOT
BRANCH   1  10
ATOM     10  C   UNL d   1     -47.921  13.841  22.836  0.00  0.00     0.037 A 
ATOM     11  C   UNL d   1     -47.657  13.176  23.247  0.00  0.00     0.029 A 
ATOM     12  C   UNL d   1     -46.853  12.994  23.280  0.00  0.00     0.116 A 
ATOM     13  C   UNL d   1     -46.303  13.486  22.895  0.00  0.00     0.116 A 
ATOM     14  C   UNL d   1     -46.564  14.154  22.481  0.00  0.00     0.026 A 
ATOM     15  C   UNL d   1     -47.372  14.333  22.451  0.00  0.00     0.005 A 
BRANCH  12  16
ATOM     16  O   UNL d   1     -46.589  12.330  23.690  0.00  0.00    -0.326 OA
ATOM     17  C   UNL d   1     -47.037  11.631  23.698  0.00  0.00     0.181 C 
ENDBRANCH  12  16
BRANCH  13  18
ATOM     18  O   UNL d   1     -45.496  13.308  22.924  0.00  0.00    -0.326 OA
ATOM     19  C   UNL d   1     -45.053  13.260  22.221  0.00  0.00     0.181 C 
ENDBRANCH  13  18
ENDBRANCH   1  10
BRANCH   2  20
ATOM     20  C   UNL d   1     -49.645  13.253  22.202  0.00  0.00     0.205 C 
BRANCH  20  21
ATOM     21  O   UNL d   1     -50.045  13.274  21.494  0.00  0.00    -0.310 OA
ATOM     22  C   UNL d   1     -50.289  12.604  21.092  0.00  0.00     0.183 C 
ENDBRANCH  20  21
ENDBRANCH   2  20
TORSDOF 5
ENDMDL
MODEL 2
REMARK VINA RESULT:      -7.6      0.971      2.310
REMARK  5 active torsions:
REMARK  status: ('A' for Active; 'I' for Inactive)
REMARK    1  A    between atoms: C_6  and  C_1 
REMARK    2  A    between atoms: C_9  and  N_2 
REMARK    3  A    between atoms: O_13  and  C_8 
REMARK    4  A    between atoms: O_15  and  C_9 
REMARK    5  A    between atoms: O_14  and  C_10 
ROOT
ATOM      1  C   UNL d   1     -48.715  13.195  22.851  0.00  0.00     0.149 A 
ATOM      2  N   UNL d   1     -49.337  13.738  22.875  0.00  0.00    -0.269 N 
ATOM      3  N   UNL d   1     -48.913  12.647  22.265  0.00  0.00    -0.227 NA
ATOM      4  C   UNL d   1     -49.896  13.531  22.324  0.00  0.00     0.085 A 
ATOM      5  C   UNL d   1     -49.621  12.825  21.930  0.00  0.00     0.099 A 
ATOM      6  C   UNL d   1     -50.593  13.864  22.124  0.00  0.00     0.019 A 
ATOM      7  C   UNL d   1     -50.121  12.522  21.341  0.00  0.00     0.021 A 
ATOM      8  C   UNL d   1     -51.032  13.524  21.546  0.00  0.00     0.002 A 
ATOM      9  C   UNL d   1     -50.774  12.861  21.176  0.00  0.00     0.002 A 
ENDROOT
BRANCH   1  10
ATOM     10  C   UNL d   1     -48.017  12.860  23.050  0.00  0.00     0.037 A 
ATOM     11  C   UNL d   1     -47.311  13.240  22.850  0.00  0.00     0.029 A 
ATOM     12  C   UNL d   1     -46.583  12.906  23.049  0.00  0.00     0.116 A 
ATOM     13  C   UNL d   1     -46.560  12.181  23.455  0.00  0.00     0.116 A 
ATOM     14  C   UNL d   1     -47.265  11.796  23.658  0.00  0.00     0.026 A 
ATOM     15  C   UNL d   1     -47.993  12.134  23.456  0.00  0.00     0.005 A 
BRANCH  12  16
ATOM     16  O   UNL d   1     -45.879  13.286  22.849  0.00  0.00    -0.326 OA
ATOM     17  C   UNL d   1     -45.866  13.874  22.264  0.00  0.00     0.181 C 
ENDBRANCH  12  16
BRANCH  13  18
ATOM     18  O   UNL d   1     -45.832  11.842  23.657  0.00  0.00    -0.326 OA
ATOM     19  C   UNL d   1     -45.753  11.015  23.698  0.00  0.00     0.181 C 
ENDBRANCH  13  18
ENDBRANCH   1  10
BRANCH   2  20
ATOM     20  C   UNL d   1     -49.239  14.308  23.410  0.00  0.00     0.205 C 
BRANCH  20  21
ATOM     21  O   UNL d   1     -49.261  15.097  23.215  0.00  0.00    -0.310 OA
ATOM     22  C   UNL d   1     -49.588  15.673  23.696  0.00  0.00     0.183 C 
ENDBRANCH  20  21
ENDBRANCH   2  20
TORSDOF 5
ENDMDL
MODEL 3
REMARK VINA RESULT:      -5.9      7.832     10.043
REMARK  5 active torsions:
REMARK  status: ('A' for Active; 'I' for Inactive)
REMARK    1  A    between atoms: C_6  and  C_1 
REMARK    2  A    between atoms: C_9  and  N_2 
REMARK    3  A    between atoms: O_13  and  C_8 
REMARK    4  A    between atoms: O_15  and  C_9 
REMARK    5  A    between atoms: O_14  and  C_10 
ROOT
ATOM      1  C   UNL d   1     -39.713  14.856  18.566  0.00  0.00     0.149 A 
ATOM      2  N   UNL d   1     -39.861  14.874  17.753  0.00  0.00    -0.269 N 
ATOM      3  N   UNL d   1     -39.095  14.318  18.673  0.00  0.00    -0.227 NA
ATOM      4  C   UNL d   1     -39.353  14.366  17.376  0.00  0.00     0.085 A 
ATOM      5  C   UNL d   1     -38.858  14.006  17.971  0.00  0.00     0.099 A 
ATOM      6  C   UNL d   1     -39.266  14.178  16.605  0.00  0.00     0.019 A 
ATOM      7  C   UNL d   1     -38.295  13.463  17.693  0.00  0.00     0.021 A 
ATOM      8  C   UNL d   1     -38.703  13.645  16.399  0.00  0.00     0.002 A 
ATOM      9  C   UNL d   1     -38.238  13.308  16.958  0.00  0.00     0.002 A 
ENDROOT
BRANCH   1  10
ATOM     10  C   UNL d   1     -39.800  15.043  19.338  0.00  0.00     0.037 A 
ATOM     11  C   UNL d   1     -40.439  14.738  19.761  0.00  0.00     0.029 A 
ATOM     12  C   UNL d   1     -40.542  14.922  20.559  0.00  0.00     0.116 A 
ATOM     13  C   UNL d   1     -39.996  15.420  20.941  0.00  0.00     0.116 A 
ATOM     14  C   UNL d   1     -39.353  15.729  20.520  0.00  0.00     0.026 A 
ATOM     15  C   UNL d   1     -39.253  15.541  19.720  0.00  0.00     0.005 A 
BRANCH  12  16
ATOM     16  O   UNL d   1     -41.181  14.617  20.981  0.00  0.00    -0.326 OA
ATOM     17  C   UNL d   1     -41.563  13.924  20.730  0.00  0.00     0.181 C 
ENDBRANCH  12  16
BRANCH  13  18
ATOM     18  O   UNL d   1     -40.094  15.608  21.740  0.00  0.00    -0.326 OA
ATOM     19  C   UNL d   1     -39.460  15.922  22.177  0.00  0.00     0.181 C 
ENDBRANCH  13  18
ENDBRANCH   1  10
BRANCH   2  20
ATOM     20  C   UNL d   1     -40.442  15.365  17.548  0.00  0.00     0.205 C 
BRANCH  20  21
ATOM     21  O   UNL d   1     -40.995  15.173  16.984  0.00  0.00    -0.310 OA
ATOM     22  C   UNL d   1     -41.511  15.716  16.653  0.00  0.00     0.183 C 
ENDBRANCH  20  21
ENDBRANCH   2  20
TORSDOF 5
ENDMDL
MODEL 4
REMARK VINA RESULT:      -5.7      1.824      2.975
REMARK  5 active torsions:
REMARK  status: ('A' for Active; 'I' for Inactive)
REMARK    1  A    between atoms: C_6  and  C_1 
REMARK    2  A    between atoms: C_9  and  N_2 
REMARK    3  A    between atoms: O_13  and  C_8 
REMARK    4  A    between atoms: O_15  and  C_9 
REMARK    5  A    between atoms: O_14  and  C_10 
ROOT
ATOM      1  C   UNL d   1     -47.129  12.483  23.167  0.00  0.00     0.149 A 
ATOM      2  N   UNL d   1     -47.674  13.103  23.140  0.00  0.00    -0.269 N 
ATOM      3  N   UNL d   1     -47.576  11.789  23.217  0.00  0.00    -0.227 NA
ATOM      4  C   UNL d   1     -48.426  12.802  23.172  0.00  0.00     0.085 A 
ATOM      5  C   UNL d   1     -48.363  11.953  23.222  0.00  0.00     0.099 A 
ATOM      6  C   UNL d   1     -49.141  13.158  23.164  0.00  0.00     0.019 A 
ATOM      7  C   UNL d   1     -49.081  11.538  23.260  0.00  0.00     0.021 A 
ATOM      8  C   UNL d   1     -49.799  12.701  23.204  0.00  0.00     0.002 A 
ATOM      9  C   UNL d   1     -49.740  11.904  23.250  0.00  0.00     0.002 A 
ENDROOT
BRANCH   1  10
ATOM     10  C   UNL d   1     -46.414  12.125  23.176  0.00  0.00     0.037 A 
ATOM     11  C   UNL d   1     -45.823  12.386  22.661  0.00  0.00     0.029 A 
ATOM     12  C   UNL d   1     -45.080  12.027  22.658  0.00  0.00     0.116 A 
ATOM     13  C   UNL d   1     -44.925  11.397  23.179  0.00  0.00     0.116 A 
ATOM     14  C   UNL d   1     -45.514  11.132  23.697  0.00  0.00     0.026 A 
ATOM     15  C   UNL d   1     -46.259  11.495  23.696  0.00  0.00     0.005 A 
BRANCH  12  16
ATOM     16  O   UNL d   1     -44.490  12.287  22.144  0.00  0.00    -0.326 OA
ATOM     17  C   UNL d   1     -44.351  13.098  22.035  0.00  0.00     0.181 C 
ENDBRANCH  12  16
BRANCH  13  18
ATOM     18  O   UNL d   1     -44.181  11.034  23.180  0.00  0.00    -0.326 OA
ATOM     19  C   UNL d   1     -44.051  10.349  23.635  0.00  0.00     0.181 C 
ENDBRANCH  13  18
ENDBRANCH   1  10
BRANCH   2  20
ATOM     20  C   UNL d   1     -47.340  13.815  23.092  0.00  0.00     0.205 C 
BRANCH  20  21
ATOM     21  O   UNL d   1     -47.696  14.438  22.707  0.00  0.00    -0.310 OA
ATOM     22  C   UNL d   1     -47.341  15.168  22.603  0.00  0.00     0.183 C 
ENDBRANCH  20  21
ENDBRANCH   2  20
TORSDOF 5
ENDMDL
MODEL 5
REMARK VINA RESULT:      -5.7      2.035      4.551
REMARK  5 active torsions:
REMARK  status: ('A' for Active; 'I' for Inactive)
REMARK    1  A    between atoms: C_6  and  C_1 
REMARK    2  A    between atoms: C_9  and  N_2 
REMARK    3  A    between atoms: O_13  and  C_8 
REMARK    4  A    between atoms: O_15  and  C_9 
REMARK    5  A    between atoms: O_14  and  C_10 
ROOT
ATOM      1  C   UNL d   1     -47.332  12.182  23.019  0.00  0.00     0.149 A 
ATOM      2  N   UNL d   1     -46.548  12.413  22.901  0.00  0.00    -0.269 N 
ATOM      3  N   UNL d   1     -47.300  11.421  23.340  0.00  0.00    -0.227 NA
ATOM      4  C   UNL d   1     -46.053  11.817  23.141  0.00  0.00     0.085 A 
ATOM      5  C   UNL d   1     -46.539  11.176  23.425  0.00  0.00     0.099 A 
ATOM      6  C   UNL d   1     -45.257  11.757  23.145  0.00  0.00     0.019 A 
ATOM      7  C   UNL d   1     -46.132  10.506  23.698  0.00  0.00     0.021 A 
ATOM      8  C   UNL d   1     -44.922  11.084  23.422  0.00  0.00     0.002 A 
ATOM      9  C   UNL d   1     -45.379  10.482  23.689  0.00  0.00     0.002 A 
ENDROOT
BRANCH   1  10
ATOM     10  C   UNL d   1     -48.130  12.240  23.015  0.00  0.00     0.037 A 
ATOM     11  C   UNL d   1     -48.517  12.473  22.324  0.00  0.00     0.029 A 
ATOM     12  C   UNL d   1     -49.340  12.538  22.305  0.00  0.00     0.116 A 
ATOM     13  C   UNL d   1     -49.783  12.367  22.988  0.00  0.00     0.116 A 
ATOM     14  C   UNL d   1     -49.398  12.133  23.683  0.00  0.00     0.026 A 
ATOM     15  C   UNL d   1     -48.573  12.069  23.698  0.00  0.00     0.005 A 
BRANCH  12  16
ATOM     16  O   UNL d   1     -49.726  12.770  21.615  0.00  0.00    -0.326 OA
ATOM     17  C   UNL d   1     -49.330  12.768  20.885  0.00  0.00     0.181 C 
ENDBRANCH  12  16
BRANCH  13  18
ATOM     18  O   UNL d   1     -50.607  12.430  22.974  0.00  0.00    -0.326 OA
ATOM     19  C   UNL d   1     -51.053  12.237  23.649  0.00  0.00     0.181 C 
ENDBRANCH  13  18
ENDBRANCH   1  10
BRANCH   2  20
ATOM     20  C   UNL d   1     -46.474  13.135  22.593  0.00  0.00     0.205 C 
BRANCH  20  21
ATOM     21  O   UNL d   1     -46.258  13.778  23.041  0.00  0.00    -0.310 OA
ATOM     22  C   UNL d   1     -45.996  14.485  22.721  0.00  0.00     0.183 C 
ENDBRANCH  20  21
ENDBRANCH   2  20
TORSDOF 5
ENDMDL
MODEL 6
REMARK VINA RESULT:      -5.3      7.169      9.613
REMARK  5 active torsions:
REMARK  status: ('A' for Active; 'I' for Inactive)
REMARK    1  A    between atoms: C_6  and  C_1 
REMARK    2  A    between atoms: C_9  and  N_2 
REMARK    3  A    between atoms: O_13  and  C_8 
REMARK    4  A    between atoms: O_15  and  C_9 
REMARK    5  A    between atoms: O_14  and  C_10 
ROOT
ATOM      1  C   UNL d   1     -40.070  15.052  19.771  0.00  0.00     0.149 A 
ATOM      2  N   UNL d   1     -40.234  14.770  20.530  0.00  0.00    -0.269 N 
ATOM      3  N   UNL d   1     -39.403  15.534  19.846  0.00  0.00    -0.227 NA
ATOM      4  C   UNL d   1     -39.688  15.068  21.051  0.00  0.00     0.085 A 
ATOM      5  C   UNL d   1     -39.151  15.562  20.609  0.00  0.00     0.099 A 
ATOM      6  C   UNL d   1     -39.598  14.971  21.839  0.00  0.00     0.019 A 
ATOM      7  C   UNL d   1     -38.546  15.922  21.048  0.00  0.00     0.021 A 
ATOM      8  C   UNL d   1     -38.992  15.346  22.206  0.00  0.00     0.002 A 
ATOM      9  C   UNL d   1     -38.488  15.809  21.791  0.00  0.00     0.002 A 
ENDROOT
BRANCH   1  10
ATOM     10  C   UNL d   1     -40.160  15.150  18.983  0.00  0.00     0.037 A 
ATOM     11  C   UNL d   1     -39.879  14.570  18.466  0.00  0.00     0.029 A 
ATOM     12  C   UNL d   1     -39.965  14.658  17.650  0.00  0.00     0.116 A 
ATOM     13  C   UNL d   1     -40.337  15.337  17.345  0.00  0.00     0.116 A 
ATOM     14  C   UNL d   1     -40.620  15.921  17.860  0.00  0.00     0.026 A 
ATOM     15  C   UNL d   1     -40.532  15.829  18.678  0.00  0.00     0.005 A 
BRANCH  12  16
ATOM     16  O   UNL d   1     -39.685  14.079  17.134  0.00  0.00    -0.326 OA
ATOM     17  C   UNL d   1     -39.265  13.423  17.421  0.00  0.00     0.181 C 
ENDBRANCH  12  16
BRANCH  13  18
ATOM     18  O   UNL d   1     -40.425  15.429  16.528  0.00  0.00    -0.326 OA
ATOM     19  C   UNL d   1     -41.024  15.922  16.225  0.00  0.00     0.181 C 
ENDBRANCH  13  18
ENDBRANCH   1  10
BRANCH   2  20
ATOM     20  C   UNL d   1     -40.862  14.295  20.562  0.00  0.00     0.205 C 
BRANCH  20  21
ATOM     21  O   UNL d   1     -41.431  14.364  21.139  0.00  0.00    -0.310 OA
ATOM     22  C   UNL d   1     -42.094  13.885  21.181  0.00  0.00     0.183 C 
ENDBRANCH  20  21
ENDBRANCH   2  20
TORSDOF 5
ENDMDL
MODEL 7
REMARK VINA RESULT:      -5.3      8.230     10.962
REMARK  5 active torsions:
REMARK  status: ('A' for Active; 'I' for Inactive)
REMARK    1  A    between atoms: C_6  and  C_1 
REMARK    2  A    between atoms: C_9  and  N_2 
REMARK    3  A    between atoms: O_13  and  C_8 
REMARK    4  A    between atoms: O_15  and  C_9 
REMARK    5  A    between atoms: O_14  and  C_10 
ROOT
ATOM      1  C   UNL d   1     -39.031  14.161  18.027  0.00  0.00     0.149 A 
ATOM      2  N   UNL d   1     -38.594  13.629  17.570  0.00  0.00    -0.269 N 
ATOM      3  N   UNL d   1     -39.196  14.804  17.534  0.00  0.00    -0.227 NA
ATOM      4  C   UNL d   1     -38.493  13.935  16.826  0.00  0.00     0.085 A 
ATOM      5  C   UNL d   1     -38.882  14.693  16.802  0.00  0.00     0.099 A 
ATOM      6  C   UNL d   1     -38.118  13.648  16.181  0.00  0.00     0.019 A 
ATOM      7  C   UNL d   1     -38.841  15.099  16.079  0.00  0.00     0.021 A 
ATOM      8  C   UNL d   1     -38.114  14.088  15.511  0.00  0.00     0.002 A 
ATOM      9  C   UNL d   1     -38.479  14.801  15.489  0.00  0.00     0.002 A 
ENDROOT
BRANCH   1  10
ATOM     10  C   UNL d   1     -39.407  14.448  18.672  0.00  0.00     0.037 A 
ATOM     11  C   UNL d   1     -38.972  14.835  19.257  0.00  0.00     0.029 A 
ATOM     12  C   UNL d   1     -39.347  15.136  19.928  0.00  0.00     0.116 A 
ATOM     13  C   UNL d   1     -40.170  15.049  20.015  0.00  0.00     0.116 A 
ATOM     14  C   UNL d   1     -40.609  14.662  19.430  0.00  0.00     0.026 A 
ATOM     15  C   UNL d   1     -40.230  14.361  18.759  0.00  0.00     0.005 A 
BRANCH  12  16
ATOM     16  O   UNL d   1     -38.912  15.523  20.513  0.00  0.00    -0.326 OA
ATOM     17  C   UNL d   1     -38.131  15.763  20.371  0.00  0.00     0.181 C 
ENDBRANCH  12  16
BRANCH  13  18
ATOM     18  O   UNL d   1     -40.549  15.350  20.686  0.00  0.00    -0.326 OA
ATOM     19  C   UNL d   1     -41.379  15.332  20.740  0.00  0.00     0.181 C 
ENDBRANCH  13  18
ENDBRANCH   1  10
BRANCH   2  20
ATOM     20  C   UNL d   1     -38.387  12.975  17.958  0.00  0.00     0.205 C 
BRANCH  20  21
ATOM     21  O   UNL d   1     -38.280  12.262  17.581  0.00  0.00    -0.310 OA
ATOM     22  C   UNL d   1     -37.944  11.607  17.940  0.00  0.00     0.183 C 
ENDBRANCH  20  21
ENDBRANCH   2  20
TORSDOF 5
ENDMDL
MODEL 8
REMARK VINA RESULT:      -5.2      8.467     10.287
REMARK  5 active torsions:
REMARK  status: ('A' for Active; 'I' for Inactive)
REMARK    1  A    between atoms: C_6  and  C_1 
REMARK    2  A    between atoms: C_9  and  N_2 
REMARK    3  A    between atoms: O_13  and  C_8 
REMARK    4  A    between atoms: O_15  and  C_9 
REMARK    5  A    between atoms: O_14  and  C_10 
ROOT
ATOM      1  C   UNL d   1     -39.232  14.759  19.234  0.00  0.00     0.149 A 
ATOM      2  N   UNL d   1     -39.236  14.809  20.059  0.00  0.00    -0.269 N 
ATOM      3  N   UNL d   1     -39.934  15.113  18.981  0.00  0.00    -0.227 NA
ATOM      4  C   UNL d   1     -39.915  15.179  20.302  0.00  0.00     0.085 A 
ATOM      5  C   UNL d   1     -40.367  15.376  19.606  0.00  0.00     0.099 A 
ATOM      6  C   UNL d   1     -40.188  15.363  21.031  0.00  0.00     0.019 A 
ATOM      7  C   UNL d   1     -41.089  15.762  19.740  0.00  0.00     0.021 A 
ATOM      8  C   UNL d   1     -40.894  15.737  21.094  0.00  0.00     0.002 A 
ATOM      9  C   UNL d   1     -41.318  15.922  20.440  0.00  0.00     0.002 A 
ENDROOT
BRANCH   1  10
ATOM     10  C   UNL d   1     -38.960  14.575  18.505  0.00  0.00     0.037 A 
ATOM     11  C   UNL d   1     -38.969  13.789  18.254  0.00  0.00     0.029 A 
ATOM     12  C   UNL d   1     -38.692  13.584  17.504  0.00  0.00     0.116 A 
ATOM     13  C   UNL d   1     -38.400  14.175  16.997  0.00  0.00     0.116 A 
ATOM     14  C   UNL d   1     -38.389  14.965  17.245  0.00  0.00     0.026 A 
ATOM     15  C   UNL d   1     -38.669  15.166  17.998  0.00  0.00     0.005 A 
BRANCH  12  16
ATOM     16  O   UNL d   1     -38.702  12.798  17.254  0.00  0.00    -0.326 OA
ATOM     17  C   UNL d   1     -38.322  12.208  17.696  0.00  0.00     0.181 C 
ENDBRANCH  12  16
BRANCH  13  18
ATOM     18  O   UNL d   1     -38.121  13.974  16.244  0.00  0.00    -0.326 OA
ATOM     19  C   UNL d   1     -38.039  14.561  15.659  0.00  0.00     0.181 C 
ENDBRANCH  13  18
ENDBRANCH   1  10
BRANCH   2  20
ATOM     20  C   UNL d   1     -38.598  14.494  20.398  0.00  0.00     0.205 C 
BRANCH  20  21
ATOM     21  O   UNL d   1     -38.649  13.966  21.015  0.00  0.00    -0.310 OA
ATOM     22  C   UNL d   1     -37.999  13.690  21.429  0.00  0.00     0.183 C 
ENDBRANCH  20  21
ENDBRANCH   2  20
TORSDOF 5
ENDMDL
