MODEL 1
REMARK VINA RESULT:      -6.2      0.000      0.000
REMARK  4 active torsions:
REMARK  status: ('A' for Active; 'I' for Inactive)
REMARK    1  A    between atoms: N_2  and  C_1 
REMARK    2  A    between atoms: C_4  and  C_1 
REMARK    3  A    between atoms: C_8  and  N_2 
REMARK    4  A    between atoms: N_7  and  C_6 
ROOT
ATOM      1  C   UNL d   1     -46.267  13.087  22.755  0.00  0.00     0.064 A 
ATOM      2  C   UNL d   1     -47.608  13.964  23.133  0.00  0.00     0.083 A 
ATOM      3  C   UNL d   1     -46.285  13.900  22.609  0.00  0.00     0.019 A 
ATOM      4  C   UNL d   1     -46.924  12.716  23.091  0.00  0.00     0.019 A 
ATOM      5  C   UNL d   1     -46.955  14.343  22.797  0.00  0.00     0.021 A 
ATOM      6  C   UNL d   1     -47.598  13.151  23.282  0.00  0.00     0.021 A 
ENDROOT
BRANCH   2   7
ATOM      7  N   UNL d   1     -48.282  14.403  23.323  0.00  0.00    -0.233 NA
BRANCH   7   8
ATOM      8  C   UNL d   1     -48.899  14.462  22.777  0.00  0.00     0.153 C 
ATOM      9  S   UNL d   1     -48.806  14.170  22.009  0.00  0.00    -0.056 SA
BRANCH   8  10
ATOM     10  C   UNL d   1     -49.617  14.818  23.001  0.00  0.00     0.109 A 
ATOM     11  N   UNL d   1     -49.609  15.551  23.393  0.00  0.00    -0.242 NA
ATOM     12  C   UNL d   1     -50.319  15.907  23.618  0.00  0.00     0.099 A 
ATOM     13  C   UNL d   1     -51.036  15.533  23.453  0.00  0.00     0.021 A 
ATOM     14  C   UNL d   1     -51.044  14.801  23.061  0.00  0.00     0.003 A 
ATOM     15  C   UNL d   1     -50.334  14.445  22.836  0.00  0.00     0.021 A 
ENDBRANCH   8  10
ENDBRANCH   7   8
ENDBRANCH   2   7
BRANCH   1  16
ATOM     16  N   UNL d   1     -45.597  12.644  22.567  0.00  0.00    -0.301 N 
ATOM     17  C   UNL d   1     -45.457  11.924  22.946  0.00  0.00     0.100 C 
ATOM     18  C   UNL d   1     -45.068  12.922  21.999  0.00  0.00     0.100 C 
ENDBRANCH   1  16
TORSDOF 4
ENDMDL
MODEL 2
REMARK VINA RESULT:      -5.7      1.029      4.279
REMARK  4 active torsions:
REMARK  status: ('A' for Active; 'I' for Inactive)
REMARK    1  A    between atoms: N_2  and  C_1 
REMARK    2  A    between atoms: C_4  and  C_1 
REMARK    3  A    between atoms: C_8  and  N_2 
REMARK    4  A    between atoms: N_7  and  C_6 
ROOT
ATOM      1  C   UNL d   1     -49.873  14.720  22.927  0.00  0.00     0.064 A 
ATOM      2  C   UNL d   1     -48.413  13.974  23.065  0.00  0.00     0.083 A 
ATOM      3  C   UNL d   1     -49.189  15.097  22.659  0.00  0.00     0.019 A 
ATOM      4  C   UNL d   1     -49.823  13.968  23.264  0.00  0.00     0.019 A 
ATOM      5  C   UNL d   1     -48.454  14.726  22.727  0.00  0.00     0.021 A 
ATOM      6  C   UNL d   1     -49.094  13.590  23.335  0.00  0.00     0.021 A 
ENDROOT
BRANCH   2   7
ATOM      7  N   UNL d   1     -47.680  13.598  23.135  0.00  0.00    -0.233 NA
BRANCH   7   8
ATOM      8  C   UNL d   1     -47.539  12.896  22.721  0.00  0.00     0.153 C 
ATOM      9  S   UNL d   1     -47.893  12.767  21.985  0.00  0.00    -0.056 SA
BRANCH   8  10
ATOM     10  C   UNL d   1     -47.040  12.317  23.049  0.00  0.00     0.109 A 
ATOM     11  N   UNL d   1     -46.218  12.439  23.058  0.00  0.00    -0.242 NA
ATOM     12  C   UNL d   1     -45.718  11.867  23.382  0.00  0.00     0.099 A 
ATOM     13  C   UNL d   1     -46.038  11.174  23.696  0.00  0.00     0.021 A 
ATOM     14  C   UNL d   1     -46.860  11.052  23.686  0.00  0.00     0.003 A 
ATOM     15  C   UNL d   1     -47.358  11.624  23.363  0.00  0.00     0.021 A 
ENDBRANCH   8  10
ENDBRANCH   7   8
ENDBRANCH   2   7
BRANCH   1  16
ATOM     16  N   UNL d   1     -50.608  15.090  22.860  0.00  0.00    -0.301 N 
ATOM     17  C   UNL d   1     -51.064  14.985  22.179  0.00  0.00     0.100 C 
ATOM     18  C   UNL d   1     -50.884  15.566  23.474  0.00  0.00     0.100 C 
ENDBRANCH   1  16
TORSDOF 4
ENDMDL
MODEL 3
REMARK VINA RESULT:      -5.7      1.922      4.479
REMARK  4 active torsions:
REMARK  status: ('A' for Active; 'I' for Inactive)
REMARK    1  A    between atoms: N_2  and  C_1 
REMARK    2  A    between atoms: C_4  and  C_1 
REMARK    3  A    between atoms: C_8  and  N_2 
REMARK    4  A    between atoms: N_7  and  C_6 
ROOT
ATOM      1  C   UNL d   1     -49.719  12.295  22.981  0.00  0.00     0.064 A 
ATOM      2  C   UNL d   1     -48.075  12.226  22.993  0.00  0.00     0.083 A 
ATOM      3  C   UNL d   1     -49.306  12.401  23.688  0.00  0.00     0.019 A 
ATOM      4  C   UNL d   1     -49.306  12.155  22.280  0.00  0.00     0.019 A 
ATOM      5  C   UNL d   1     -48.481  12.367  23.698  0.00  0.00     0.021 A 
ATOM      6  C   UNL d   1     -48.482  12.119  22.281  0.00  0.00     0.021 A 
ENDROOT
BRANCH   2   7
ATOM      7  N   UNL d   1     -47.250  12.191  22.997  0.00  0.00    -0.233 NA
BRANCH   7   8
ATOM      8  C   UNL d   1     -46.810  12.876  22.850  0.00  0.00     0.153 C 
ATOM      9  S   UNL d   1     -47.156  13.621  22.943  0.00  0.00    -0.056 SA
BRANCH   8  10
ATOM     10  C   UNL d   1     -46.016  12.814  22.609  0.00  0.00     0.109 A 
ATOM     11  N   UNL d   1     -45.544  12.195  22.900  0.00  0.00    -0.242 NA
ATOM     12  C   UNL d   1     -44.756  12.130  22.663  0.00  0.00     0.099 A 
ATOM     13  C   UNL d   1     -44.439  12.680  22.136  0.00  0.00     0.021 A 
ATOM     14  C   UNL d   1     -44.911  13.298  21.845  0.00  0.00     0.003 A 
ATOM     15  C   UNL d   1     -45.699  13.363  22.082  0.00  0.00     0.021 A 
ENDBRANCH   8  10
ENDBRANCH   7   8
ENDBRANCH   2   7
BRANCH   1  16
ATOM     16  N   UNL d   1     -50.544  12.329  22.970  0.00  0.00    -0.301 N 
ATOM     17  C   UNL d   1     -50.985  11.851  23.480  0.00  0.00     0.100 C 
ATOM     18  C   UNL d   1     -50.927  12.843  22.450  0.00  0.00     0.100 C 
ENDBRANCH   1  16
TORSDOF 4
ENDMDL
MODEL 4
REMARK VINA RESULT:      -5.6      1.582      4.856
REMARK  4 active torsions:
REMARK  status: ('A' for Active; 'I' for Inactive)
REMARK    1  A    between atoms: N_2  and  C_1 
REMARK    2  A    between atoms: C_4  and  C_1 
REMARK    3  A    between atoms: C_8  and  N_2 
REMARK    4  A    between atoms: N_7  and  C_6 
ROOT
ATOM      1  C   UNL d   1     -47.891  13.813  22.782  0.00  0.00     0.064 A 
ATOM      2  C   UNL d   1     -46.655  12.886  23.349  0.00  0.00     0.083 A 
ATOM      3  C   UNL d   1     -48.044  13.201  23.316  0.00  0.00     0.019 A 
ATOM      4  C   UNL d   1     -47.118  13.958  22.534  0.00  0.00     0.019 A 
ATOM      5  C   UNL d   1     -47.427  12.734  23.603  0.00  0.00     0.021 A 
ATOM      6  C   UNL d   1     -46.495  13.496  22.815  0.00  0.00     0.021 A 
ENDROOT
BRANCH   2   7
ATOM      7  N   UNL d   1     -46.034  12.421  23.633  0.00  0.00    -0.233 NA
BRANCH   7   8
ATOM      8  C   UNL d   1     -46.085  11.597  23.588  0.00  0.00     0.153 C 
ATOM      9  S   UNL d   1     -46.822  11.223  23.610  0.00  0.00    -0.056 SA
BRANCH   8  10
ATOM     10  C   UNL d   1     -45.391  11.143  23.522  0.00  0.00     0.109 A 
ATOM     11  N   UNL d   1     -44.684  11.504  23.277  0.00  0.00    -0.242 NA
ATOM     12  C   UNL d   1     -43.993  11.057  23.209  0.00  0.00     0.099 A 
ATOM     13  C   UNL d   1     -44.007  10.251  23.386  0.00  0.00     0.021 A 
ATOM     14  C   UNL d   1     -44.715   9.890  23.630  0.00  0.00     0.003 A 
ATOM     15  C   UNL d   1     -45.405  10.337  23.698  0.00  0.00     0.021 A 
ENDBRANCH   8  10
ENDBRANCH   7   8
ENDBRANCH   2   7
BRANCH   1  16
ATOM     16  N   UNL d   1     -48.508  14.280  22.495  0.00  0.00    -0.301 N 
ATOM     17  C   UNL d   1     -48.883  14.081  21.786  0.00  0.00     0.100 C 
ATOM     18  C   UNL d   1     -48.749  14.946  22.919  0.00  0.00     0.100 C 
ENDBRANCH   1  16
TORSDOF 4
ENDMDL
MODEL 5
REMARK VINA RESULT:      -5.2      8.902      9.801
REMARK  4 active torsions:
REMARK  status: ('A' for Active; 'I' for Inactive)
REMARK    1  A    between atoms: N_2  and  C_1 
REMARK    2  A    between atoms: C_4  and  C_1 
REMARK    3  A    between atoms: C_8  and  N_2 
REMARK    4  A    between atoms: N_7  and  C_6 
ROOT
ATOM      1  C   UNL d   1     -40.568  15.415  17.652  0.00  0.00     0.064 A 
ATOM      2  C   UNL d   1     -40.206  14.748  19.112  0.00  0.00     0.083 A 
ATOM      3  C   UNL d   1     -40.246  14.655  17.692  0.00  0.00     0.019 A 
ATOM      4  C   UNL d   1     -40.708  15.839  18.346  0.00  0.00     0.019 A 
ATOM      5  C   UNL d   1     -40.063  14.317  18.422  0.00  0.00     0.021 A 
ATOM      6  C   UNL d   1     -40.528  15.509  19.080  0.00  0.00     0.021 A 
ENDROOT
BRANCH   2   7
ATOM      7  N   UNL d   1     -40.026  14.415  19.847  0.00  0.00    -0.233 NA
BRANCH   7   8
ATOM      8  C   UNL d   1     -39.337  14.645  20.242  0.00  0.00     0.153 C 
ATOM      9  S   UNL d   1     -38.927  15.323  20.005  0.00  0.00    -0.056 SA
BRANCH   8  10
ATOM     10  C   UNL d   1     -39.057  14.192  20.881  0.00  0.00     0.109 A 
ATOM     11  N   UNL d   1     -38.368  13.735  20.792  0.00  0.00    -0.242 NA
ATOM     12  C   UNL d   1     -38.086  13.284  21.424  0.00  0.00     0.099 A 
ATOM     13  C   UNL d   1     -38.490  13.289  22.143  0.00  0.00     0.021 A 
ATOM     14  C   UNL d   1     -39.179  13.746  22.232  0.00  0.00     0.003 A 
ATOM     15  C   UNL d   1     -39.460  14.197  21.601  0.00  0.00     0.021 A 
ENDBRANCH   8  10
ENDBRANCH   7   8
ENDBRANCH   2   7
BRANCH   1  16
ATOM     16  N   UNL d   1     -40.750  15.753  16.922  0.00  0.00    -0.301 N 
ATOM     17  C   UNL d   1     -41.535  15.922  16.728  0.00  0.00     0.100 C 
ATOM     18  C   UNL d   1     -40.146  15.922  16.385  0.00  0.00     0.100 C 
ENDBRANCH   1  16
TORSDOF 4
ENDMDL
MODEL 6
REMARK VINA RESULT:      -4.8      7.820     10.369
REMARK  4 active torsions:
REMARK  status: ('A' for Active; 'I' for Inactive)
REMARK    1  A    between atoms: N_2  and  C_1 
REMARK    2  A    between atoms: C_4  and  C_1 
REMARK    3  A    between atoms: C_8  and  N_2 
REMARK    4  A    between atoms: N_7  and  C_6 
ROOT
ATOM      1  C   UNL d   1     -40.289  15.274  20.335  0.00  0.00     0.064 A 
ATOM      2  C   UNL d   1     -39.727  14.418  19.047  0.00  0.00     0.083 A 
ATOM      3  C   UNL d   1     -40.745  14.666  20.012  0.00  0.00     0.019 A 
ATOM      4  C   UNL d   1     -39.551  15.451  20.011  0.00  0.00     0.019 A 
ATOM      5  C   UNL d   1     -40.467  14.234  19.366  0.00  0.00     0.021 A 
ATOM      6  C   UNL d   1     -39.265  15.025  19.366  0.00  0.00     0.021 A 
ENDROOT
BRANCH   2   7
ATOM      7  N   UNL d   1     -39.444  13.989  18.400  0.00  0.00    -0.233 NA
BRANCH   7   8
ATOM      8  C   UNL d   1     -39.570  14.273  17.634  0.00  0.00     0.153 C 
ATOM      9  S   UNL d   1     -40.224  14.751  17.469  0.00  0.00    -0.056 SA
BRANCH   8  10
ATOM     10  C   UNL d   1     -39.036  14.075  17.027  0.00  0.00     0.109 A 
ATOM     11  N   UNL d   1     -38.675  13.327  17.023  0.00  0.00    -0.242 NA
ATOM     12  C   UNL d   1     -38.144  13.127  16.423  0.00  0.00     0.099 A 
ATOM     13  C   UNL d   1     -37.974  13.673  15.828  0.00  0.00     0.021 A 
ATOM     14  C   UNL d   1     -38.335  14.421  15.832  0.00  0.00     0.003 A 
ATOM     15  C   UNL d   1     -38.865  14.620  16.432  0.00  0.00     0.021 A 
ENDBRANCH   8  10
ENDBRANCH   7   8
ENDBRANCH   2   7
BRANCH   1  16
ATOM     16  N   UNL d   1     -40.567  15.706  20.981  0.00  0.00    -0.301 N 
ATOM     17  C   UNL d   1     -40.050  15.922  21.589  0.00  0.00     0.100 C 
ATOM     18  C   UNL d   1     -41.363  15.922  21.019  0.00  0.00     0.100 C 
ENDBRANCH   1  16
TORSDOF 4
ENDMDL
MODEL 7
REMARK VINA RESULT:      -4.8      8.506      9.341
REMARK  4 active torsions:
REMARK  status: ('A' for Active; 'I' for Inactive)
REMARK    1  A    between atoms: N_2  and  C_1 
REMARK    2  A    between atoms: C_4  and  C_1 
REMARK    3  A    between atoms: C_8  and  N_2 
REMARK    4  A    between atoms: N_7  and  C_6 
ROOT
ATOM      1  C   UNL d   1     -39.307  15.431  21.645  0.00  0.00     0.064 A 
ATOM      2  C   UNL d   1     -39.995  15.652  20.166  0.00  0.00     0.083 A 
ATOM      3  C   UNL d   1     -40.080  15.176  21.505  0.00  0.00     0.019 A 
ATOM      4  C   UNL d   1     -38.880  15.797  21.040  0.00  0.00     0.019 A 
ATOM      5  C   UNL d   1     -40.429  15.285  20.765  0.00  0.00     0.021 A 
ATOM      6  C   UNL d   1     -39.220  15.910  20.298  0.00  0.00     0.021 A 
ENDROOT
BRANCH   2   7
ATOM      7  N   UNL d   1     -40.338  15.764  19.422  0.00  0.00    -0.233 NA
BRANCH   7   8
ATOM      8  C   UNL d   1     -40.308  15.156  18.862  0.00  0.00     0.153 C 
ATOM      9  S   UNL d   1     -40.119  14.385  19.093  0.00  0.00    -0.056 SA
BRANCH   8  10
ATOM     10  C   UNL d   1     -40.468  15.323  18.063  0.00  0.00     0.109 A 
ATOM     11  N   UNL d   1     -41.149  15.754  17.860  0.00  0.00    -0.242 NA
ATOM     12  C   UNL d   1     -41.313  15.922  17.069  0.00  0.00     0.099 A 
ATOM     13  C   UNL d   1     -40.798  15.660  16.480  0.00  0.00     0.021 A 
ATOM     14  C   UNL d   1     -40.117  15.229  16.682  0.00  0.00     0.003 A 
ATOM     15  C   UNL d   1     -39.954  15.062  17.474  0.00  0.00     0.021 A 
ENDBRANCH   8  10
ENDBRANCH   7   8
ENDBRANCH   2   7
BRANCH   1  16
ATOM     16  N   UNL d   1     -38.959  15.322  22.385  0.00  0.00    -0.301 N 
ATOM     17  C   UNL d   1     -38.568  14.616  22.559  0.00  0.00     0.100 C 
ATOM     18  C   UNL d   1     -39.002  15.922  22.951  0.00  0.00     0.100 C 
ENDBRANCH   1  16
TORSDOF 4
ENDMDL
