MODEL 1
REMARK VINA RESULT:      35.6      0.000      0.000
REMARK  3 active torsions:
REMARK  status: ('A' for Active; 'I' for Inactive)
REMARK    1  A    between atoms: C_8  and  C_1 
REMARK    2  A    between atoms: N_4  and  C_2 
REMARK       I    between atoms: C_6  and  N_4 
REMARK    3  A    between atoms: C_10  and  C_6 
ROOT
ATOM      1  C   UNL d   1      14.560  13.799  -2.199  0.00  0.00     0.177 A 
ATOM      2  C   UNL d   1      14.691  12.979  -2.276  0.00  0.00     0.114 A 
ATOM      3  O   UNL d   1      13.930  13.991  -2.685  0.00  0.00    -0.301 OA
ATOM      4  C   UNL d   1      14.139  12.682  -2.808  0.00  0.00     0.043 A 
ATOM      5  C   UNL d   1      13.667  13.303  -3.062  0.00  0.00     0.102 A 
ATOM      6  C   UNL d   1      14.006  11.920  -3.093  0.00  0.00     0.004 A 
ATOM      7  C   UNL d   1      13.059  13.170  -3.604  0.00  0.00     0.025 A 
ATOM      8  C   UNL d   1      13.396  11.780  -3.638  0.00  0.00     0.000 A 
ATOM      9  C   UNL d   1      12.928  12.411  -3.886  0.00  0.00     0.002 A 
ENDROOT
BRANCH   2  10
ATOM     10  N   UNL d   1      15.274  12.542  -1.886  0.00  0.00    -0.206 NA
ATOM     11  C   UNL d   1      15.126  12.233  -1.135  0.00  0.00     0.279 C 
ATOM     12  O   UNL d   1      15.712  11.793  -0.743  0.00  0.00    -0.265 OA
BRANCH  11  13
ATOM     13  C   UNL d   1      14.395  12.361  -0.775  0.00  0.00     0.058 A 
ATOM     14  C   UNL d   1      14.252  13.068  -0.376  0.00  0.00     0.005 A 
ATOM     15  C   UNL d   1      13.521  13.196  -0.015  0.00  0.00     0.000 A 
ATOM     16  C   UNL d   1      12.933  12.615  -0.054  0.00  0.00     0.000 A 
ATOM     17  C   UNL d   1      13.076  11.908  -0.453  0.00  0.00     0.000 A 
ATOM     18  C   UNL d   1      13.807  11.780  -0.814  0.00  0.00     0.005 A 
ENDBRANCH  11  13
ENDBRANCH   2  10
BRANCH   1  19
ATOM     19  C   UNL d   1      14.983  14.340  -1.720  0.00  0.00     0.321 C 
ATOM     20  O   UNL d   1      15.746  14.144  -1.451  0.00  0.00    -0.261 OA
ATOM     21  N   UNL d   1      14.648  15.051  -1.521  0.00  0.00    -0.101 N 
ENDBRANCH   1  19
TORSDOF 3
ENDMDL
MODEL 2
REMARK VINA RESULT:      36.3      8.610      9.609
REMARK  3 active torsions:
REMARK  status: ('A' for Active; 'I' for Inactive)
REMARK    1  A    between atoms: C_8  and  C_1 
REMARK    2  A    between atoms: N_4  and  C_2 
REMARK       I    between atoms: C_6  and  N_4 
REMARK    3  A    between atoms: C_10  and  C_6 
ROOT
ATOM      1  C   UNL d   1      22.664  13.035  -2.219  0.00  0.00     0.177 A 
ATOM      2  C   UNL d   1      23.209  12.424  -2.062  0.00  0.00     0.114 A 
ATOM      3  O   UNL d   1      22.845  13.335  -2.960  0.00  0.00    -0.301 OA
ATOM      4  C   UNL d   1      23.713  12.360  -2.707  0.00  0.00     0.043 A 
ATOM      5  C   UNL d   1      23.493  12.920  -3.264  0.00  0.00     0.102 A 
ATOM      6  C   UNL d   1      24.350  11.857  -2.858  0.00  0.00     0.004 A 
ATOM      7  C   UNL d   1      23.904  12.985  -3.976  0.00  0.00     0.025 A 
ATOM      8  C   UNL d   1      24.768  11.919  -3.573  0.00  0.00     0.000 A 
ATOM      9  C   UNL d   1      24.537  12.486  -4.125  0.00  0.00     0.002 A 
ENDROOT
BRANCH   2  10
ATOM     10  N   UNL d   1      23.236  11.963  -1.375  0.00  0.00    -0.206 NA
ATOM     11  C   UNL d   1      23.624  12.244  -0.704  0.00  0.00     0.279 C 
ATOM     12  O   UNL d   1      23.651  11.782  -0.014  0.00  0.00    -0.265 OA
BRANCH  11  13
ATOM     13  C   UNL d   1      23.985  12.986  -0.718  0.00  0.00     0.058 A 
ATOM     14  C   UNL d   1      23.925  13.485  -0.064  0.00  0.00     0.005 A 
ATOM     15  C   UNL d   1      24.286  14.226  -0.079  0.00  0.00     0.000 A 
ATOM     16  C   UNL d   1      24.708  14.469  -0.747  0.00  0.00     0.000 A 
ATOM     17  C   UNL d   1      24.768  13.970  -1.401  0.00  0.00     0.000 A 
ATOM     18  C   UNL d   1      24.407  13.228  -1.387  0.00  0.00     0.005 A 
ENDBRANCH  11  13
ENDBRANCH   2  10
BRANCH   1  19
ATOM     19  C   UNL d   1      22.044  13.306  -1.727  0.00  0.00     0.321 C 
ATOM     20  O   UNL d   1      22.065  13.144  -0.911  0.00  0.00    -0.261 OA
ATOM     21  N   UNL d   1      21.427  13.723  -2.047  0.00  0.00    -0.101 N 
ENDBRANCH   1  19
TORSDOF 3
ENDMDL
