MODEL 1
REMARK VINA RESULT:      51.1      0.000      0.000
REMARK  5 active torsions:
REMARK  status: ('A' for Active; 'I' for Inactive)
REMARK    1  A    between atoms: N_5  and  C_1 
REMARK    2  A    between atoms: C_8  and  C_3 
REMARK       I    between atoms: C_7  and  N_5 
REMARK    3  A    between atoms: C_11  and  C_7 
REMARK    4  A    between atoms: C_21  and  C_20 
REMARK    5  A    between atoms: C_24  and  C_21 
ROOT
ATOM      1  N   UNL d   1      45.304 -18.294  39.541  0.00  0.00    -0.165 NA
ATOM      2  C   UNL d   1      45.938 -18.096  40.013  0.00  0.00     0.282 C 
ATOM      3  O   UNL d   1      46.412 -17.445  39.830  0.00  0.00    -0.265 OA
ENDROOT
BRANCH   1   4
ATOM      4  C   UNL d   1      45.128 -17.845  38.873  0.00  0.00     0.297 A 
ATOM      5  O   UNL d   1      45.285 -17.042  38.784  0.00  0.00    -0.253 OA
ATOM      6  C   UNL d   1      45.021 -16.813  38.034  0.00  0.00     0.206 A 
ATOM      7  N   UNL d   1      44.706 -17.475  37.669  0.00  0.00    -0.119 NA
ATOM      8  N   UNL d   1      44.771 -18.112  38.187  0.00  0.00    -0.101 NA
BRANCH   6   9
ATOM      9  C   UNL d   1      45.071 -16.050  37.717  0.00  0.00     0.045 A 
ATOM     10  C   UNL d   1      45.808 -15.746  37.475  0.00  0.00     0.030 A 
ATOM     11  C   UNL d   1      45.848 -15.004  37.168  0.00  0.00     0.123 A 
ATOM     12  O   UNL d   1      46.586 -14.709  36.930  0.00  0.00    -0.301 OA
ATOM     13  C   UNL d   1      45.175 -14.542  37.089  0.00  0.00     0.123 A 
ATOM     14  C   UNL d   1      46.645 -13.957  36.616  0.00  0.00     0.149 A 
ATOM     15  C   UNL d   1      45.969 -13.491  36.536  0.00  0.00     0.149 A 
ATOM     16  O   UNL d   1      45.232 -13.774  36.769  0.00  0.00    -0.301 OA
ATOM     17  C   UNL d   1      44.453 -14.824  37.320  0.00  0.00     0.027 A 
ATOM     18  C   UNL d   1      44.388 -15.589  37.640  0.00  0.00     0.006 A 
ENDBRANCH   6   9
ENDBRANCH   1   4
BRANCH   2  19
ATOM     19  C   UNL d   1      46.114 -18.545  40.682  0.00  0.00     0.058 A 
ATOM     20  C   UNL d   1      46.389 -19.315  40.579  0.00  0.00     0.005 A 
ATOM     21  C   UNL d   1      46.566 -19.766  41.249  0.00  0.00     0.000 A 
ATOM     22  C   UNL d   1      46.469 -19.452  42.006  0.00  0.00     0.000 A 
ATOM     23  C   UNL d   1      46.193 -18.679  42.092  0.00  0.00     0.000 A 
ATOM     24  C   UNL d   1      46.016 -18.229  41.427  0.00  0.00     0.005 A 
BRANCH  22  25
ATOM     25  C   UNL d   1      46.646 -19.905  42.668  0.00  0.00     0.000 C 
BRANCH  25  26
ATOM     26  C   UNL d   1      46.563 -19.586  43.424  0.00  0.00     0.000 A 
ATOM     27  C   UNL d   1      46.638 -18.769  43.541  0.00  0.00     0.000 A 
ATOM     28  C   UNL d   1      46.554 -18.454  44.298  0.00  0.00     0.000 A 
ATOM     29  C   UNL d   1      46.394 -18.956  44.946  0.00  0.00     0.000 A 
ATOM     30  C   UNL d   1      46.320 -19.770  44.826  0.00  0.00     0.000 A 
ATOM     31  C   UNL d   1      46.404 -20.090  44.065  0.00  0.00     0.000 A 
ENDBRANCH  25  26
ENDBRANCH  22  25
ENDBRANCH   2  19
TORSDOF 5
ENDMDL
