MODEL 1
REMARK VINA RESULT:      46.6      0.000      0.000
REMARK  3 active torsions:
REMARK  status: ('A' for Active; 'I' for Inactive)
REMARK    1  A    between atoms: N_2  and  C_12 
REMARK    2  A    between atoms: N_10  and  C_6 
REMARK       I    between atoms: C_11  and  N_10 
REMARK    3  A    between atoms: C_12  and  C_11 
ROOT
ATOM      1  C   UNL d   1     -51.483  23.990  33.340  0.00  0.00     0.283 A 
ATOM      2  N   UNL d   1     -52.046  23.359  33.353  0.00  0.00    -0.169 NA
ATOM      3  C   UNL d   1     -51.966  24.699  33.329  0.00  0.00     0.080 A 
ATOM      4  C   UNL d   1     -52.783  23.677  33.349  0.00  0.00     0.282 A 
ATOM      5  C   UNL d   1     -51.750  25.492  33.314  0.00  0.00     0.089 A 
ATOM      6  C   UNL d   1     -52.755  24.462  33.335  0.00  0.00     0.064 A 
ATOM      7  O   UNL d   1     -50.633  23.984  33.338  0.00  0.00    -0.265 OA
ATOM      8  O   UNL d   1     -53.483  23.207  33.360  0.00  0.00    -0.265 OA
ATOM      9  C   UNL d   1     -52.352  26.071  33.306  0.00  0.00     0.019 A 
ATOM     10  C   UNL d   1     -53.345  25.049  33.327  0.00  0.00     0.005 A 
ATOM     11  C   UNL d   1     -53.131  25.818  33.312  0.00  0.00     0.002 A 
ENDROOT
BRANCH   5  12
ATOM     12  N   UNL d   1     -50.903  25.747  33.307  0.00  0.00    -0.207 NA
ATOM     13  C   UNL d   1     -50.752  26.533  33.527  0.00  0.00     0.297 C 
ATOM     14  O   UNL d   1     -51.332  27.050  33.739  0.00  0.00    -0.264 OA
BRANCH  13  15
ATOM     15  C   UNL d   1     -49.960  26.764  33.519  0.00  0.00     0.148 C 
BRANCH  15  16
ATOM     16  N   UNL d   1     -49.657  27.114  34.194  0.00  0.00    -0.236 N 
ATOM     17  C   UNL d   1     -49.938  27.107  34.982  0.00  0.00     0.267 A 
ATOM     18  C   UNL d   1     -49.398  27.563  35.436  0.00  0.00     0.066 A 
ATOM     19  O   UNL d   1     -50.631  26.718  35.265  0.00  0.00    -0.267 OA
ATOM     20  C   UNL d   1     -48.813  27.831  34.931  0.00  0.00     0.066 A 
ATOM     21  C   UNL d   1     -48.975  27.551  34.152  0.00  0.00     0.267 A 
ATOM     22  O   UNL d   1     -48.541  27.676  33.445  0.00  0.00    -0.267 OA
ENDBRANCH  15  16
ENDBRANCH  13  15
ENDBRANCH   5  12
TORSDOF 3
ENDMDL
MODEL 2
REMARK VINA RESULT:      47.1      0.825      1.493
REMARK  3 active torsions:
REMARK  status: ('A' for Active; 'I' for Inactive)
REMARK    1  A    between atoms: N_2  and  C_12 
REMARK    2  A    between atoms: N_10  and  C_6 
REMARK       I    between atoms: C_11  and  N_10 
REMARK    3  A    between atoms: C_12  and  C_11 
ROOT
ATOM      1  C   UNL d   1     -52.576  25.143  33.338  0.00  0.00     0.283 A 
ATOM      2  N   UNL d   1     -53.238  24.617  33.338  0.00  0.00    -0.169 NA
ATOM      3  C   UNL d   1     -51.896  24.621  33.327  0.00  0.00     0.080 A 
ATOM      4  C   UNL d   1     -52.962  23.864  33.328  0.00  0.00     0.282 A 
ATOM      5  C   UNL d   1     -51.092  24.792  33.321  0.00  0.00     0.089 A 
ATOM      6  C   UNL d   1     -52.176  23.847  33.322  0.00  0.00     0.064 A 
ATOM      7  O   UNL d   1     -52.535  25.993  33.345  0.00  0.00    -0.265 OA
ATOM      8  O   UNL d   1     -53.471  23.190  33.326  0.00  0.00    -0.265 OA
ATOM      9  C   UNL d   1     -50.547  24.159  33.311  0.00  0.00     0.019 A 
ATOM     10  C   UNL d   1     -51.624  23.225  33.311  0.00  0.00     0.005 A 
ATOM     11  C   UNL d   1     -50.844  23.396  33.306  0.00  0.00     0.002 A 
ENDROOT
BRANCH   5  12
ATOM     12  N   UNL d   1     -50.790  25.624  33.327  0.00  0.00    -0.207 NA
ATOM     13  C   UNL d   1     -49.986  25.724  33.511  0.00  0.00     0.297 C 
ATOM     14  O   UNL d   1     -49.493  25.109  33.678  0.00  0.00    -0.264 OA
BRANCH  13  15
ATOM     15  C   UNL d   1     -49.711  26.502  33.514  0.00  0.00     0.148 C 
BRANCH  15  16
ATOM     16  N   UNL d   1     -49.621  26.872  34.240  0.00  0.00    -0.236 N 
ATOM     17  C   UNL d   1     -50.152  26.943  34.882  0.00  0.00     0.267 A 
ATOM     18  C   UNL d   1     -49.754  27.383  35.477  0.00  0.00     0.066 A 
ATOM     19  O   UNL d   1     -50.935  26.632  34.924  0.00  0.00    -0.267 OA
ATOM     20  C   UNL d   1     -49.009  27.567  35.194  0.00  0.00     0.066 A 
ATOM     21  C   UNL d   1     -48.924  27.247  34.418  0.00  0.00     0.267 A 
ATOM     22  O   UNL d   1     -48.267  27.286  33.899  0.00  0.00    -0.267 OA
ENDBRANCH  15  16
ENDBRANCH  13  15
ENDBRANCH   5  12
TORSDOF 3
ENDMDL
