MODEL 1
REMARK VINA RESULT:      36.1      0.000      0.000
REMARK  4 active torsions:
REMARK  status: ('A' for Active; 'I' for Inactive)
REMARK    1  A    between atoms: C_4  and  C_1 
REMARK    2  A    between atoms: C_7  and  C_4 
REMARK    3  A    between atoms: N_10  and  C_7 
REMARK    4  A    between atoms: C_11  and  N_10 
ROOT
ATOM      1  C   UNL d   1     -55.810 -99.132 -44.387  0.00  0.00     0.122 C 
ATOM      2  C   UNL d   1     -55.318 -98.959 -45.022  0.00  0.00     0.106 C 
ATOM      3  N   UNL d   1     -54.826 -98.785 -45.657  0.00  0.00    -0.191 NA
ENDROOT
BRANCH   1   4
ATOM      4  C   UNL d   1     -56.627 -99.059 -44.465  0.00  0.00     0.159 A 
ATOM      5  N   UNL d   1     -57.049 -99.049 -45.174  0.00  0.00    -0.226 NA
ATOM      6  C   UNL d   1     -57.844 -98.968 -44.996  0.00  0.00     0.099 A 
ATOM      7  C   UNL d   1     -58.520 -98.925 -45.474  0.00  0.00     0.021 A 
ATOM      8  C   UNL d   1     -57.919 -98.927 -44.176  0.00  0.00     0.083 A 
ATOM      9  C   UNL d   1     -59.264 -98.841 -45.125  0.00  0.00     0.002 A 
ATOM     10  C   UNL d   1     -59.339 -98.800 -44.305  0.00  0.00     0.002 A 
ATOM     11  C   UNL d   1     -58.671 -98.842 -43.827  0.00  0.00     0.019 A 
ATOM     12  N   UNL d   1     -57.171 -98.983 -43.845  0.00  0.00    -0.287 N 
ATOM     13  C   UNL d   1     -56.983 -98.966 -43.039  0.00  0.00     0.101 C 
ENDBRANCH   1   4
BRANCH   1  14
ATOM     14  C   UNL d   1     -55.485 -99.378 -43.672  0.00  0.00     0.114 C 
BRANCH  14  15
ATOM     15  N   UNL d   1     -54.775 -99.796 -43.664  0.00  0.00    -0.225 NA
BRANCH  15  16
ATOM     16  C   UNL d   1     -54.783-100.621 -43.620  0.00  0.00     0.163 A 
ATOM     17  N   UNL d   1     -54.823-101.000 -42.890  0.00  0.00    -0.225 NA
ATOM     18  C   UNL d   1     -54.831-101.823 -42.849  0.00  0.00     0.101 A 
ATOM     19  C   UNL d   1     -54.798-102.268 -43.545  0.00  0.00     0.021 A 
ATOM     20  C   UNL d   1     -54.758-101.886 -44.288  0.00  0.00     0.005 A 
ATOM     21  C   UNL d   1     -54.750-101.060 -44.318  0.00  0.00     0.039 A 
ENDBRANCH  15  16
ENDBRANCH  14  15
ENDBRANCH   1  14
TORSDOF 4
ENDMDL
