MODEL 1
REMARK VINA RESULT:       7.5      0.000      0.000
REMARK  6 active torsions:
REMARK  status: ('A' for Active; 'I' for Inactive)
REMARK    1  A    between atoms: C_21  and  N_1 
REMARK       I    between atoms: N_7  and  C_10 
REMARK    2  A    between atoms: C_15  and  N_8 
REMARK    3  A    between atoms: C_10  and  C_27 
REMARK    4  A    between atoms: C_29  and  C_21 
REMARK    5  A    between atoms: O_28  and  C_24 
REMARK    6  A    between atoms: C_27  and  C_29 
ROOT
ATOM      1  N   UNL d   1      58.631  -4.226  28.751  0.00  0.00    -0.269 N 
ATOM      2  N   UNL d   1      59.131  -2.700  29.047  0.00  0.00    -0.301 N 
ATOM      3  C   UNL d   1      58.384  -5.010  28.600  0.00  0.00     0.265 C 
ATOM      4  C   UNL d   1      58.074  -3.637  28.834  0.00  0.00     0.102 A 
ATOM      5  C   UNL d   1      59.437  -4.076  28.812  0.00  0.00     0.102 A 
ATOM      6  C   UNL d   1      58.318  -2.861  28.984  0.00  0.00     0.100 A 
ATOM      7  C   UNL d   1      59.684  -3.292  28.963  0.00  0.00     0.100 A 
ATOM      8  O   UNL d   1      57.577  -5.195  28.533  0.00  0.00    -0.267 OA
ENDROOT
BRANCH   3   9
ATOM      9  C   UNL d   1      58.968  -5.599  28.518  0.00  0.00     0.063 C 
BRANCH   9  10
ATOM     10  C   UNL d   1      58.853  -6.327  28.919  0.00  0.00     0.024 C 
BRANCH  10  11
ATOM     11  C   UNL d   1      58.694  -7.014  28.466  0.00  0.00     0.088 C 
BRANCH  11  12
ATOM     12  N   UNL d   1      58.495  -7.728  28.850  0.00  0.00    -0.224 N 
ATOM     13  C   UNL d   1      57.709  -8.012  28.841  0.00  0.00     0.276 A 
ATOM     14  C   UNL d   1      57.529  -8.720  29.226  0.00  0.00     0.104 A 
ATOM     15  O   UNL d   1      57.132  -7.591  28.456  0.00  0.00    -0.266 OA
ATOM     16  S   UNL d   1      56.820  -9.129  29.310  0.00  0.00    -0.080 SA
ATOM     17  C   UNL d   1      58.117  -9.149  29.618  0.00  0.00     0.097 A 
ATOM     18  C   UNL d   1      56.976  -9.792  29.744  0.00  0.00     0.037 A 
ATOM     19  C   UNL d   1      57.772  -9.817  29.941  0.00  0.00     0.027 A 
ATOM     20  N   UNL d   1      58.892  -8.868  29.626  0.00  0.00    -0.191 NA
ATOM     21  C   UNL d   1      59.086  -8.164  29.247  0.00  0.00     0.356 A 
ATOM     22  O   UNL d   1      59.869  -7.872  29.251  0.00  0.00    -0.244 OA
ENDBRANCH  11  12
ENDBRANCH  10  11
ENDBRANCH   9  10
ENDBRANCH   3   9
BRANCH   2  23
ATOM     23  C   UNL d   1      59.389  -1.928  29.197  0.00  0.00     0.064 A 
ATOM     24  C   UNL d   1      60.165  -1.692  29.045  0.00  0.00     0.020 A 
ATOM     25  C   UNL d   1      60.409  -0.929  29.197  0.00  0.00     0.026 A 
ATOM     26  C   UNL d   1      59.881  -0.377  29.505  0.00  0.00     0.094 A 
ATOM     27  C   UNL d   1      59.100  -0.613  29.658  0.00  0.00     0.026 A 
ATOM     28  C   UNL d   1      58.852  -1.384  29.505  0.00  0.00     0.020 A 
BRANCH  26  29
ATOM     29  O   UNL d   1      60.100   0.405  29.669  0.00  0.00    -0.328 OA
ATOM     30  C   UNL d   1      60.543   0.565  30.359  0.00  0.00     0.181 C 
ENDBRANCH  26  29
ENDBRANCH   2  23
TORSDOF 6
ENDMDL
