MODEL 1
REMARK VINA RESULT:      -3.0      0.000      0.000
REMARK  4 active torsions:
REMARK  status: ('A' for Active; 'I' for Inactive)
REMARK    1  A    between atoms: C_8  and  C_6 
REMARK    2  A    between atoms: C_9  and  C_8 
REMARK       I    between atoms: N_11  and  C_9 
REMARK       I    between atoms: C_10  and  N_12 
REMARK    3  A    between atoms: C_17  and  N_11 
REMARK    4  A    between atoms: N_12  and  C_18 
ROOT
ATOM      1  N   UNL d   1      30.155  17.727 -24.857  0.00  0.00    -0.207 NA
ATOM      2  N   UNL d   1      31.039  17.024 -23.616  0.00  0.00    -0.240 NA
ATOM      3  C   UNL d   1      30.893  17.885 -24.555  0.00  0.00     0.297 A 
ATOM      4  C   UNL d   1      29.603  17.156 -24.633  0.00  0.00     0.086 A 
ATOM      5  C   UNL d   1      30.366  16.557 -23.571  0.00  0.00     0.083 A 
ATOM      6  C   UNL d   1      31.190  17.645 -24.135  0.00  0.00     0.144 A 
ATOM      7  C   UNL d   1      29.675  16.587 -24.028  0.00  0.00     0.035 A 
ATOM      8  O   UNL d   1      31.298  18.503 -24.916  0.00  0.00    -0.264 OA
ATOM      9  C   UNL d   1      29.054  16.059 -23.891  0.00  0.00     0.003 A 
ATOM     10  C   UNL d   1      30.438  15.994 -22.971  0.00  0.00     0.019 A 
ATOM     11  C   UNL d   1      28.915  17.188 -25.091  0.00  0.00     0.019 A 
ATOM     12  C   UNL d   1      29.811  15.456 -22.827  0.00  0.00     0.002 A 
ATOM     13  C   UNL d   1      28.298  16.657 -24.948  0.00  0.00     0.002 A 
ATOM     14  C   UNL d   1      28.369  16.094 -24.349  0.00  0.00     0.000 A 
ATOM     15  C   UNL d   1      29.126  15.490 -23.284  0.00  0.00     0.000 A 
ENDROOT
BRANCH   6  16
ATOM     16  C   UNL d   1      31.929  17.991 -24.020  0.00  0.00     0.086 C 
BRANCH  16  17
ATOM     17  C   UNL d   1      32.598  17.505 -23.925  0.00  0.00     0.281 C 
ATOM     18  N   UNL d   1      33.241  17.771 -23.477  0.00  0.00    -0.208 NA
ATOM     19  O   UNL d   1      32.623  16.757 -24.276  0.00  0.00    -0.265 OA
BRANCH  18  20
ATOM     20  C   UNL d   1      33.221  18.518 -23.125  0.00  0.00     0.085 A 
ATOM     21  C   UNL d   1      33.213  18.579 -22.305  0.00  0.00     0.021 A 
ATOM     22  C   UNL d   1      33.193  19.320 -21.947  0.00  0.00     0.021 A 
ATOM     23  C   UNL d   1      33.181  20.005 -22.417  0.00  0.00     0.085 A 
ATOM     24  C   UNL d   1      33.189  19.939 -23.239  0.00  0.00     0.021 A 
ATOM     25  C   UNL d   1      33.209  19.196 -23.593  0.00  0.00     0.021 A 
BRANCH  23  26
ATOM     26  N   UNL d   1      33.161  20.735 -22.068  0.00  0.00    -0.208 NA
ATOM     27  C   UNL d   1      32.496  20.974 -21.662  0.00  0.00     0.279 C 
ATOM     28  O   UNL d   1      31.854  20.484 -21.604  0.00  0.00    -0.265 OA
ATOM     29  C   UNL d   1      32.475  21.711 -21.309  0.00  0.00     0.068 C 
ENDBRANCH  23  26
ENDBRANCH  18  20
ENDBRANCH  16  17
ENDBRANCH   6  16
TORSDOF 4
ENDMDL
MODEL 2
REMARK VINA RESULT:      -0.7      2.003      5.798
REMARK  4 active torsions:
REMARK  status: ('A' for Active; 'I' for Inactive)
REMARK    1  A    between atoms: C_8  and  C_6 
REMARK    2  A    between atoms: C_9  and  C_8 
REMARK       I    between atoms: N_11  and  C_9 
REMARK       I    between atoms: C_10  and  N_12 
REMARK    3  A    between atoms: C_17  and  N_11 
REMARK    4  A    between atoms: N_12  and  C_18 
ROOT
ATOM      1  N   UNL d   1      33.068  20.877 -20.338  0.00  0.00    -0.207 NA
ATOM      2  N   UNL d   1      32.447  21.472 -21.779  0.00  0.00    -0.240 NA
ATOM      3  C   UNL d   1      32.980  20.543 -21.075  0.00  0.00     0.297 A 
ATOM      4  C   UNL d   1      32.870  21.633 -20.074  0.00  0.00     0.086 A 
ATOM      5  C   UNL d   1      32.339  22.138 -21.312  0.00  0.00     0.083 A 
ATOM      6  C   UNL d   1      32.769  20.747 -21.561  0.00  0.00     0.144 A 
ATOM      7  C   UNL d   1      32.523  22.252 -20.512  0.00  0.00     0.035 A 
ATOM      8  O   UNL d   1      33.241  19.766 -21.144  0.00  0.00    -0.264 OA
ATOM      9  C   UNL d   1      32.368  22.974 -20.141  0.00  0.00     0.003 A 
ATOM     10  C   UNL d   1      31.995  22.751 -21.746  0.00  0.00     0.019 A 
ATOM     11  C   UNL d   1      33.055  21.744 -19.276  0.00  0.00     0.019 A 
ATOM     12  C   UNL d   1      31.835  23.485 -21.375  0.00  0.00     0.002 A 
ATOM     13  C   UNL d   1      32.897  22.469 -18.911  0.00  0.00     0.002 A 
ATOM     14  C   UNL d   1      32.553  23.082 -19.344  0.00  0.00     0.000 A 
ATOM     15  C   UNL d   1      32.021  23.594 -20.580  0.00  0.00     0.000 A 
ENDROOT
BRANCH   6  16
ATOM     16  C   UNL d   1      32.792  20.202 -22.179  0.00  0.00     0.086 C 
BRANCH  16  17
ATOM     17  C   UNL d   1      32.994  20.461 -22.944  0.00  0.00     0.281 C 
ATOM     18  N   UNL d   1      32.948  19.935 -23.582  0.00  0.00    -0.208 NA
ATOM     19  O   UNL d   1      33.240  21.239 -23.070  0.00  0.00    -0.265 OA
BRANCH  18  20
ATOM     20  C   UNL d   1      32.702  19.155 -23.461  0.00  0.00     0.085 A 
ATOM     21  C   UNL d   1      33.210  18.622 -23.097  0.00  0.00     0.021 A 
ATOM     22  C   UNL d   1      32.972  17.844 -22.974  0.00  0.00     0.021 A 
ATOM     23  C   UNL d   1      32.217  17.600 -23.218  0.00  0.00     0.085 A 
ATOM     24  C   UNL d   1      31.710  18.139 -23.584  0.00  0.00     0.021 A 
ATOM     25  C   UNL d   1      31.953  18.916 -23.705  0.00  0.00     0.021 A 
BRANCH  23  26
ATOM     26  N   UNL d   1      31.979  16.836 -23.099  0.00  0.00    -0.208 NA
ATOM     27  C   UNL d   1      32.345  16.229 -23.500  0.00  0.00     0.279 C 
ATOM     28  O   UNL d   1      32.947  16.385 -24.019  0.00  0.00    -0.265 OA
ATOM     29  C   UNL d   1      32.106  15.456 -23.381  0.00  0.00     0.068 C 
ENDBRANCH  23  26
ENDBRANCH  18  20
ENDBRANCH  16  17
ENDBRANCH   6  16
TORSDOF 4
ENDMDL
