MODEL 1
REMARK VINA RESULT:      -2.9      0.000      0.000
REMARK  2 active torsions:
REMARK  status: ('A' for Active; 'I' for Inactive)
REMARK    1  A    between atoms: C_5  and  C_1 
REMARK    2  A    between atoms: C_7  and  N_2 
ROOT
ATOM      1  C   UNL d   1     -43.221-123.191 -49.133  0.00  0.00     0.129 A 
ATOM      2  N   UNL d   1     -42.392-123.213 -49.209  0.00  0.00    -0.302 N 
ATOM      3  C   UNL d   1     -43.399-123.280 -48.329  0.00  0.00     0.025 A 
ATOM      4  C   UNL d   1     -42.065-123.316 -48.458  0.00  0.00     0.064 A 
ATOM      5  C   UNL d   1     -42.690-123.357 -47.911  0.00  0.00     0.018 A 
ATOM      6  C   UNL d   1     -41.281-123.377 -48.193  0.00  0.00     0.018 A 
ATOM      7  C   UNL d   1     -42.526-123.460 -47.105  0.00  0.00     0.002 A 
ATOM      8  C   UNL d   1     -41.123-123.479 -47.393  0.00  0.00     0.002 A 
ATOM      9  C   UNL d   1     -41.743-123.520 -46.852  0.00  0.00     0.000 A 
ENDROOT
BRANCH   2  10
ATOM     10  C   UNL d   1     -41.967-123.145 -49.916  0.00  0.00     0.064 A 
ATOM     11  C   UNL d   1     -41.738-122.399 -50.177  0.00  0.00     0.018 A 
ATOM     12  C   UNL d   1     -41.316-122.329 -50.879  0.00  0.00     0.002 A 
ATOM     13  C   UNL d   1     -41.124-123.001 -51.317  0.00  0.00     0.000 A 
ATOM     14  C   UNL d   1     -41.356-123.750 -51.051  0.00  0.00     0.002 A 
ATOM     15  C   UNL d   1     -41.779-123.815 -50.347  0.00  0.00     0.018 A 
ENDBRANCH   2  10
BRANCH   1  16
ATOM     16  C   UNL d   1     -43.763-123.097 -49.746  0.00  0.00     0.228 C 
ATOM     17  O   UNL d   1     -44.134-123.755 -50.073  0.00  0.00    -0.643 OA
ATOM     18  O   UNL d   1     -43.934-122.338 -50.032  0.00  0.00    -0.643 OA
ENDBRANCH   1  16
TORSDOF 2
ENDMDL
