MODEL 1
REMARK VINA RESULT:      45.2      0.000      0.000
REMARK  6 active torsions:
REMARK  status: ('A' for Active; 'I' for Inactive)
REMARK    1  A    between atoms: C_13  and  C_3 
REMARK    2  A    between atoms: S_12  and  C_4 
REMARK    3  A    between atoms: C_8  and  C_6 
REMARK    4  A    between atoms: O_17  and  C_8 
REMARK    5  A    between atoms: C_10  and  C_16 
REMARK    6  A    between atoms: C_16  and  S_12 
ROOT
ATOM      1  O   UNL d   1     -49.658  27.625  34.511  0.00  0.00    -0.263 OA
ATOM      2  N   UNL d   1     -48.870  26.713  33.941  0.00  0.00    -0.120 NA
ATOM      3  C   UNL d   1     -49.649  26.926  34.062  0.00  0.00     0.205 A 
ATOM      4  C   UNL d   1     -48.872  27.832  34.661  0.00  0.00     0.236 A 
ATOM      5  N   UNL d   1     -48.387  27.271  34.311  0.00  0.00    -0.114 NA
ENDROOT
BRANCH   4   6
ATOM      6  S   UNL d   1     -48.606  28.495  35.094  0.00  0.00    -0.039 SA
BRANCH   6   7
ATOM      7  C   UNL d   1     -47.855  28.807  34.952  0.00  0.00     0.064 C 
BRANCH   7   8
ATOM      8  C   UNL d   1     -47.694  29.590  35.151  0.00  0.00     0.107 A 
ATOM      9  O   UNL d   1     -47.738  30.293  34.718  0.00  0.00    -0.301 OA
ATOM     10  C   UNL d   1     -47.505  30.918  35.219  0.00  0.00     0.163 A 
ATOM     11  C   UNL d   1     -47.322  30.591  35.951  0.00  0.00     0.032 A 
ATOM     12  C   UNL d   1     -47.435  29.783  35.917  0.00  0.00     0.027 A 
BRANCH  10  13
ATOM     13  C   UNL d   1     -47.464  31.721  35.018  0.00  0.00     0.319 C 
ATOM     14  O   UNL d   1     -47.203  32.272  35.579  0.00  0.00    -0.257 OA
BRANCH  13  15
ATOM     15  O   UNL d   1     -47.682  31.977  34.264  0.00  0.00    -0.294 OA
ATOM     16  C   UNL d   1     -47.771  32.785  34.102  0.00  0.00     0.185 C 
ENDBRANCH  13  15
ENDBRANCH  10  13
ENDBRANCH   7   8
ENDBRANCH   6   7
ENDBRANCH   4   6
BRANCH   3  17
ATOM     17  C   UNL d   1     -50.344  26.557  33.809  0.00  0.00     0.046 A 
ATOM     18  C   UNL d   1     -51.042  26.987  33.775  0.00  0.00     0.024 A 
ATOM     19  C   UNL d   1     -51.739  26.626  33.524  0.00  0.00     0.099 A 
ATOM     20  N   UNL d   1     -51.742  25.829  33.306  0.00  0.00    -0.242 NA
ATOM     21  C   UNL d   1     -51.035  25.395  33.341  0.00  0.00     0.099 A 
ATOM     22  C   UNL d   1     -50.343  25.761  33.591  0.00  0.00     0.024 A 
ENDBRANCH   3  17
TORSDOF 6
ENDMDL
MODEL 2
REMARK VINA RESULT:      46.6      1.739      5.510
REMARK  6 active torsions:
REMARK  status: ('A' for Active; 'I' for Inactive)
REMARK    1  A    between atoms: C_13  and  C_3 
REMARK    2  A    between atoms: S_12  and  C_4 
REMARK    3  A    between atoms: C_8  and  C_6 
REMARK    4  A    between atoms: O_17  and  C_8 
REMARK    5  A    between atoms: C_10  and  C_16 
REMARK    6  A    between atoms: C_16  and  S_12 
ROOT
ATOM      1  O   UNL d   1     -48.404  29.405  35.005  0.00  0.00    -0.263 OA
ATOM      2  N   UNL d   1     -47.598  29.227  36.053  0.00  0.00    -0.120 NA
ATOM      3  C   UNL d   1     -47.846  29.773  35.499  0.00  0.00     0.205 A 
ATOM      4  C   UNL d   1     -48.491  28.626  35.270  0.00  0.00     0.236 A 
ATOM      5  N   UNL d   1     -47.996  28.517  35.914  0.00  0.00    -0.114 NA
ENDROOT
BRANCH   4   6
ATOM      6  S   UNL d   1     -48.993  28.044  34.945  0.00  0.00    -0.039 SA
BRANCH   6   7
ATOM      7  C   UNL d   1     -49.301  28.140  34.185  0.00  0.00     0.064 C 
BRANCH   7   8
ATOM      8  C   UNL d   1     -49.853  27.601  33.897  0.00  0.00     0.107 A 
ATOM      9  O   UNL d   1     -49.866  26.775  33.879  0.00  0.00    -0.301 OA
ATOM     10  C   UNL d   1     -50.579  26.538  33.515  0.00  0.00     0.163 A 
ATOM     11  C   UNL d   1     -50.992  27.220  33.315  0.00  0.00     0.032 A 
ATOM     12  C   UNL d   1     -50.557  27.871  33.545  0.00  0.00     0.027 A 
BRANCH  10  13
ATOM     13  C   UNL d   1     -50.825  25.758  33.379  0.00  0.00     0.319 C 
ATOM     14  O   UNL d   1     -51.634  25.590  33.306  0.00  0.00    -0.257 OA
BRANCH  13  15
ATOM     15  O   UNL d   1     -50.273  25.147  33.314  0.00  0.00    -0.294 OA
ATOM     16  C   UNL d   1     -50.439  24.395  33.620  0.00  0.00     0.185 C 
ENDBRANCH  13  15
ENDBRANCH  10  13
ENDBRANCH   7   8
ENDBRANCH   6   7
ENDBRANCH   4   6
BRANCH   3  17
ATOM     17  C   UNL d   1     -47.621  30.562  35.395  0.00  0.00     0.046 A 
ATOM     18  C   UNL d   1     -47.866  30.969  34.727  0.00  0.00     0.024 A 
ATOM     19  C   UNL d   1     -47.646  31.756  34.616  0.00  0.00     0.099 A 
ATOM     20  N   UNL d   1     -47.177  32.141  35.176  0.00  0.00    -0.242 NA
ATOM     21  C   UNL d   1     -46.929  31.728  35.852  0.00  0.00     0.099 A 
ATOM     22  C   UNL d   1     -47.152  30.943  35.957  0.00  0.00     0.024 A 
ENDBRANCH   3  17
TORSDOF 6
ENDMDL
MODEL 3
REMARK VINA RESULT:      46.9      1.752      5.406
REMARK  6 active torsions:
REMARK  status: ('A' for Active; 'I' for Inactive)
REMARK    1  A    between atoms: C_13  and  C_3 
REMARK    2  A    between atoms: S_12  and  C_4 
REMARK    3  A    between atoms: C_8  and  C_6 
REMARK    4  A    between atoms: O_17  and  C_8 
REMARK    5  A    between atoms: C_10  and  C_16 
REMARK    6  A    between atoms: C_16  and  S_12 
ROOT
ATOM      1  O   UNL d   1     -48.369  29.645  34.816  0.00  0.00    -0.263 OA
ATOM      2  N   UNL d   1     -47.386  29.585  35.715  0.00  0.00    -0.120 NA
ATOM      3  C   UNL d   1     -47.782  30.086  35.207  0.00  0.00     0.205 A 
ATOM      4  C   UNL d   1     -48.321  28.869  35.096  0.00  0.00     0.236 A 
ATOM      5  N   UNL d   1     -47.717  28.832  35.649  0.00  0.00    -0.114 NA
ENDROOT
BRANCH   4   6
ATOM      6  S   UNL d   1     -48.801  28.226  34.864  0.00  0.00    -0.039 SA
BRANCH   6   7
ATOM      7  C   UNL d   1     -48.850  28.014  34.067  0.00  0.00     0.064 C 
BRANCH   7   8
ATOM      8  C   UNL d   1     -49.352  27.402  33.839  0.00  0.00     0.107 A 
ATOM      9  O   UNL d   1     -50.175  27.351  33.779  0.00  0.00    -0.301 OA
ATOM     10  C   UNL d   1     -50.366  26.583  33.515  0.00  0.00     0.163 A 
ATOM     11  C   UNL d   1     -49.659  26.174  33.416  0.00  0.00     0.032 A 
ATOM     12  C   UNL d   1     -49.038  26.667  33.611  0.00  0.00     0.027 A 
BRANCH  10  13
ATOM     13  C   UNL d   1     -51.127  26.286  33.377  0.00  0.00     0.319 C 
ATOM     14  O   UNL d   1     -51.242  25.468  33.306  0.00  0.00    -0.257 OA
BRANCH  13  15
ATOM     15  O   UNL d   1     -51.773  26.796  33.311  0.00  0.00    -0.294 OA
ATOM     16  C   UNL d   1     -52.536  26.539  33.504  0.00  0.00     0.185 C 
ENDBRANCH  13  15
ENDBRANCH  10  13
ENDBRANCH   7   8
ENDBRANCH   6   7
ENDBRANCH   4   6
BRANCH   3  17
ATOM     17  C   UNL d   1     -47.668  30.892  35.062  0.00  0.00     0.046 A 
ATOM     18  C   UNL d   1     -47.311  31.360  35.634  0.00  0.00     0.024 A 
ATOM     19  C   UNL d   1     -47.194  32.164  35.497  0.00  0.00     0.099 A 
ATOM     20  N   UNL d   1     -47.434  32.506  34.785  0.00  0.00    -0.242 NA
ATOM     21  C   UNL d   1     -47.795  32.032  34.207  0.00  0.00     0.099 A 
ATOM     22  C   UNL d   1     -47.909  31.231  34.349  0.00  0.00     0.024 A 
ENDBRANCH   3  17
TORSDOF 6
ENDMDL
