MODEL 1
REMARK VINA RESULT:       0.2      0.000      0.000
REMARK  3 active torsions:
REMARK  status: ('A' for Active; 'I' for Inactive)
REMARK    1  A    between atoms: C_16  and  N_3 
REMARK    2  A    between atoms: C_10  and  C_5 
REMARK    3  A    between atoms: C_26  and  C_16 
ROOT
ATOM      1  C   UNL d   1      32.784  20.369 -23.380  0.00  0.00     0.083 A 
ATOM      2  C   UNL d   1      32.898  20.449 -24.191  0.00  0.00     0.161 A 
ATOM      3  N   UNL d   1      33.084  21.653 -23.637  0.00  0.00    -0.268 N 
ATOM      4  C   UNL d   1      33.084  21.242 -24.355  0.00  0.00     0.288 A 
ATOM      5  C   UNL d   1      32.899  21.112 -23.033  0.00  0.00     0.072 A 
ATOM      6  C   UNL d   1      32.591  19.637 -23.055  0.00  0.00     0.201 A 
ATOM      7  O   UNL d   1      32.818  19.785 -24.686  0.00  0.00    -0.302 OA
ATOM      8  C   UNL d   1      32.512  18.980 -23.549  0.00  0.00     0.063 A 
ATOM      9  C   UNL d   1      32.625  19.056 -24.360  0.00  0.00     0.103 A 
ATOM     10  O   UNL d   1      33.240  21.561 -25.093  0.00  0.00    -0.264 OA
ATOM     11  O   UNL d   1      32.477  19.556 -22.244  0.00  0.00    -0.286 OA
ATOM     12  C   UNL d   1      32.319  18.243 -23.224  0.00  0.00     0.017 A 
ATOM     13  C   UNL d   1      32.544  18.388 -24.852  0.00  0.00     0.026 A 
ATOM     14  C   UNL d   1      32.239  17.586 -23.710  0.00  0.00     0.058 A 
ATOM     15  C   UNL d   1      32.351  17.658 -24.526  0.00  0.00     0.013 A 
ATOM     16 CL   UNL d   1      32.047  16.858 -23.389  0.00  0.00    -0.082 Cl
ENDROOT
BRANCH   5  17
ATOM     17  C   UNL d   1      32.786  21.036 -22.221  0.00  0.00     0.017 A 
ATOM     18  C   UNL d   1      32.220  21.496 -21.830  0.00  0.00     0.008 A 
ATOM     19  C   UNL d   1      32.110  21.418 -21.019  0.00  0.00     0.035 A 
ATOM     20 BR   UNL d   1      31.545  21.878 -20.637  0.00  0.00    -0.049 Br
ATOM     21  C   UNL d   1      32.567  20.874 -20.585  0.00  0.00     0.007 A 
ATOM     22  C   UNL d   1      33.133  20.414 -20.976  0.00  0.00     0.001 A 
ATOM     23  C   UNL d   1      33.241  20.497 -21.796  0.00  0.00     0.002 A 
ENDBRANCH   5  17
BRANCH   3  24
ATOM     24  C   UNL d   1      33.241  22.454 -23.536  0.00  0.00     0.129 C 
BRANCH  24  25
ATOM     25  C   UNL d   1      33.120  22.976 -24.160  0.00  0.00     0.253 C 
ATOM     26  O   UNL d   1      32.719  23.683 -24.035  0.00  0.00    -0.281 OA
ENDBRANCH  24  25
ENDBRANCH   3  24
TORSDOF 3
ENDMDL
MODEL 2
REMARK VINA RESULT:       1.5      2.283      4.340
REMARK  3 active torsions:
REMARK  status: ('A' for Active; 'I' for Inactive)
REMARK    1  A    between atoms: C_16  and  N_3 
REMARK    2  A    between atoms: C_10  and  C_5 
REMARK    3  A    between atoms: C_26  and  C_16 
ROOT
ATOM      1  C   UNL d   1      32.964  21.650 -21.758  0.00  0.00     0.083 A 
ATOM      2  C   UNL d   1      33.089  20.931 -21.378  0.00  0.00     0.161 A 
ATOM      3  N   UNL d   1      33.019  20.686 -22.692  0.00  0.00    -0.268 N 
ATOM      4  C   UNL d   1      33.124  20.331 -21.952  0.00  0.00     0.288 A 
ATOM      5  C   UNL d   1      32.920  21.503 -22.573  0.00  0.00     0.072 A 
ATOM      6  C   UNL d   1      32.905  22.348 -21.324  0.00  0.00     0.201 A 
ATOM      7  O   UNL d   1      33.155  20.909 -20.550  0.00  0.00    -0.302 OA
ATOM      8  C   UNL d   1      32.972  22.322 -20.502  0.00  0.00     0.063 A 
ATOM      9  C   UNL d   1      33.096  21.605 -20.118  0.00  0.00     0.103 A 
ATOM     10  O   UNL d   1      33.241  19.533 -21.813  0.00  0.00    -0.264 OA
ATOM     11  O   UNL d   1      32.780  23.067 -21.703  0.00  0.00    -0.286 OA
ATOM     12  C   UNL d   1      32.913  23.022 -20.063  0.00  0.00     0.017 A 
ATOM     13  C   UNL d   1      33.163  21.589 -19.287  0.00  0.00     0.026 A 
ATOM     14  C   UNL d   1      32.978  23.004 -19.245  0.00  0.00     0.058 A 
ATOM     15  C   UNL d   1      33.104  22.285 -18.856  0.00  0.00     0.013 A 
ATOM     16 CL   UNL d   1      32.920  23.696 -18.812  0.00  0.00    -0.082 Cl
ENDROOT
BRANCH   5  17
ATOM     17  C   UNL d   1      32.795  22.220 -22.956  0.00  0.00     0.017 A 
ATOM     18  C   UNL d   1      33.080  22.342 -23.723  0.00  0.00     0.008 A 
ATOM     19  C   UNL d   1      32.953  23.060 -24.103  0.00  0.00     0.035 A 
ATOM     20 BR   UNL d   1      33.238  23.175 -24.867  0.00  0.00    -0.049 Br
ATOM     21  C   UNL d   1      32.537  23.670 -23.719  0.00  0.00     0.007 A 
ATOM     22  C   UNL d   1      32.253  23.549 -22.951  0.00  0.00     0.001 A 
ATOM     23  C   UNL d   1      32.383  22.821 -22.571  0.00  0.00     0.002 A 
ENDBRANCH   5  17
BRANCH   3  24
ATOM     24  C   UNL d   1      33.014  20.301 -23.419  0.00  0.00     0.129 C 
BRANCH  24  25
ATOM     25  C   UNL d   1      32.757  19.521 -23.467  0.00  0.00     0.253 C 
ATOM     26  O   UNL d   1      32.798  19.116 -24.181  0.00  0.00    -0.281 OA
ENDBRANCH  24  25
ENDBRANCH   3  24
TORSDOF 3
ENDMDL
MODEL 3
REMARK VINA RESULT:       2.3      3.315      5.128
REMARK  3 active torsions:
REMARK  status: ('A' for Active; 'I' for Inactive)
REMARK    1  A    between atoms: C_16  and  N_3 
REMARK    2  A    between atoms: C_10  and  C_5 
REMARK    3  A    between atoms: C_26  and  C_16 
ROOT
ATOM      1  C   UNL d   1      30.791  17.650 -24.615  0.00  0.00     0.083 A 
ATOM      2  C   UNL d   1      30.121  18.118 -24.712  0.00  0.00     0.161 A 
ATOM      3  N   UNL d   1      29.709  16.864 -24.493  0.00  0.00    -0.268 N 
ATOM      4  C   UNL d   1      29.449  17.636 -24.638  0.00  0.00     0.288 A 
ATOM      5  C   UNL d   1      30.541  16.872 -24.478  0.00  0.00     0.072 A 
ATOM      6  C   UNL d   1      31.543  17.983 -24.661  0.00  0.00     0.201 A 
ATOM      7  O   UNL d   1      30.204  18.932 -24.858  0.00  0.00    -0.302 OA
ATOM      8  C   UNL d   1      31.623  18.792 -24.806  0.00  0.00     0.063 A 
ATOM      9  C   UNL d   1      30.955  19.263 -24.904  0.00  0.00     0.103 A 
ATOM     10  O   UNL d   1      28.669  17.877 -24.696  0.00  0.00    -0.264 OA
ATOM     11  O   UNL d   1      32.214  17.516 -24.564  0.00  0.00    -0.286 OA
ATOM     12  C   UNL d   1      32.378  19.129 -24.853  0.00  0.00     0.017 A 
ATOM     13  C   UNL d   1      31.044  20.078 -25.051  0.00  0.00     0.026 A 
ATOM     14  C   UNL d   1      32.463  19.933 -24.997  0.00  0.00     0.058 A 
ATOM     15  C   UNL d   1      31.795  20.409 -25.096  0.00  0.00     0.013 A 
ATOM     16 CL   UNL d   1      33.210  20.265 -25.043  0.00  0.00    -0.082 Cl
ENDROOT
BRANCH   5  17
ATOM     17  C   UNL d   1      31.209  16.402 -24.380  0.00  0.00     0.017 A 
ATOM     18  C   UNL d   1      31.467  16.191 -23.624  0.00  0.00     0.008 A 
ATOM     19  C   UNL d   1      32.135  15.720 -23.530  0.00  0.00     0.035 A 
ATOM     20 BR   UNL d   1      32.387  15.514 -22.774  0.00  0.00    -0.049 Br
ATOM     21  C   UNL d   1      32.556  15.453 -24.196  0.00  0.00     0.007 A 
ATOM     22  C   UNL d   1      32.297  15.663 -24.953  0.00  0.00     0.001 A 
ATOM     23  C   UNL d   1      31.622  16.139 -25.044  0.00  0.00     0.002 A 
ENDBRANCH   5  17
BRANCH   3  24
ATOM     24  C   UNL d   1      29.232  16.202 -24.382  0.00  0.00     0.129 C 
BRANCH  24  25
ATOM     25  C   UNL d   1      28.489  16.287 -24.038  0.00  0.00     0.253 C 
ATOM     26  O   UNL d   1      28.109  15.635 -23.713  0.00  0.00    -0.281 OA
ENDBRANCH  24  25
ENDBRANCH   3  24
TORSDOF 3
ENDMDL
MODEL 4
REMARK VINA RESULT:       2.7      2.258      4.401
REMARK  3 active torsions:
REMARK  status: ('A' for Active; 'I' for Inactive)
REMARK    1  A    between atoms: C_16  and  N_3 
REMARK    2  A    between atoms: C_10  and  C_5 
REMARK    3  A    between atoms: C_26  and  C_16 
ROOT
ATOM      1  C   UNL d   1      32.904  19.083 -22.346  0.00  0.00     0.083 A 
ATOM      2  C   UNL d   1      33.070  18.725 -21.623  0.00  0.00     0.161 A 
ATOM      3  N   UNL d   1      32.939  17.753 -22.534  0.00  0.00    -0.268 N 
ATOM      4  C   UNL d   1      33.093  17.902 -21.734  0.00  0.00     0.288 A 
ATOM      5  C   UNL d   1      32.822  18.484 -22.913  0.00  0.00     0.072 A 
ATOM      6  C   UNL d   1      32.847  19.903 -22.403  0.00  0.00     0.201 A 
ATOM      7  O   UNL d   1      33.181  19.195 -20.947  0.00  0.00    -0.302 OA
ATOM      8  C   UNL d   1      32.958  20.366 -21.730  0.00  0.00     0.063 A 
ATOM      9  C   UNL d   1      33.124  20.013 -21.005  0.00  0.00     0.103 A 
ATOM     10  O   UNL d   1      33.241  17.338 -21.159  0.00  0.00    -0.264 OA
ATOM     11  O   UNL d   1      32.681  20.261 -23.125  0.00  0.00    -0.286 OA
ATOM     12  C   UNL d   1      32.901  21.191 -21.785  0.00  0.00     0.017 A 
ATOM     13  C   UNL d   1      33.235  20.489 -20.330  0.00  0.00     0.026 A 
ATOM     14  C   UNL d   1      33.011  21.658 -21.118  0.00  0.00     0.058 A 
ATOM     15  C   UNL d   1      33.178  21.306 -20.389  0.00  0.00     0.013 A 
ATOM     16 CL   UNL d   1      32.955  22.473 -21.174  0.00  0.00    -0.082 Cl
ENDROOT
BRANCH   5  17
ATOM     17  C   UNL d   1      32.656  18.838 -23.637  0.00  0.00     0.017 A 
ATOM     18  C   UNL d   1      31.910  18.753 -23.985  0.00  0.00     0.008 A 
ATOM     19  C   UNL d   1      31.748  19.108 -24.709  0.00  0.00     0.035 A 
ATOM     20 BR   UNL d   1      31.005  19.019 -25.050  0.00  0.00    -0.049 Br
ATOM     21  C   UNL d   1      32.332  19.556 -25.096  0.00  0.00     0.007 A 
ATOM     22  C   UNL d   1      33.078  19.641 -24.748  0.00  0.00     0.001 A 
ATOM     23  C   UNL d   1      33.238  19.281 -24.016  0.00  0.00     0.002 A 
ENDBRANCH   5  17
BRANCH   3  24
ATOM     24  C   UNL d   1      32.907  17.013 -22.893  0.00  0.00     0.129 C 
BRANCH  24  25
ATOM     25  C   UNL d   1      33.090  16.339 -22.457  0.00  0.00     0.253 C 
ATOM     26  O   UNL d   1      33.045  15.597 -22.808  0.00  0.00    -0.281 OA
ENDBRANCH  24  25
ENDBRANCH   3  24
TORSDOF 3
ENDMDL
MODEL 5
REMARK VINA RESULT:       2.9      2.787      4.313
REMARK  3 active torsions:
REMARK  status: ('A' for Active; 'I' for Inactive)
REMARK    1  A    between atoms: C_16  and  N_3 
REMARK    2  A    between atoms: C_10  and  C_5 
REMARK    3  A    between atoms: C_26  and  C_16 
ROOT
ATOM      1  C   UNL d   1      31.022  17.687 -23.957  0.00  0.00     0.083 A 
ATOM      2  C   UNL d   1      30.566  18.332 -23.725  0.00  0.00     0.161 A 
ATOM      3  N   UNL d   1      31.848  18.646 -23.506  0.00  0.00    -0.268 N 
ATOM      4  C   UNL d   1      31.073  18.928 -23.445  0.00  0.00     0.288 A 
ATOM      5  C   UNL d   1      31.818  17.878 -23.824  0.00  0.00     0.072 A 
ATOM      6  C   UNL d   1      30.665  17.010 -24.260  0.00  0.00     0.201 A 
ATOM      7  O   UNL d   1      29.738  18.298 -23.796  0.00  0.00    -0.302 OA
ATOM      8  C   UNL d   1      29.843  16.979 -24.330  0.00  0.00     0.063 A 
ATOM      9  C   UNL d   1      29.384  17.621 -24.098  0.00  0.00     0.103 A 
ATOM     10  O   UNL d   1      30.848  19.662 -23.160  0.00  0.00    -0.264 OA
ATOM     11  O   UNL d   1      31.121  16.365 -24.492  0.00  0.00    -0.286 OA
ATOM     12  C   UNL d   1      29.482  16.299 -24.634  0.00  0.00     0.017 A 
ATOM     13  C   UNL d   1      28.554  17.582 -24.172  0.00  0.00     0.026 A 
ATOM     14  C   UNL d   1      28.665  16.262 -24.706  0.00  0.00     0.058 A 
ATOM     15  C   UNL d   1      28.199  16.906 -24.474  0.00  0.00     0.013 A 
ATOM     16 CL   UNL d   1      28.308  15.590 -25.007  0.00  0.00    -0.082 Cl
ENDROOT
BRANCH   5  17
ATOM     17  C   UNL d   1      32.277  17.235 -24.055  0.00  0.00     0.017 A 
ATOM     18  C   UNL d   1      32.507  16.663 -23.504  0.00  0.00     0.008 A 
ATOM     19  C   UNL d   1      32.966  16.023 -23.739  0.00  0.00     0.035 A 
ATOM     20 BR   UNL d   1      33.192  15.456 -23.186  0.00  0.00    -0.049 Br
ATOM     21  C   UNL d   1      33.203  15.946 -24.533  0.00  0.00     0.007 A 
ATOM     22  C   UNL d   1      32.974  16.519 -25.084  0.00  0.00     0.001 A 
ATOM     23  C   UNL d   1      32.509  17.164 -24.843  0.00  0.00     0.002 A 
ENDBRANCH   5  17
BRANCH   3  24
ATOM     24  C   UNL d   1      32.531  19.052 -23.292  0.00  0.00     0.129 C 
BRANCH  24  25
ATOM     25  C   UNL d   1      32.517  19.565 -22.649  0.00  0.00     0.253 C 
ATOM     26  O   UNL d   1      33.202  19.959 -22.421  0.00  0.00    -0.281 OA
ENDBRANCH  24  25
ENDBRANCH   3  24
TORSDOF 3
ENDMDL
