MODEL 1
REMARK VINA RESULT:      56.4      0.000      0.000
REMARK  4 active torsions:
REMARK  status: ('A' for Active; 'I' for Inactive)
REMARK    1  A    between atoms: C_10  and  C_3 
REMARK    2  A    between atoms: C_11  and  N_5 
REMARK    3  A    between atoms: O_17  and  C_10 
REMARK    4  A    between atoms: C_21  and  O_17 
ROOT
ATOM      1  C   UNL d   1     -50.355  27.037  33.468  0.00  0.00     0.086 A 
ATOM      2  C   UNL d   1     -49.693  26.551  33.488  0.00  0.00     0.038 A 
ATOM      3  C   UNL d   1     -49.781  25.731  33.485  0.00  0.00     0.165 A 
ATOM      4  C   UNL d   1     -51.113  26.703  33.444  0.00  0.00     0.282 A 
ATOM      5  N   UNL d   1     -51.203  25.887  33.441  0.00  0.00    -0.194 N 
ATOM      6  N   UNL d   1     -50.539  25.398  33.462  0.00  0.00    -0.157 NA
ATOM      7  C   UNL d   1     -50.091  27.820  33.476  0.00  0.00     0.137 A 
ATOM      8  C   UNL d   1     -49.025  27.036  33.509  0.00  0.00     0.039 A 
ATOM      9  S   UNL d   1     -49.271  27.813  33.502  0.00  0.00    -0.066 SA
ATOM     10  O   UNL d   1     -51.785  27.193  33.423  0.00  0.00    -0.265 OA
ATOM     11  N   UNL d   1     -50.558  28.510  33.462  0.00  0.00    -0.141 N 
ENDROOT
BRANCH   5  12
ATOM     12  C   UNL d   1     -51.956  25.556  33.418  0.00  0.00     0.086 A 
ATOM     13  C   UNL d   1     -52.044  24.740  33.333  0.00  0.00     0.019 A 
ATOM     14  C   UNL d   1     -52.805  24.405  33.309  0.00  0.00     0.002 A 
ATOM     15  C   UNL d   1     -53.470  24.889  33.371  0.00  0.00     0.000 A 
ATOM     16  C   UNL d   1     -53.380  25.702  33.455  0.00  0.00     0.002 A 
ATOM     17  C   UNL d   1     -54.223  24.558  33.347  0.00  0.00     0.000 C 
ATOM     18  C   UNL d   1     -52.619  26.036  33.479  0.00  0.00     0.019 A 
ENDBRANCH   5  12
BRANCH   3  19
ATOM     19  C   UNL d   1     -49.109  25.242  33.506  0.00  0.00     0.320 C 
ATOM     20  O   UNL d   1     -48.383  25.556  33.726  0.00  0.00    -0.257 OA
BRANCH  19  21
ATOM     21  O   UNL d   1     -49.170  24.441  33.306  0.00  0.00    -0.270 OA
BRANCH  21  22
ATOM     22  C   UNL d   1     -49.215  23.872  33.897  0.00  0.00     0.126 C 
ATOM     23  C   UNL d   1     -48.594  23.329  34.001  0.00  0.00     0.029 C 
ENDBRANCH  21  22
ENDBRANCH  19  21
ENDBRANCH   3  19
TORSDOF 4
ENDMDL
