MODEL 1
REMARK VINA RESULT:      -7.2      0.000      0.000
REMARK  5 active torsions:
REMARK  status: ('A' for Active; 'I' for Inactive)
REMARK    1  A    between atoms: C_9  and  S_1 
REMARK    2  A    between atoms: C_2  and  C_10 
REMARK       I    between atoms: C_8  and  N_15 
REMARK    3  A    between atoms: C_10  and  C_8 
REMARK    4  A    between atoms: N_15  and  C_22 
REMARK    5  A    between atoms: O_26  and  C_21 
ROOT
ATOM      1  C   UNL d   1     -48.013  13.119  23.205  0.00  0.00     0.063 C 
ENDROOT
BRANCH   1   2
ATOM      2  C   UNL d   1     -48.717  13.117  22.780  0.00  0.00     0.012 A 
ATOM      3  C   UNL d   1     -49.225  13.765  22.820  0.00  0.00     0.023 A 
ATOM      4  C   UNL d   1     -49.931  13.758  22.391  0.00  0.00     0.105 A 
ATOM      5  C   UNL d   1     -49.027  14.412  23.285  0.00  0.00     0.004 A 
ATOM      6  C   UNL d   1     -50.446  14.407  22.428  0.00  0.00     0.049 A 
ATOM      7  O   UNL d   1     -50.136  13.111  21.922  0.00  0.00    -0.273 OA
ATOM      8  C   UNL d   1     -50.242  15.054  22.897  0.00  0.00     0.096 A 
ATOM      9  C   UNL d   1     -49.535  15.057  23.324  0.00  0.00     0.024 A 
ATOM     10  C   UNL d   1     -49.619  12.455  21.883  0.00  0.00     0.300 A 
ATOM     11  C   UNL d   1     -48.912  12.458  22.310  0.00  0.00     0.069 A 
ATOM     12  O   UNL d   1     -49.813  11.808  21.421  0.00  0.00    -0.259 OA
BRANCH   8  13
ATOM     13  O   UNL d   1     -50.745  15.699  22.939  0.00  0.00    -0.328 OA
ATOM     14  C   UNL d   1     -51.064  15.922  23.663  0.00  0.00     0.181 C 
ENDBRANCH   8  13
ENDBRANCH   1   2
BRANCH   1  15
ATOM     15  C   UNL d   1     -47.292  12.993  22.825  0.00  0.00     0.279 C 
ATOM     16  N   UNL d   1     -46.583  13.124  23.218  0.00  0.00    -0.208 NA
ATOM     17  O   UNL d   1     -47.288  12.732  22.046  0.00  0.00    -0.265 OA
BRANCH  16  18
ATOM     18  C   UNL d   1     -45.868  12.996  22.833  0.00  0.00     0.085 A 
ATOM     19  C   UNL d   1     -45.462  12.288  22.963  0.00  0.00     0.020 A 
ATOM     20  C   UNL d   1     -44.742  12.163  22.573  0.00  0.00     0.015 A 
ATOM     21  C   UNL d   1     -44.435  12.730  22.066  0.00  0.00     0.107 A 
ATOM     22  C   UNL d   1     -44.842  13.434  21.940  0.00  0.00     0.015 A 
ATOM     23  C   UNL d   1     -45.560  13.568  22.324  0.00  0.00     0.020 A 
BRANCH  21  24
ATOM     24  S   UNL d   1     -43.719  12.599  21.682  0.00  0.00     0.302 S 
ATOM     25  O   UNL d   1     -43.020  12.289  21.395  0.00  0.00    -0.197 OA
ATOM     26  O   UNL d   1     -43.863  11.917  22.101  0.00  0.00    -0.197 OA
ATOM     27  N   UNL d   1     -43.405  13.188  21.201  0.00  0.00    -0.043 N 
ENDBRANCH  21  24
ENDBRANCH  16  18
ENDBRANCH   1  15
TORSDOF 5
ENDMDL
MODEL 2
REMARK VINA RESULT:      -6.6      2.132      5.603
REMARK  5 active torsions:
REMARK  status: ('A' for Active; 'I' for Inactive)
REMARK    1  A    between atoms: C_9  and  S_1 
REMARK    2  A    between atoms: C_2  and  C_10 
REMARK       I    between atoms: C_8  and  N_15 
REMARK    3  A    between atoms: C_10  and  C_8 
REMARK    4  A    between atoms: N_15  and  C_22 
REMARK    5  A    between atoms: O_26  and  C_21 
ROOT
ATOM      1  C   UNL d   1     -46.042  13.865  22.388  0.00  0.00     0.063 C 
ENDROOT
BRANCH   1   2
ATOM      2  C   UNL d   1     -45.690  13.146  22.574  0.00  0.00     0.012 A 
ATOM      3  C   UNL d   1     -44.934  12.972  22.291  0.00  0.00     0.023 A 
ATOM      4  C   UNL d   1     -44.585  12.248  22.481  0.00  0.00     0.105 A 
ATOM      5  C   UNL d   1     -44.536  13.517  21.826  0.00  0.00     0.004 A 
ATOM      6  C   UNL d   1     -43.826  12.067  22.200  0.00  0.00     0.049 A 
ATOM      7  O   UNL d   1     -44.980  11.695  22.948  0.00  0.00    -0.273 OA
ATOM      8  C   UNL d   1     -43.430  12.619  21.732  0.00  0.00     0.096 A 
ATOM      9  C   UNL d   1     -43.784  13.342  21.546  0.00  0.00     0.024 A 
ATOM     10  C   UNL d   1     -45.746  11.874  23.233  0.00  0.00     0.300 A 
ATOM     11  C   UNL d   1     -46.099  12.597  23.047  0.00  0.00     0.069 A 
ATOM     12  O   UNL d   1     -46.147  11.333  23.698  0.00  0.00    -0.259 OA
BRANCH   8  13
ATOM     13  O   UNL d   1     -42.680  12.448  21.451  0.00  0.00    -0.328 OA
ATOM     14  C   UNL d   1     -42.204  13.055  21.164  0.00  0.00     0.181 C 
ENDBRANCH   8  13
ENDBRANCH   1   2
BRANCH   1  15
ATOM     15  C   UNL d   1     -46.799  14.045  22.661  0.00  0.00     0.279 C 
ATOM     16  N   UNL d   1     -47.404  14.220  22.133  0.00  0.00    -0.208 NA
ATOM     17  O   UNL d   1     -46.946  14.049  23.469  0.00  0.00    -0.265 OA
BRANCH  16  18
ATOM     18  C   UNL d   1     -48.156  14.398  22.412  0.00  0.00     0.085 A 
ATOM     19  C   UNL d   1     -48.316  15.164  22.679  0.00  0.00     0.020 A 
ATOM     20  C   UNL d   1     -49.075  15.340  22.959  0.00  0.00     0.015 A 
ATOM     21  C   UNL d   1     -49.661  14.766  22.973  0.00  0.00     0.107 A 
ATOM     22  C   UNL d   1     -49.498  14.004  22.706  0.00  0.00     0.015 A 
ATOM     23  C   UNL d   1     -48.744  13.820  22.425  0.00  0.00     0.020 A 
BRANCH  21  24
ATOM     24  S   UNL d   1     -50.413  14.947  23.253  0.00  0.00     0.302 S 
ATOM     25  O   UNL d   1     -51.062  15.282  23.618  0.00  0.00    -0.197 OA
ATOM     26  O   UNL d   1     -49.929  15.525  23.556  0.00  0.00    -0.197 OA
ATOM     27  N   UNL d   1     -51.048  14.465  23.046  0.00  0.00    -0.043 N 
ENDBRANCH  21  24
ENDBRANCH  16  18
ENDBRANCH   1  15
TORSDOF 5
ENDMDL
MODEL 3
REMARK VINA RESULT:      -6.5      1.638      2.186
REMARK  5 active torsions:
REMARK  status: ('A' for Active; 'I' for Inactive)
REMARK    1  A    between atoms: C_9  and  S_1 
REMARK    2  A    between atoms: C_2  and  C_10 
REMARK       I    between atoms: C_8  and  N_15 
REMARK    3  A    between atoms: C_10  and  C_8 
REMARK    4  A    between atoms: N_15  and  C_22 
REMARK    5  A    between atoms: O_26  and  C_21 
ROOT
ATOM      1  C   UNL d   1     -47.744  12.894  23.412  0.00  0.00     0.063 C 
ENDROOT
BRANCH   1   2
ATOM      2  C   UNL d   1     -47.888  13.613  23.042  0.00  0.00     0.012 A 
ATOM      3  C   UNL d   1     -48.650  13.798  22.784  0.00  0.00     0.023 A 
ATOM      4  C   UNL d   1     -48.790  14.522  22.412  0.00  0.00     0.105 A 
ATOM      5  C   UNL d   1     -49.262  13.263  22.897  0.00  0.00     0.004 A 
ATOM      6  C   UNL d   1     -49.553  14.714  22.150  0.00  0.00     0.049 A 
ATOM      7  O   UNL d   1     -48.180  15.065  22.295  0.00  0.00    -0.273 OA
ATOM      8  C   UNL d   1     -50.164  14.172  22.267  0.00  0.00     0.096 A 
ATOM      9  C   UNL d   1     -50.019  13.449  22.639  0.00  0.00     0.024 A 
ATOM     10  C   UNL d   1     -47.409  14.875  22.558  0.00  0.00     0.300 A 
ATOM     11  C   UNL d   1     -47.264  14.152  22.930  0.00  0.00     0.069 A 
ATOM     12  O   UNL d   1     -46.796  15.405  22.447  0.00  0.00    -0.259 OA
BRANCH   8  13
ATOM     13  O   UNL d   1     -50.921  14.354  22.011  0.00  0.00    -0.328 OA
ATOM     14  C   UNL d   1     -51.061  14.487  21.211  0.00  0.00     0.181 C 
ENDBRANCH   8  13
ENDBRANCH   1   2
BRANCH   1  15
ATOM     15  C   UNL d   1     -46.983  12.575  23.430  0.00  0.00     0.279 C 
ATOM     16  N   UNL d   1     -46.847  11.803  23.182  0.00  0.00    -0.208 NA
ATOM     17  O   UNL d   1     -46.359  13.038  23.697  0.00  0.00    -0.265 OA
BRANCH  16  18
ATOM     18  C   UNL d   1     -46.086  11.493  23.202  0.00  0.00     0.085 A 
ATOM     19  C   UNL d   1     -45.931  10.837  23.680  0.00  0.00     0.020 A 
ATOM     20  C   UNL d   1     -45.163  10.527  23.698  0.00  0.00     0.015 A 
ATOM     21  C   UNL d   1     -44.565  10.863  23.249  0.00  0.00     0.107 A 
ATOM     22  C   UNL d   1     -44.723  11.516  22.774  0.00  0.00     0.015 A 
ATOM     23  C   UNL d   1     -45.485  11.832  22.750  0.00  0.00     0.020 A 
BRANCH  21  24
ATOM     24  S   UNL d   1     -43.804  10.550  23.271  0.00  0.00     0.302 S 
ATOM     25  O   UNL d   1     -42.996  10.430  23.243  0.00  0.00    -0.197 OA
ATOM     26  O   UNL d   1     -43.706  11.333  23.075  0.00  0.00    -0.197 OA
ATOM     27  N   UNL d   1     -43.699   9.755  23.455  0.00  0.00    -0.043 N 
ENDBRANCH  21  24
ENDBRANCH  16  18
ENDBRANCH   1  15
TORSDOF 5
ENDMDL
MODEL 4
REMARK VINA RESULT:      -6.4      2.177      5.616
REMARK  5 active torsions:
REMARK  status: ('A' for Active; 'I' for Inactive)
REMARK    1  A    between atoms: C_9  and  S_1 
REMARK    2  A    between atoms: C_2  and  C_10 
REMARK       I    between atoms: C_8  and  N_15 
REMARK    3  A    between atoms: C_10  and  C_8 
REMARK    4  A    between atoms: N_15  and  C_22 
REMARK    5  A    between atoms: O_26  and  C_21 
ROOT
ATOM      1  C   UNL d   1     -45.954  13.080  22.624  0.00  0.00     0.063 C 
ENDROOT
BRANCH   1   2
ATOM      2  C   UNL d   1     -45.364  12.511  22.682  0.00  0.00     0.012 A 
ATOM      3  C   UNL d   1     -44.659  12.604  22.264  0.00  0.00     0.023 A 
ATOM      4  C   UNL d   1     -44.068  12.030  22.326  0.00  0.00     0.105 A 
ATOM      5  C   UNL d   1     -44.549  13.265  21.789  0.00  0.00     0.004 A 
ATOM      6  C   UNL d   1     -43.358  12.118  21.907  0.00  0.00     0.049 A 
ATOM      7  O   UNL d   1     -44.173  11.364  22.801  0.00  0.00    -0.273 OA
ATOM      8  C   UNL d   1     -43.253  12.784  21.432  0.00  0.00     0.096 A 
ATOM      9  C   UNL d   1     -43.847  13.356  21.373  0.00  0.00     0.024 A 
ATOM     10  C   UNL d   1     -44.888  11.272  23.224  0.00  0.00     0.300 A 
ATOM     11  C   UNL d   1     -45.481  11.844  23.165  0.00  0.00     0.069 A 
ATOM     12  O   UNL d   1     -45.002  10.615  23.698  0.00  0.00    -0.259 OA
BRANCH   8  13
ATOM     13  O   UNL d   1     -42.554  12.879  21.016  0.00  0.00    -0.328 OA
ATOM     14  C   UNL d   1     -42.111  13.565  21.111  0.00  0.00     0.181 C 
ENDBRANCH   8  13
ENDBRANCH   1   2
BRANCH   1  15
ATOM     15  C   UNL d   1     -46.720  12.919  22.883  0.00  0.00     0.279 C 
ATOM     16  N   UNL d   1     -47.332  12.815  22.344  0.00  0.00    -0.208 NA
ATOM     17  O   UNL d   1     -46.869  12.862  23.689  0.00  0.00    -0.265 OA
BRANCH  16  18
ATOM     18  C   UNL d   1     -48.093  12.654  22.610  0.00  0.00     0.085 A 
ATOM     19  C   UNL d   1     -48.495  13.226  23.050  0.00  0.00     0.020 A 
ATOM     20  C   UNL d   1     -49.262  13.060  23.316  0.00  0.00     0.015 A 
ATOM     21  C   UNL d   1     -49.618  12.341  23.146  0.00  0.00     0.107 A 
ATOM     22  C   UNL d   1     -49.215  11.774  22.707  0.00  0.00     0.015 A 
ATOM     23  C   UNL d   1     -48.450  11.930  22.438  0.00  0.00     0.020 A 
BRANCH  21  24
ATOM     24  S   UNL d   1     -50.381  12.183  23.414  0.00  0.00     0.302 S 
ATOM     25  O   UNL d   1     -51.064  11.835  23.694  0.00  0.00    -0.197 OA
ATOM     26  O   UNL d   1     -49.994  11.467  23.436  0.00  0.00    -0.197 OA
ATOM     27  N   UNL d   1     -50.928  12.796  23.461  0.00  0.00    -0.043 N 
ENDBRANCH  21  24
ENDBRANCH  16  18
ENDBRANCH   1  15
TORSDOF 5
ENDMDL
MODEL 5
REMARK VINA RESULT:      -6.4      1.220      1.847
REMARK  5 active torsions:
REMARK  status: ('A' for Active; 'I' for Inactive)
REMARK    1  A    between atoms: C_9  and  S_1 
REMARK    2  A    between atoms: C_2  and  C_10 
REMARK       I    between atoms: C_8  and  N_15 
REMARK    3  A    between atoms: C_10  and  C_8 
REMARK    4  A    between atoms: N_15  and  C_22 
REMARK    5  A    between atoms: O_26  and  C_21 
ROOT
ATOM      1  C   UNL d   1     -47.251  13.241  23.541  0.00  0.00     0.063 C 
ENDROOT
BRANCH   1   2
ATOM      2  C   UNL d   1     -47.869  13.656  23.193  0.00  0.00     0.012 A 
ATOM      3  C   UNL d   1     -48.635  13.350  23.214  0.00  0.00     0.023 A 
ATOM      4  C   UNL d   1     -49.252  13.771  22.863  0.00  0.00     0.105 A 
ATOM      5  C   UNL d   1     -48.778  12.631  23.584  0.00  0.00     0.004 A 
ATOM      6  C   UNL d   1     -50.024  13.469  22.881  0.00  0.00     0.049 A 
ATOM      7  O   UNL d   1     -49.115  14.494  22.491  0.00  0.00    -0.273 OA
ATOM      8  C   UNL d   1     -50.162  12.746  23.254  0.00  0.00     0.096 A 
ATOM      9  C   UNL d   1     -49.541  12.328  23.604  0.00  0.00     0.024 A 
ATOM     10  C   UNL d   1     -48.338  14.802  22.470  0.00  0.00     0.300 A 
ATOM     11  C   UNL d   1     -47.717  14.384  22.820  0.00  0.00     0.069 A 
ATOM     12  O   UNL d   1     -48.191  15.518  22.103  0.00  0.00    -0.259 OA
BRANCH   8  13
ATOM     13  O   UNL d   1     -50.921  12.440  23.277  0.00  0.00    -0.328 OA
ATOM     14  C   UNL d   1     -51.063  11.723  23.655  0.00  0.00     0.181 C 
ENDBRANCH   8  13
ENDBRANCH   1   2
BRANCH   1  15
ATOM     15  C   UNL d   1     -46.495  13.257  23.210  0.00  0.00     0.279 C 
ATOM     16  N   UNL d   1     -46.197  12.600  22.815  0.00  0.00    -0.208 NA
ATOM     17  O   UNL d   1     -46.040  13.937  23.280  0.00  0.00    -0.265 OA
BRANCH  16  18
ATOM     18  C   UNL d   1     -45.443  12.623  22.488  0.00  0.00     0.085 A 
ATOM     19  C   UNL d   1     -44.855  12.133  22.797  0.00  0.00     0.020 A 
ATOM     20  C   UNL d   1     -44.096  12.159  22.465  0.00  0.00     0.015 A 
ATOM     21  C   UNL d   1     -43.930  12.662  21.840  0.00  0.00     0.107 A 
ATOM     22  C   UNL d   1     -44.518  13.150  21.535  0.00  0.00     0.015 A 
ATOM     23  C   UNL d   1     -45.277  13.131  21.859  0.00  0.00     0.020 A 
BRANCH  21  24
ATOM     24  S   UNL d   1     -43.174  12.683  21.514  0.00  0.00     0.302 S 
ATOM     25  O   UNL d   1     -42.414  12.516  21.268  0.00  0.00    -0.197 OA
ATOM     26  O   UNL d   1     -43.236  11.950  21.859  0.00  0.00    -0.197 OA
ATOM     27  N   UNL d   1     -42.925  13.359  21.116  0.00  0.00    -0.043 N 
ENDBRANCH  21  24
ENDBRANCH  16  18
ENDBRANCH   1  15
TORSDOF 5
ENDMDL
MODEL 6
REMARK VINA RESULT:      -6.0      8.373      9.162
REMARK  5 active torsions:
REMARK  status: ('A' for Active; 'I' for Inactive)
REMARK    1  A    between atoms: C_9  and  S_1 
REMARK    2  A    between atoms: C_2  and  C_10 
REMARK       I    between atoms: C_8  and  N_15 
REMARK    3  A    between atoms: C_10  and  C_8 
REMARK    4  A    between atoms: N_15  and  C_22 
REMARK    5  A    between atoms: O_26  and  C_21 
ROOT
ATOM      1  C   UNL d   1     -40.203  15.848  19.257  0.00  0.00     0.063 C 
ENDROOT
BRANCH   1   2
ATOM      2  C   UNL d   1     -39.888  15.731  18.507  0.00  0.00     0.012 A 
ATOM      3  C   UNL d   1     -40.389  15.687  17.853  0.00  0.00     0.023 A 
ATOM      4  C   UNL d   1     -40.069  15.569  17.100  0.00  0.00     0.105 A 
ATOM      5  C   UNL d   1     -41.201  15.761  17.952  0.00  0.00     0.004 A 
ATOM      6  C   UNL d   1     -40.567  15.524  16.439  0.00  0.00     0.049 A 
ATOM      7  O   UNL d   1     -39.254  15.494  16.993  0.00  0.00    -0.273 OA
ATOM      8  C   UNL d   1     -41.381  15.599  16.546  0.00  0.00     0.096 A 
ATOM      9  C   UNL d   1     -41.697  15.717  17.300  0.00  0.00     0.024 A 
ATOM     10  C   UNL d   1     -38.749  15.539  17.658  0.00  0.00     0.300 A 
ATOM     11  C   UNL d   1     -39.065  15.657  18.412  0.00  0.00     0.069 A 
ATOM     12  O   UNL d   1     -37.940  15.466  17.563  0.00  0.00    -0.259 OA
BRANCH   8  13
ATOM     13  O   UNL d   1     -41.880  15.555  15.898  0.00  0.00    -0.328 OA
ATOM     14  C   UNL d   1     -42.618  15.920  15.924  0.00  0.00     0.181 C 
ENDBRANCH   8  13
ENDBRANCH   1   2
BRANCH   1  15
ATOM     15  C   UNL d   1     -39.802  15.581  19.927  0.00  0.00     0.279 C 
ATOM     16  N   UNL d   1     -40.143  15.022  20.423  0.00  0.00    -0.208 NA
ATOM     17  O   UNL d   1     -39.056  15.880  20.096  0.00  0.00    -0.265 OA
BRANCH  16  18
ATOM     18  C   UNL d   1     -39.738  14.760  21.089  0.00  0.00     0.085 A 
ATOM     19  C   UNL d   1     -39.551  13.958  21.157  0.00  0.00     0.020 A 
ATOM     20  C   UNL d   1     -39.143  13.698  21.830  0.00  0.00     0.015 A 
ATOM     21  C   UNL d   1     -38.927  14.226  22.419  0.00  0.00     0.107 A 
ATOM     22  C   UNL d   1     -39.115  15.024  22.347  0.00  0.00     0.015 A 
ATOM     23  C   UNL d   1     -39.521  15.292  21.681  0.00  0.00     0.020 A 
BRANCH  21  24
ATOM     24  S   UNL d   1     -38.521  13.961  23.085  0.00  0.00     0.302 S 
ATOM     25  O   UNL d   1     -38.207  13.522  23.697  0.00  0.00    -0.197 OA
ATOM     26  O   UNL d   1     -38.919  13.310  22.805  0.00  0.00    -0.197 OA
ATOM     27  N   UNL d   1     -38.054  14.490  23.509  0.00  0.00    -0.043 N 
ENDBRANCH  21  24
ENDBRANCH  16  18
ENDBRANCH   1  15
TORSDOF 5
ENDMDL
MODEL 7
REMARK VINA RESULT:      -5.8      8.804     10.089
REMARK  5 active torsions:
REMARK  status: ('A' for Active; 'I' for Inactive)
REMARK    1  A    between atoms: C_9  and  S_1 
REMARK    2  A    between atoms: C_2  and  C_10 
REMARK       I    between atoms: C_8  and  N_15 
REMARK    3  A    between atoms: C_10  and  C_8 
REMARK    4  A    between atoms: N_15  and  C_22 
REMARK    5  A    between atoms: O_26  and  C_21 
ROOT
ATOM      1  C   UNL d   1     -38.812  15.516  18.949  0.00  0.00     0.063 C 
ENDROOT
BRANCH   1   2
ATOM      2  C   UNL d   1     -39.252  15.196  18.333  0.00  0.00     0.012 A 
ATOM      3  C   UNL d   1     -38.959  15.220  17.562  0.00  0.00     0.023 A 
ATOM      4  C   UNL d   1     -39.405  14.896  16.946  0.00  0.00     0.105 A 
ATOM      5  C   UNL d   1     -38.229  15.563  17.411  0.00  0.00     0.004 A 
ATOM      6  C   UNL d   1     -39.116  14.917  16.169  0.00  0.00     0.049 A 
ATOM      7  O   UNL d   1     -40.139  14.550  17.090  0.00  0.00    -0.273 OA
ATOM      8  C   UNL d   1     -38.382  15.264  16.024  0.00  0.00     0.096 A 
ATOM      9  C   UNL d   1     -37.940  15.586  16.643  0.00  0.00     0.024 A 
ATOM     10  C   UNL d   1     -40.433  14.527  17.872  0.00  0.00     0.300 A 
ATOM     11  C   UNL d   1     -39.991  14.849  18.492  0.00  0.00     0.069 A 
ATOM     12  O   UNL d   1     -41.161  14.185  18.027  0.00  0.00    -0.259 OA
BRANCH   8  13
ATOM     13  O   UNL d   1     -38.089  15.289  15.259  0.00  0.00    -0.328 OA
ATOM     14  C   UNL d   1     -38.280  15.922  14.769  0.00  0.00     0.181 C 
ENDBRANCH   8  13
ENDBRANCH   1   2
BRANCH   1  15
ATOM     15  C   UNL d   1     -38.841  15.183  19.703  0.00  0.00     0.279 C 
ATOM     16  N   UNL d   1     -38.176  14.825  20.028  0.00  0.00    -0.208 NA
ATOM     17  O   UNL d   1     -39.542  15.212  20.129  0.00  0.00    -0.265 OA
BRANCH  16  18
ATOM     18  C   UNL d   1     -38.212  14.495  20.780  0.00  0.00     0.085 A 
ATOM     19  C   UNL d   1     -38.109  14.982  21.439  0.00  0.00     0.020 A 
ATOM     20  C   UNL d   1     -38.146  14.646  22.195  0.00  0.00     0.015 A 
ATOM     21  C   UNL d   1     -38.282  13.843  22.291  0.00  0.00     0.107 A 
ATOM     22  C   UNL d   1     -38.384  13.361  21.632  0.00  0.00     0.015 A 
ATOM     23  C   UNL d   1     -38.349  13.687  20.875  0.00  0.00     0.020 A 
BRANCH  21  24
ATOM     24  S   UNL d   1     -38.317  13.515  23.045  0.00  0.00     0.302 S 
ATOM     25  O   UNL d   1     -38.329  13.015  23.691  0.00  0.00    -0.197 OA
ATOM     26  O   UNL d   1     -38.221  12.883  22.543  0.00  0.00    -0.197 OA
ATOM     27  N   UNL d   1     -38.414  14.010  23.696  0.00  0.00    -0.043 N 
ENDBRANCH  21  24
ENDBRANCH  16  18
ENDBRANCH   1  15
TORSDOF 5
ENDMDL
MODEL 8
REMARK VINA RESULT:      -4.4      2.794      5.035
REMARK  5 active torsions:
REMARK  status: ('A' for Active; 'I' for Inactive)
REMARK    1  A    between atoms: C_9  and  S_1 
REMARK    2  A    between atoms: C_2  and  C_10 
REMARK       I    between atoms: C_8  and  N_15 
REMARK    3  A    between atoms: C_10  and  C_8 
REMARK    4  A    between atoms: N_15  and  C_22 
REMARK    5  A    between atoms: O_26  and  C_21 
ROOT
ATOM      1  C   UNL d   1     -43.654  13.187  21.233  0.00  0.00     0.063 C 
ENDROOT
BRANCH   1   2
ATOM      2  C   UNL d   1     -43.919  12.670  21.814  0.00  0.00     0.012 A 
ATOM      3  C   UNL d   1     -44.671  12.768  22.140  0.00  0.00     0.023 A 
ATOM      4  C   UNL d   1     -44.934  12.247  22.724  0.00  0.00     0.105 A 
ATOM      5  C   UNL d   1     -45.153  13.381  21.882  0.00  0.00     0.004 A 
ATOM      6  C   UNL d   1     -45.689  12.339  23.055  0.00  0.00     0.049 A 
ATOM      7  O   UNL d   1     -44.455  11.629  22.987  0.00  0.00    -0.273 OA
ATOM      8  C   UNL d   1     -46.167  12.957  22.791  0.00  0.00     0.096 A 
ATOM      9  C   UNL d   1     -45.900  13.476  22.207  0.00  0.00     0.024 A 
ATOM     10  C   UNL d   1     -43.694  11.532  22.656  0.00  0.00     0.300 A 
ATOM     11  C   UNL d   1     -43.427  12.051  22.072  0.00  0.00     0.069 A 
ATOM     12  O   UNL d   1     -43.211  10.922  22.910  0.00  0.00    -0.259 OA
BRANCH   8  13
ATOM     13  O   UNL d   1     -46.914  13.056  23.113  0.00  0.00    -0.328 OA
ATOM     14  C   UNL d   1     -47.325  13.758  22.985  0.00  0.00     0.181 C 
ENDBRANCH   8  13
ENDBRANCH   1   2
BRANCH   1  15
ATOM     15  C   UNL d   1     -42.846  13.280  21.090  0.00  0.00     0.279 C 
ATOM     16  N   UNL d   1     -42.484  14.010  21.197  0.00  0.00    -0.208 NA
ATOM     17  O   UNL d   1     -42.404  12.634  20.840  0.00  0.00    -0.265 OA
BRANCH  16  18
ATOM     18  C   UNL d   1     -41.679  14.095  21.053  0.00  0.00     0.085 A 
ATOM     19  C   UNL d   1     -41.425  14.300  20.294  0.00  0.00     0.020 A 
ATOM     20  C   UNL d   1     -40.613  14.385  20.154  0.00  0.00     0.015 A 
ATOM     21  C   UNL d   1     -40.068  14.269  20.756  0.00  0.00     0.107 A 
ATOM     22  C   UNL d   1     -40.326  14.065  21.511  0.00  0.00     0.015 A 
ATOM     23  C   UNL d   1     -41.133  13.978  21.660  0.00  0.00     0.020 A 
BRANCH  21  24
ATOM     24  S   UNL d   1     -39.263  14.355  20.609  0.00  0.00     0.302 S 
ATOM     25  O   UNL d   1     -38.500  14.633  20.521  0.00  0.00    -0.197 OA
ATOM     26  O   UNL d   1     -39.515  15.090  20.848  0.00  0.00    -0.197 OA
ATOM     27  N   UNL d   1     -38.827  13.705  20.354  0.00  0.00    -0.043 N 
ENDBRANCH  21  24
ENDBRANCH  16  18
ENDBRANCH   1  15
TORSDOF 5
ENDMDL
