MODEL 1
REMARK VINA RESULT:      -5.2      0.000      0.000
REMARK  4 active torsions:
REMARK  status: ('A' for Active; 'I' for Inactive)
REMARK    1  A    between atoms: C_5  and  C_3 
REMARK    2  A    between atoms: S_7  and  C_4 
REMARK    3  A    between atoms: C_10  and  S_7 
REMARK    4  A    between atoms: C_11  and  C_10 
ROOT
ATOM      1  N   UNL d   1      57.565  -1.205  30.701  0.00  0.00    -0.146 NA
ATOM      2  N   UNL d   1      57.086  -0.911  31.305  0.00  0.00    -0.141 NA
ATOM      3  C   UNL d   1      58.050  -0.692  30.267  0.00  0.00     0.121 A 
ATOM      4  C   UNL d   1      57.085  -0.111  31.483  0.00  0.00     0.132 A 
ATOM      5  C   UNL d   1      58.050   0.116  30.445  0.00  0.00     0.025 A 
ATOM      6  C   UNL d   1      57.572   0.407  31.048  0.00  0.00     0.029 A 
ENDROOT
BRANCH   4   7
ATOM      7  S   UNL d   1      56.606   0.183  32.087  0.00  0.00    -0.066 SA
BRANCH   7   8
ATOM      8  C   UNL d   1      56.390  -0.297  32.717  0.00  0.00     0.037 C 
BRANCH   8   9
ATOM      9  C   UNL d   1      55.967   0.027  33.350  0.00  0.00     0.006 A 
ATOM     10  C   UNL d   1      56.365   0.358  33.970  0.00  0.00     0.001 A 
ATOM     11  C   UNL d   1      55.946   0.682  34.604  0.00  0.00     0.000 A 
ATOM     12  C   UNL d   1      55.128   0.669  34.605  0.00  0.00     0.000 A 
ATOM     13  C   UNL d   1      54.719   0.328  33.966  0.00  0.00     0.000 A 
ATOM     14  C   UNL d   1      55.144   0.010  33.343  0.00  0.00     0.001 A 
ENDBRANCH   8   9
ENDBRANCH   7   8
ENDBRANCH   4   7
BRANCH   3  15
ATOM     15  C   UNL d   1      58.529  -0.987  29.663  0.00  0.00     0.101 A 
ATOM     16  N   UNL d   1      58.951  -0.471  29.195  0.00  0.00    -0.242 NA
ATOM     17  C   UNL d   1      59.426  -0.759  28.595  0.00  0.00     0.099 A 
ATOM     18  C   UNL d   1      59.477  -1.580  28.465  0.00  0.00     0.021 A 
ATOM     19  C   UNL d   1      59.052  -2.093  28.938  0.00  0.00     0.003 A 
ATOM     20  C   UNL d   1      58.570  -1.808  29.545  0.00  0.00     0.021 A 
ENDBRANCH   3  15
TORSDOF 4
ENDMDL
MODEL 2
REMARK VINA RESULT:      -4.9      1.132      5.161
REMARK  4 active torsions:
REMARK  status: ('A' for Active; 'I' for Inactive)
REMARK    1  A    between atoms: C_5  and  C_3 
REMARK    2  A    between atoms: S_7  and  C_4 
REMARK    3  A    between atoms: C_10  and  S_7 
REMARK    4  A    between atoms: C_11  and  C_10 
ROOT
ATOM      1  N   UNL d   1      56.760   0.682  32.248  0.00  0.00    -0.146 NA
ATOM      2  N   UNL d   1      57.209   0.482  31.586  0.00  0.00    -0.141 NA
ATOM      3  C   UNL d   1      56.401   0.087  32.701  0.00  0.00     0.121 A 
ATOM      4  C   UNL d   1      57.307  -0.301  31.369  0.00  0.00     0.132 A 
ATOM      5  C   UNL d   1      56.498  -0.705  32.484  0.00  0.00     0.025 A 
ATOM      6  C   UNL d   1      56.947  -0.901  31.823  0.00  0.00     0.029 A 
ENDROOT
BRANCH   4   7
ATOM      7  S   UNL d   1      57.756  -0.500  30.707  0.00  0.00    -0.066 SA
BRANCH   7   8
ATOM      8  C   UNL d   1      58.139   0.083  30.274  0.00  0.00     0.037 C 
BRANCH   8   9
ATOM      9  C   UNL d   1      58.692  -0.133  29.698  0.00  0.00     0.006 A 
ATOM     10  C   UNL d   1      58.501  -0.696  29.151  0.00  0.00     0.001 A 
ATOM     11  C   UNL d   1      59.051  -0.915  28.574  0.00  0.00     0.000 A 
ATOM     12  C   UNL d   1      59.788  -0.562  28.554  0.00  0.00     0.000 A 
ATOM     13  C   UNL d   1      59.983   0.018  29.118  0.00  0.00     0.000 A 
ATOM     14  C   UNL d   1      59.432   0.227  29.685  0.00  0.00     0.001 A 
ENDBRANCH   8   9
ENDBRANCH   7   8
ENDBRANCH   4   7
BRANCH   3  15
ATOM     15  C   UNL d   1      55.951   0.286  33.364  0.00  0.00     0.101 A 
ATOM     16  N   UNL d   1      56.321   0.425  34.075  0.00  0.00    -0.242 NA
ATOM     17  C   UNL d   1      55.879   0.623  34.735  0.00  0.00     0.099 A 
ATOM     18  C   UNL d   1      55.051   0.681  34.676  0.00  0.00     0.021 A 
ATOM     19  C   UNL d   1      54.684   0.541  33.958  0.00  0.00     0.003 A 
ATOM     20  C   UNL d   1      55.126   0.341  33.290  0.00  0.00     0.021 A 
ENDBRANCH   3  15
TORSDOF 4
ENDMDL
MODEL 3
REMARK VINA RESULT:      -2.5      0.925      1.163
REMARK  4 active torsions:
REMARK  status: ('A' for Active; 'I' for Inactive)
REMARK    1  A    between atoms: C_5  and  C_3 
REMARK    2  A    between atoms: S_7  and  C_4 
REMARK    3  A    between atoms: C_10  and  S_7 
REMARK    4  A    between atoms: C_11  and  C_10 
ROOT
ATOM      1  N   UNL d   1      58.805  -0.227  31.185  0.00  0.00    -0.146 NA
ATOM      2  N   UNL d   1      58.308  -0.040  31.816  0.00  0.00    -0.141 NA
ATOM      3  C   UNL d   1      58.623   0.037  30.420  0.00  0.00     0.121 A 
ATOM      4  C   UNL d   1      57.633   0.408  31.697  0.00  0.00     0.132 A 
ATOM      5  C   UNL d   1      57.941   0.488  30.296  0.00  0.00     0.025 A 
ATOM      6  C   UNL d   1      57.448   0.674  30.928  0.00  0.00     0.029 A 
ENDROOT
BRANCH   4   7
ATOM      7  S   UNL d   1      57.136   0.596  32.328  0.00  0.00    -0.066 SA
BRANCH   7   8
ATOM      8  C   UNL d   1      56.989   0.045  32.918  0.00  0.00     0.037 C 
BRANCH   8   9
ATOM      9  C   UNL d   1      56.237   0.005  33.261  0.00  0.00     0.006 A 
ATOM     10  C   UNL d   1      55.753  -0.619  33.095  0.00  0.00     0.001 A 
ATOM     11  C   UNL d   1      55.001  -0.662  33.435  0.00  0.00     0.000 A 
ATOM     12  C   UNL d   1      54.745  -0.073  33.940  0.00  0.00     0.000 A 
ATOM     13  C   UNL d   1      55.245   0.570  34.111  0.00  0.00     0.000 A 
ATOM     14  C   UNL d   1      55.987   0.603  33.769  0.00  0.00     0.001 A 
ENDBRANCH   8   9
ENDBRANCH   7   8
ENDBRANCH   4   7
BRANCH   3  15
ATOM     15  C   UNL d   1      59.119  -0.151  29.789  0.00  0.00     0.101 A 
ATOM     16  N   UNL d   1      59.916   0.008  29.841  0.00  0.00    -0.242 NA
ATOM     17  C   UNL d   1      60.412  -0.176  29.217  0.00  0.00     0.099 A 
ATOM     18  C   UNL d   1      60.100  -0.528  28.530  0.00  0.00     0.021 A 
ATOM     19  C   UNL d   1      59.299  -0.686  28.482  0.00  0.00     0.003 A 
ATOM     20  C   UNL d   1      58.794  -0.501  29.110  0.00  0.00     0.021 A 
ENDBRANCH   3  15
TORSDOF 4
ENDMDL
