MODEL 1
REMARK VINA RESULT:      -7.5      0.000      0.000
REMARK  6 active torsions:
REMARK  status: ('A' for Active; 'I' for Inactive)
REMARK       I    between atoms: C_5  and  N_1 
REMARK    1  A    between atoms: C_10  and  C_5 
REMARK    2  A    between atoms: C_7  and  C_13 
REMARK       I    between atoms: N_8  and  C_7 
REMARK    3  A    between atoms: C_12  and  N_8 
REMARK    4  A    between atoms: C_13  and  C_10 
REMARK    5  A    between atoms: O_20  and  C_14 
REMARK    6  A    between atoms: C_22  and  O_20 
ROOT
ATOM      1  C   UNL d   1     -48.167  11.311  23.462  0.00  0.00     0.279 C 
ATOM      2  N   UNL d   1     -48.953  11.134  23.334  0.00  0.00    -0.208 NA
ATOM      3  O   UNL d   1     -47.632  10.712  23.698  0.00  0.00    -0.265 OA
ENDROOT
BRANCH   1   4
ATOM      4  C   UNL d   1     -47.904  12.071  23.361  0.00  0.00     0.068 C 
BRANCH   4   5
ATOM      5  C   UNL d   1     -47.102  12.244  23.414  0.00  0.00     0.068 C 
BRANCH   5   6
ATOM      6  C   UNL d   1     -46.824  12.995  23.215  0.00  0.00     0.281 C 
ATOM      7  N   UNL d   1     -46.110  13.072  22.793  0.00  0.00    -0.195 N 
ATOM      8  N   UNL d   1     -45.572  12.529  22.505  0.00  0.00    -0.163 NA
ATOM      9  C   UNL d   1     -45.838  13.825  22.598  0.00  0.00     0.088 A 
ATOM     10  C   UNL d   1     -44.952  12.951  22.121  0.00  0.00     0.103 A 
ATOM     11  C   UNL d   1     -44.285  12.637  21.746  0.00  0.00     0.022 C 
ATOM     12  C   UNL d   1     -45.130  13.740  22.187  0.00  0.00     0.040 A 
ATOM     13  C   UNL d   1     -46.205  14.550  22.778  0.00  0.00     0.021 C 
ATOM     14  O   UNL d   1     -47.256  13.667  23.435  0.00  0.00    -0.265 OA
ENDBRANCH   5   6
ENDBRANCH   4   5
ENDBRANCH   1   4
BRANCH   2  15
ATOM     15  C   UNL d   1     -49.480  11.727  23.102  0.00  0.00     0.085 A 
ATOM     16  C   UNL d   1     -49.556  11.927  22.297  0.00  0.00     0.021 A 
ATOM     17  C   UNL d   1     -50.083  12.520  22.064  0.00  0.00     0.026 A 
ATOM     18  C   UNL d   1     -50.524  12.907  22.625  0.00  0.00     0.100 A 
ATOM     19  C   UNL d   1     -50.452  12.712  23.430  0.00  0.00     0.026 A 
ATOM     20  C   UNL d   1     -49.931  12.124  23.669  0.00  0.00     0.021 A 
BRANCH  18  21
ATOM     21  O   UNL d   1     -51.048  13.500  22.375  0.00  0.00    -0.305 OA
BRANCH  21  22
ATOM     22  C   UNL d   1     -50.917  14.281  22.575  0.00  0.00     0.123 C 
ATOM     23  C   UNL d   1     -51.064  14.877  22.031  0.00  0.00     0.029 C 
ENDBRANCH  21  22
ENDBRANCH  18  21
ENDBRANCH   2  15
TORSDOF 6
ENDMDL
MODEL 2
REMARK VINA RESULT:      -6.8      1.376      2.373
REMARK  6 active torsions:
REMARK  status: ('A' for Active; 'I' for Inactive)
REMARK       I    between atoms: C_5  and  N_1 
REMARK    1  A    between atoms: C_10  and  C_5 
REMARK    2  A    between atoms: C_7  and  C_13 
REMARK       I    between atoms: N_8  and  C_7 
REMARK    3  A    between atoms: C_12  and  N_8 
REMARK    4  A    between atoms: C_13  and  C_10 
REMARK    5  A    between atoms: O_20  and  C_14 
REMARK    6  A    between atoms: C_22  and  O_20 
ROOT
ATOM      1  C   UNL d   1     -47.964  15.171  22.530  0.00  0.00     0.279 C 
ATOM      2  N   UNL d   1     -48.759  15.327  22.429  0.00  0.00    -0.208 NA
ATOM      3  O   UNL d   1     -47.393  15.752  22.339  0.00  0.00    -0.265 OA
ENDROOT
BRANCH   1   4
ATOM      4  C   UNL d   1     -47.729  14.450  22.816  0.00  0.00     0.068 C 
BRANCH   4   5
ATOM      5  C   UNL d   1     -46.930  14.266  22.870  0.00  0.00     0.068 C 
BRANCH   5   6
ATOM      6  C   UNL d   1     -46.692  13.501  23.068  0.00  0.00     0.281 C 
ATOM      7  N   UNL d   1     -45.998  13.184  22.734  0.00  0.00    -0.195 N 
ATOM      8  N   UNL d   1     -45.449  13.481  22.207  0.00  0.00    -0.163 NA
ATOM      9  C   UNL d   1     -45.767  12.420  22.936  0.00  0.00     0.088 A 
ATOM     10  C   UNL d   1     -44.862  12.890  22.078  0.00  0.00     0.103 A 
ATOM     11  C   UNL d   1     -44.196  12.938  21.590  0.00  0.00     0.022 C 
ATOM     12  C   UNL d   1     -45.071  12.250  22.531  0.00  0.00     0.040 A 
ATOM     13  C   UNL d   1     -46.158  11.902  23.458  0.00  0.00     0.021 C 
ATOM     14  O   UNL d   1     -47.144  13.052  23.599  0.00  0.00    -0.265 OA
ENDBRANCH   5   6
ENDBRANCH   4   5
ENDBRANCH   1   4
BRANCH   2  15
ATOM     15  C   UNL d   1     -49.322  14.752  22.617  0.00  0.00     0.085 A 
ATOM     16  C   UNL d   1     -49.515  14.159  22.065  0.00  0.00     0.021 A 
ATOM     17  C   UNL d   1     -50.079  13.584  22.254  0.00  0.00     0.026 A 
ATOM     18  C   UNL d   1     -50.441  13.601  22.980  0.00  0.00     0.100 A 
ATOM     19  C   UNL d   1     -50.252  14.190  23.535  0.00  0.00     0.026 A 
ATOM     20  C   UNL d   1     -49.694  14.765  23.354  0.00  0.00     0.021 A 
BRANCH  18  21
ATOM     21  O   UNL d   1     -51.004  13.016  23.153  0.00  0.00    -0.305 OA
BRANCH  21  22
ATOM     22  C   UNL d   1     -50.806  12.225  23.118  0.00  0.00     0.123 C 
ATOM     23  C   UNL d   1     -51.064  11.707  23.698  0.00  0.00     0.029 C 
ENDBRANCH  21  22
ENDBRANCH  18  21
ENDBRANCH   2  15
TORSDOF 6
ENDMDL
MODEL 3
REMARK VINA RESULT:      -6.6      1.349      4.268
REMARK  6 active torsions:
REMARK  status: ('A' for Active; 'I' for Inactive)
REMARK       I    between atoms: C_5  and  N_1 
REMARK    1  A    between atoms: C_10  and  C_5 
REMARK    2  A    between atoms: C_7  and  C_13 
REMARK       I    between atoms: N_8  and  C_7 
REMARK    3  A    between atoms: C_12  and  N_8 
REMARK    4  A    between atoms: C_13  and  C_10 
REMARK    5  A    between atoms: O_20  and  C_14 
REMARK    6  A    between atoms: C_22  and  O_20 
ROOT
ATOM      1  C   UNL d   1     -49.252  11.431  23.398  0.00  0.00     0.279 C 
ATOM      2  N   UNL d   1     -48.474  11.195  23.465  0.00  0.00    -0.208 NA
ATOM      3  O   UNL d   1     -49.868  10.936  23.676  0.00  0.00    -0.265 OA
ENDROOT
BRANCH   1   4
ATOM      4  C   UNL d   1     -49.428  12.146  23.061  0.00  0.00     0.068 C 
BRANCH   4   5
ATOM      5  C   UNL d   1     -50.200  12.430  23.068  0.00  0.00     0.068 C 
BRANCH   5   6
ATOM      6  C   UNL d   1     -50.455  12.954  22.484  0.00  0.00     0.281 C 
ATOM      7  N   UNL d   1     -50.535  13.764  22.663  0.00  0.00    -0.195 N 
ATOM      8  N   UNL d   1     -50.408  14.199  23.343  0.00  0.00    -0.163 NA
ATOM      9  C   UNL d   1     -50.790  14.282  22.076  0.00  0.00     0.088 A 
ATOM     10  C   UNL d   1     -50.587  15.005  23.178  0.00  0.00     0.103 A 
ATOM     11  C   UNL d   1     -50.542  15.649  23.695  0.00  0.00     0.022 C 
ATOM     12  C   UNL d   1     -50.819  15.039  22.401  0.00  0.00     0.040 A 
ATOM     13  C   UNL d   1     -50.986  14.089  21.291  0.00  0.00     0.021 C 
ATOM     14  O   UNL d   1     -50.630  12.675  21.724  0.00  0.00    -0.265 OA
ENDBRANCH   5   6
ENDBRANCH   4   5
ENDBRANCH   1   4
BRANCH   2  15
ATOM     15  C   UNL d   1     -47.867  11.684  23.190  0.00  0.00     0.085 A 
ATOM     16  C   UNL d   1     -47.602  11.619  22.404  0.00  0.00     0.021 A 
ATOM     17  C   UNL d   1     -46.995  12.109  22.128  0.00  0.00     0.026 A 
ATOM     18  C   UNL d   1     -46.660  12.652  22.630  0.00  0.00     0.100 A 
ATOM     19  C   UNL d   1     -46.920  12.721  23.416  0.00  0.00     0.026 A 
ATOM     20  C   UNL d   1     -47.523  12.238  23.696  0.00  0.00     0.021 A 
BRANCH  18  21
ATOM     21  O   UNL d   1     -46.052  13.135  22.338  0.00  0.00    -0.305 OA
BRANCH  21  22
ATOM     22  C   UNL d   1     -45.330  12.815  22.128  0.00  0.00     0.123 C 
ATOM     23  C   UNL d   1     -44.721  13.299  21.870  0.00  0.00     0.029 C 
ENDBRANCH  21  22
ENDBRANCH  18  21
ENDBRANCH   2  15
TORSDOF 6
ENDMDL
MODEL 4
REMARK VINA RESULT:      -5.1      8.407     10.244
REMARK  6 active torsions:
REMARK  status: ('A' for Active; 'I' for Inactive)
REMARK       I    between atoms: C_5  and  N_1 
REMARK    1  A    between atoms: C_10  and  C_5 
REMARK    2  A    between atoms: C_7  and  C_13 
REMARK       I    between atoms: N_8  and  C_7 
REMARK    3  A    between atoms: C_12  and  N_8 
REMARK    4  A    between atoms: C_13  and  C_10 
REMARK    5  A    between atoms: O_20  and  C_14 
REMARK    6  A    between atoms: C_22  and  O_20 
ROOT
ATOM      1  C   UNL d   1     -40.906  14.286  19.203  0.00  0.00     0.279 C 
ATOM      2  N   UNL d   1     -41.001  14.578  19.959  0.00  0.00    -0.208 NA
ATOM      3  O   UNL d   1     -41.567  14.005  18.773  0.00  0.00    -0.265 OA
ENDROOT
BRANCH   1   4
ATOM      4  C   UNL d   1     -40.169  14.268  18.868  0.00  0.00     0.068 C 
BRANCH   4   5
ATOM      5  C   UNL d   1     -40.084  14.239  18.051  0.00  0.00     0.068 C 
BRANCH   5   6
ATOM      6  C   UNL d   1     -39.414  13.895  17.714  0.00  0.00     0.281 C 
ATOM      7  N   UNL d   1     -38.976  14.315  17.144  0.00  0.00    -0.195 N 
ATOM      8  N   UNL d   1     -39.063  15.056  16.810  0.00  0.00    -0.163 NA
ATOM      9  C   UNL d   1     -38.309  13.966  16.811  0.00  0.00     0.088 A 
ATOM     10  C   UNL d   1     -38.437  15.172  16.258  0.00  0.00     0.103 A 
ATOM     11  C   UNL d   1     -38.296  15.837  15.787  0.00  0.00     0.022 C 
ATOM     12  C   UNL d   1     -37.986  14.497  16.271  0.00  0.00     0.040 A 
ATOM     13  C   UNL d   1     -38.004  13.211  16.982  0.00  0.00     0.021 C 
ATOM     14  O   UNL d   1     -39.180  13.133  17.943  0.00  0.00    -0.265 OA
ENDBRANCH   5   6
ENDBRANCH   4   5
ENDBRANCH   1   4
BRANCH   2  15
ATOM     15  C   UNL d   1     -40.347  14.855  20.381  0.00  0.00     0.085 A 
ATOM     16  C   UNL d   1     -39.936  14.347  20.897  0.00  0.00     0.021 A 
ATOM     17  C   UNL d   1     -39.282  14.624  21.320  0.00  0.00     0.026 A 
ATOM     18  C   UNL d   1     -39.044  15.394  21.229  0.00  0.00     0.100 A 
ATOM     19  C   UNL d   1     -39.450  15.907  20.716  0.00  0.00     0.026 A 
ATOM     20  C   UNL d   1     -40.101  15.638  20.292  0.00  0.00     0.021 A 
BRANCH  18  21
ATOM     21  O   UNL d   1     -38.385  15.656  21.661  0.00  0.00    -0.305 OA
BRANCH  21  22
ATOM     22  C   UNL d   1     -38.470  15.922  22.428  0.00  0.00     0.123 C 
ATOM     23  C   UNL d   1     -37.940  15.688  23.009  0.00  0.00     0.029 C 
ENDBRANCH  21  22
ENDBRANCH  18  21
ENDBRANCH   2  15
TORSDOF 6
ENDMDL
