MODEL 1
REMARK VINA RESULT:      -4.5      0.000      0.000
REMARK  4 active torsions:
REMARK  status: ('A' for Active; 'I' for Inactive)
REMARK    1  A    between atoms: C_9  and  N_2 
REMARK    2  A    between atoms: C_7  and  O_10 
REMARK    3  A    between atoms: C_11  and  C_9 
REMARK    4  A    between atoms: O_10  and  C_11 
ROOT
ATOM      1  C   UNL d   1      58.218   0.284  29.247  0.00  0.00     0.296 A 
ATOM      2  N   UNL d   1      58.565   0.442  29.976  0.00  0.00    -0.266 N 
ATOM      3  S   UNL d   1      58.829   0.062  28.718  0.00  0.00    -0.025 SA
ATOM      4  C   UNL d   1      59.382   0.321  29.905  0.00  0.00     0.074 A 
ATOM      5  C   UNL d   1      59.544   0.088  29.135  0.00  0.00     0.050 A 
ATOM      6  O   UNL d   1      57.419   0.333  29.064  0.00  0.00    -0.259 OA
ATOM      7  C   UNL d   1      59.994   0.397  30.456  0.00  0.00     0.018 A 
ATOM      8  C   UNL d   1      60.322  -0.074  28.898  0.00  0.00     0.008 A 
ATOM      9  C   UNL d   1      60.772   0.236  30.223  0.00  0.00     0.002 A 
ATOM     10  C   UNL d   1      60.934   0.003  29.453  0.00  0.00     0.001 A 
ENDROOT
BRANCH   2  11
ATOM     11  C   UNL d   1      58.169   0.681  30.659  0.00  0.00     0.110 C 
BRANCH  11  12
ATOM     12  C   UNL d   1      57.707   0.145  31.080  0.00  0.00     0.142 C 
BRANCH  12  13
ATOM     13  O   UNL d   1      57.584   0.236  31.894  0.00  0.00    -0.304 OA
BRANCH  13  14
ATOM     14  C   UNL d   1      57.003  -0.205  32.278  0.00  0.00     0.100 A 
ATOM     15  C   UNL d   1      56.748   0.018  33.032  0.00  0.00     0.023 A 
ATOM     16  C   UNL d   1      57.076   0.682  33.399  0.00  0.00     0.002 C 
ATOM     17  C   UNL d   1      56.171  -0.421  33.414  0.00  0.00     0.002 A 
ATOM     18  C   UNL d   1      55.846  -1.083  33.043  0.00  0.00     0.000 A 
ATOM     19  C   UNL d   1      56.104  -1.303  32.287  0.00  0.00     0.002 A 
ATOM     20  C   UNL d   1      56.684  -0.858  31.911  0.00  0.00     0.025 A 
ENDBRANCH  13  14
ENDBRANCH  12  13
ENDBRANCH  11  12
ENDBRANCH   2  11
TORSDOF 4
ENDMDL
MODEL 2
REMARK VINA RESULT:      -4.1      1.027      1.063
REMARK  4 active torsions:
REMARK  status: ('A' for Active; 'I' for Inactive)
REMARK    1  A    between atoms: C_9  and  N_2 
REMARK    2  A    between atoms: C_7  and  O_10 
REMARK    3  A    between atoms: C_11  and  C_9 
REMARK    4  A    between atoms: O_10  and  C_11 
ROOT
ATOM      1  C   UNL d   1      58.687  -1.498  29.464  0.00  0.00     0.296 A 
ATOM      2  N   UNL d   1      58.622  -0.720  29.719  0.00  0.00    -0.266 N 
ATOM      3  S   UNL d   1      59.453  -1.594  29.136  0.00  0.00    -0.025 SA
ATOM      4  C   UNL d   1      59.336  -0.332  29.553  0.00  0.00     0.074 A 
ATOM      5  C   UNL d   1      59.845  -0.868  29.196  0.00  0.00     0.050 A 
ATOM      6  O   UNL d   1      58.112  -2.081  29.517  0.00  0.00    -0.259 OA
ATOM      7  C   UNL d   1      59.577   0.448  29.689  0.00  0.00     0.018 A 
ATOM      8  C   UNL d   1      60.607  -0.636  28.966  0.00  0.00     0.008 A 
ATOM      9  C   UNL d   1      60.337   0.682  29.460  0.00  0.00     0.002 A 
ATOM     10  C   UNL d   1      60.846   0.146  29.103  0.00  0.00     0.001 A 
ENDROOT
BRANCH   2  11
ATOM     11  C   UNL d   1      57.960  -0.381  30.078  0.00  0.00     0.110 C 
BRANCH  11  12
ATOM     12  C   UNL d   1      57.781  -0.551  30.863  0.00  0.00     0.142 C 
BRANCH  12  13
ATOM     13  O   UNL d   1      57.324  -0.032  31.317  0.00  0.00    -0.304 OA
BRANCH  13  14
ATOM     14  C   UNL d   1      56.918  -0.306  31.981  0.00  0.00     0.100 A 
ATOM     15  C   UNL d   1      57.044   0.048  32.716  0.00  0.00     0.023 A 
ATOM     16  C   UNL d   1      57.577   0.676  32.787  0.00  0.00     0.002 C 
ATOM     17  C   UNL d   1      56.640  -0.226  33.375  0.00  0.00     0.002 A 
ATOM     18  C   UNL d   1      56.109  -0.853  33.300  0.00  0.00     0.000 A 
ATOM     19  C   UNL d   1      55.985  -1.205  32.560  0.00  0.00     0.002 A 
ATOM     20  C   UNL d   1      56.394  -0.925  31.905  0.00  0.00     0.025 A 
ENDBRANCH  13  14
ENDBRANCH  12  13
ENDBRANCH  11  12
ENDBRANCH   2  11
TORSDOF 4
ENDMDL
MODEL 3
REMARK VINA RESULT:      -3.7      1.862      4.382
REMARK  4 active torsions:
REMARK  status: ('A' for Active; 'I' for Inactive)
REMARK    1  A    between atoms: C_9  and  N_2 
REMARK    2  A    between atoms: C_7  and  O_10 
REMARK    3  A    between atoms: C_11  and  C_9 
REMARK    4  A    between atoms: O_10  and  C_11 
ROOT
ATOM      1  C   UNL d   1      57.996   0.643  32.741  0.00  0.00     0.296 A 
ATOM      2  N   UNL d   1      57.350   0.634  32.233  0.00  0.00    -0.266 N 
ATOM      3  S   UNL d   1      57.702   0.607  33.525  0.00  0.00    -0.025 SA
ATOM      4  C   UNL d   1      56.660   0.593  32.692  0.00  0.00     0.074 A 
ATOM      5  C   UNL d   1      56.876   0.577  33.483  0.00  0.00     0.050 A 
ATOM      6  O   UNL d   1      58.787   0.680  32.526  0.00  0.00    -0.259 OA
ATOM      7  C   UNL d   1      55.862   0.569  32.475  0.00  0.00     0.018 A 
ATOM      8  C   UNL d   1      56.299   0.536  34.078  0.00  0.00     0.008 A 
ATOM      9  C   UNL d   1      55.283   0.528  33.066  0.00  0.00     0.002 A 
ATOM     10  C   UNL d   1      55.499   0.512  33.858  0.00  0.00     0.001 A 
ENDROOT
BRANCH   2  11
ATOM     11  C   UNL d   1      57.381   0.661  31.409  0.00  0.00     0.110 C 
BRANCH  11  12
ATOM     12  C   UNL d   1      57.736   0.051  30.986  0.00  0.00     0.142 C 
BRANCH  12  13
ATOM     13  O   UNL d   1      57.781   0.075  30.160  0.00  0.00    -0.304 OA
BRANCH  13  14
ATOM     14  C   UNL d   1      58.186  -0.514  29.748  0.00  0.00     0.100 A 
ATOM     15  C   UNL d   1      58.595  -0.325  29.056  0.00  0.00     0.023 A 
ATOM     16  C   UNL d   1      58.598   0.454  28.777  0.00  0.00     0.002 C 
ATOM     17  C   UNL d   1      58.997  -0.910  28.647  0.00  0.00     0.002 A 
ATOM     18  C   UNL d   1      58.992  -1.686  28.929  0.00  0.00     0.000 A 
ATOM     19  C   UNL d   1      58.581  -1.871  29.623  0.00  0.00     0.002 A 
ATOM     20  C   UNL d   1      58.180  -1.278  30.027  0.00  0.00     0.025 A 
ENDBRANCH  13  14
ENDBRANCH  12  13
ENDBRANCH  11  12
ENDBRANCH   2  11
TORSDOF 4
ENDMDL
MODEL 4
REMARK VINA RESULT:      -3.3      9.215      9.833
REMARK  4 active torsions:
REMARK  status: ('A' for Active; 'I' for Inactive)
REMARK    1  A    between atoms: C_9  and  N_2 
REMARK    2  A    between atoms: C_7  and  O_10 
REMARK    3  A    between atoms: C_11  and  C_9 
REMARK    4  A    between atoms: O_10  and  C_11 
ROOT
ATOM      1  C   UNL d   1      58.548  -9.809  32.605  0.00  0.00     0.296 A 
ATOM      2  N   UNL d   1      59.299  -9.810  32.938  0.00  0.00    -0.266 N 
ATOM      3  S   UNL d   1      58.639  -9.810  31.772  0.00  0.00    -0.025 SA
ATOM      4  C   UNL d   1      59.855  -9.813  32.322  0.00  0.00     0.074 A 
ATOM      5  C   UNL d   1      59.451  -9.813  31.608  0.00  0.00     0.050 A 
ATOM      6  O   UNL d   1      57.833  -9.806  33.010  0.00  0.00    -0.259 OA
ATOM      7  C   UNL d   1      60.682  -9.816  32.334  0.00  0.00     0.018 A 
ATOM      8  C   UNL d   1      59.864  -9.816  30.889  0.00  0.00     0.008 A 
ATOM      9  C   UNL d   1      61.098  -9.818  31.619  0.00  0.00     0.002 A 
ATOM     10  C   UNL d   1      60.693  -9.818  30.904  0.00  0.00     0.001 A 
ENDROOT
BRANCH   2  11
ATOM     11  C   UNL d   1      59.472  -9.810  33.745  0.00  0.00     0.110 C 
BRANCH  11  12
ATOM     12  C   UNL d   1      59.398  -9.118  34.185  0.00  0.00     0.142 C 
BRANCH  12  13
ATOM     13  O   UNL d   1      59.562  -9.110  34.997  0.00  0.00    -0.304 OA
BRANCH  13  14
ATOM     14  C   UNL d   1      59.610  -8.395  35.404  0.00  0.00     0.100 A 
ATOM     15  C   UNL d   1      60.294  -8.208  35.828  0.00  0.00     0.023 A 
ATOM     16  C   UNL d   1      60.929  -8.738  35.843  0.00  0.00     0.002 C 
ATOM     17  C   UNL d   1      60.341  -7.497  36.233  0.00  0.00     0.002 A 
ATOM     18  C   UNL d   1      59.705  -6.972  36.215  0.00  0.00     0.000 A 
ATOM     19  C   UNL d   1      59.021  -7.163  35.789  0.00  0.00     0.002 A 
ATOM     20  C   UNL d   1      58.982  -7.878  35.386  0.00  0.00     0.025 A 
ENDBRANCH  13  14
ENDBRANCH  12  13
ENDBRANCH  11  12
ENDBRANCH   2  11
TORSDOF 4
ENDMDL
