MODEL 1
REMARK VINA RESULT:      28.4      0.000      0.000
REMARK  7 active torsions:
REMARK  status: ('A' for Active; 'I' for Inactive)
REMARK    1  A    between atoms: C_6  and  C_1 
REMARK    2  A    between atoms: O_18  and  C_6 
REMARK    3  A    between atoms: C_7  and  C_11 
REMARK    4  A    between atoms: O_19  and  C_7 
REMARK    5  A    between atoms: O_10  and  C_12 
REMARK    6  A    between atoms: C_11  and  O_10 
REMARK    7  A    between atoms: C_21  and  O_18 
ROOT
ATOM      1  C   UNL d   1     -58.469 -98.759 -43.980  0.00  0.00     0.081 A 
ATOM      2  C   UNL d   1     -59.090 -98.759 -44.526  0.00  0.00     0.069 A 
ATOM      3  N   UNL d   1     -58.760 -98.758 -45.277  0.00  0.00    -0.304 N 
ATOM      4  C   UNL d   1     -57.764 -98.759 -44.393  0.00  0.00     0.025 A 
ATOM      5  C   UNL d   1     -57.945 -98.758 -45.196  0.00  0.00     0.064 A 
ATOM      6  C   UNL d   1     -57.341 -98.757 -45.754  0.00  0.00     0.020 A 
ATOM      7  C   UNL d   1     -56.981 -98.759 -44.148  0.00  0.00     0.026 A 
ATOM      8  C   UNL d   1     -56.371 -98.758 -44.715  0.00  0.00     0.100 A 
ATOM      9  C   UNL d   1     -56.550 -98.757 -45.510  0.00  0.00     0.026 A 
ATOM     10  C   UNL d   1     -59.894 -98.759 -44.349  0.00  0.00     0.019 C 
ATOM     11  C   UNL d   1     -59.184 -98.757 -45.992  0.00  0.00     0.099 C 
ENDROOT
BRANCH   8  12
ATOM     12  O   UNL d   1     -55.581 -98.758 -44.462  0.00  0.00    -0.302 OA
BRANCH  12  13
ATOM     13  C   UNL d   1     -55.302 -99.396 -44.020  0.00  0.00     0.163 C 
ATOM     14  C   UNL d   1     -55.001 -99.275 -43.258  0.00  0.00     0.032 C 
BRANCH  13  15
ATOM     15  C   UNL d   1     -55.322-100.158 -44.338  0.00  0.00     0.319 C 
ATOM     16  O   UNL d   1     -55.289-100.272 -45.156  0.00  0.00    -0.257 OA
BRANCH  15  17
ATOM     17  O   UNL d   1     -55.374-100.813 -43.844  0.00  0.00    -0.294 OA
ATOM     18  C   UNL d   1     -55.052-101.535 -44.081  0.00  0.00     0.185 C 
ENDBRANCH  15  17
ENDBRANCH  13  15
ENDBRANCH  12  13
ENDBRANCH   8  12
BRANCH   1  19
ATOM     19  C   UNL d   1     -58.547 -98.761 -43.156  0.00  0.00     0.302 C 
ATOM     20  O   UNL d   1     -57.870 -98.766 -42.682  0.00  0.00    -0.259 OA
BRANCH  19  21
ATOM     21  O   UNL d   1     -59.292 -98.756 -42.811  0.00  0.00    -0.271 OA
BRANCH  21  22
ATOM     22  C   UNL d   1     -59.469 -99.294 -42.211  0.00  0.00     0.126 C 
ATOM     23  C   UNL d   1     -59.955 -99.065 -41.585  0.00  0.00     0.029 C 
ENDBRANCH  21  22
ENDBRANCH  19  21
ENDBRANCH   1  19
TORSDOF 7
ENDMDL
MODEL 2
REMARK VINA RESULT:      30.1      1.215      2.297
REMARK  7 active torsions:
REMARK  status: ('A' for Active; 'I' for Inactive)
REMARK    1  A    between atoms: C_6  and  C_1 
REMARK    2  A    between atoms: O_18  and  C_6 
REMARK    3  A    between atoms: C_7  and  C_11 
REMARK    4  A    between atoms: O_19  and  C_7 
REMARK    5  A    between atoms: O_10  and  C_12 
REMARK    6  A    between atoms: C_11  and  O_10 
REMARK    7  A    between atoms: C_21  and  O_18 
ROOT
ATOM      1  C   UNL d   1     -58.428 -98.765 -44.946  0.00  0.00     0.081 A 
ATOM      2  C   UNL d   1     -58.999 -98.768 -44.349  0.00  0.00     0.069 A 
ATOM      3  N   UNL d   1     -58.607 -98.767 -43.628  0.00  0.00    -0.304 N 
ATOM      4  C   UNL d   1     -57.690 -98.763 -44.595  0.00  0.00     0.025 A 
ATOM      5  C   UNL d   1     -57.801 -98.764 -43.779  0.00  0.00     0.064 A 
ATOM      6  C   UNL d   1     -57.152 -98.762 -43.275  0.00  0.00     0.020 A 
ATOM      7  C   UNL d   1     -56.931 -98.761 -44.906  0.00  0.00     0.026 A 
ATOM      8  C   UNL d   1     -56.275 -98.759 -44.394  0.00  0.00     0.100 A 
ATOM      9  C   UNL d   1     -56.384 -98.759 -43.587  0.00  0.00     0.026 A 
ATOM     10  C   UNL d   1     -59.815 -98.770 -44.455  0.00  0.00     0.019 C 
ATOM     11  C   UNL d   1     -58.968 -98.768 -42.880  0.00  0.00     0.099 C 
ENDROOT
BRANCH   8  12
ATOM     12  O   UNL d   1     -55.510 -98.756 -44.713  0.00  0.00    -0.302 OA
BRANCH  12  13
ATOM     13  C   UNL d   1     -55.142 -99.475 -44.879  0.00  0.00     0.163 C 
ATOM     14  C   UNL d   1     -54.775 -99.597 -45.611  0.00  0.00     0.032 C 
BRANCH  13  15
ATOM     15  C   UNL d   1     -55.140-100.077 -44.313  0.00  0.00     0.319 C 
ATOM     16  O   UNL d   1     -54.715 -99.988 -43.609  0.00  0.00    -0.257 OA
BRANCH  15  17
ATOM     17  O   UNL d   1     -55.559-100.772 -44.443  0.00  0.00    -0.294 OA
ATOM     18  C   UNL d   1     -55.169-101.499 -44.419  0.00  0.00     0.185 C 
ENDBRANCH  15  17
ENDBRANCH  13  15
ENDBRANCH  12  13
ENDBRANCH   8  12
BRANCH   1  19
ATOM     19  C   UNL d   1     -58.577 -98.766 -45.760  0.00  0.00     0.302 C 
ATOM     20  O   UNL d   1     -57.943 -98.776 -46.290  0.00  0.00    -0.259 OA
BRANCH  19  21
ATOM     21  O   UNL d   1     -59.348 -98.755 -46.040  0.00  0.00    -0.271 OA
BRANCH  21  22
ATOM     22  C   UNL d   1     -59.539 -99.161 -46.732  0.00  0.00     0.126 C 
ATOM     23  C   UNL d   1     -59.564 -98.756 -47.451  0.00  0.00     0.029 C 
ENDBRANCH  21  22
ENDBRANCH  19  21
ENDBRANCH   1  19
TORSDOF 7
ENDMDL
