MODEL 1
REMARK VINA RESULT:      -5.1      0.000      0.000
REMARK  1 active torsions:
REMARK  status: ('A' for Active; 'I' for Inactive)
REMARK    1  A    between atoms: C_12  and  N_4 
ROOT
ATOM      1  C   UNL d   1     -41.370-122.669 -52.704  0.00  0.00     0.081 A 
ATOM      2  C   UNL d   1     -41.346-123.458 -52.764  0.00  0.00     0.118 A 
ATOM      3  C   UNL d   1     -41.452-122.200 -53.385  0.00  0.00     0.268 A 
ATOM      4  N   UNL d   1     -41.506-122.567 -54.116  0.00  0.00    -0.249 N 
ATOM      5  N   UNL d   1     -41.400-123.817 -53.490  0.00  0.00    -0.212 NA
ATOM      6  C   UNL d   1     -41.483-123.353 -54.190  0.00  0.00     0.209 A 
ATOM      7  S   UNL d   1     -41.263-123.817 -52.025  0.00  0.00    -0.068 SA
ATOM      8  C   UNL d   1     -41.301-122.492 -51.892  0.00  0.00     0.013 A 
ATOM      9  C   UNL d   1     -41.234-123.209 -51.462  0.00  0.00     0.031 A 
ATOM     10  S   UNL d   1     -41.541-123.685 -54.949  0.00  0.00    -0.038 SA
ATOM     11  O   UNL d   1     -41.480-121.374 -53.347  0.00  0.00    -0.267 OA
ATOM     12  C   UNL d   1     -41.309-121.720 -51.662  0.00  0.00     0.001 A 
ATOM     13  C   UNL d   1     -41.155-123.267 -50.648  0.00  0.00     0.006 A 
ATOM     14  C   UNL d   1     -41.246-121.438 -50.872  0.00  0.00     0.000 A 
ATOM     15  C   UNL d   1     -41.124-122.687 -50.081  0.00  0.00     0.001 A 
ATOM     16  C   UNL d   1     -41.164-121.868 -50.173  0.00  0.00     0.000 A 
ENDROOT
BRANCH   4  17
ATOM     17  C   UNL d   1     -41.590-122.096 -54.817  0.00  0.00     0.085 C 
ATOM     18  C   UNL d   1     -42.339-121.914 -55.096  0.00  0.00     0.021 C 
ENDBRANCH   4  17
TORSDOF 1
ENDMDL
MODEL 2
REMARK VINA RESULT:      -2.9      1.337      1.685
REMARK  1 active torsions:
REMARK  status: ('A' for Active; 'I' for Inactive)
REMARK    1  A    between atoms: C_12  and  N_4 
ROOT
ATOM      1  C   UNL d   1     -41.868-122.738 -51.261  0.00  0.00     0.081 A 
ATOM      2  C   UNL d   1     -41.382-123.329 -51.468  0.00  0.00     0.118 A 
ATOM      3  C   UNL d   1     -42.116-122.184 -51.827  0.00  0.00     0.268 A 
ATOM      4  N   UNL d   1     -41.852-122.259 -52.600  0.00  0.00    -0.249 N 
ATOM      5  N   UNL d   1     -41.123-123.399 -52.234  0.00  0.00    -0.212 NA
ATOM      6  C   UNL d   1     -41.368-122.843 -52.819  0.00  0.00     0.209 A 
ATOM      7  S   UNL d   1     -41.203-123.815 -50.824  0.00  0.00    -0.068 SA
ATOM      8  C   UNL d   1     -42.020-122.832 -50.447  0.00  0.00     0.013 A 
ATOM      9  C   UNL d   1     -41.606-123.507 -50.169  0.00  0.00     0.031 A 
ATOM     10  S   UNL d   1     -41.123-122.883 -53.613  0.00  0.00    -0.038 SA
ATOM     11  O   UNL d   1     -42.623-121.559 -51.635  0.00  0.00    -0.267 OA
ATOM     12  C   UNL d   1     -42.504-122.304 -50.080  0.00  0.00     0.001 A 
ATOM     13  C   UNL d   1     -41.615-123.783 -49.397  0.00  0.00     0.006 A 
ATOM     14  C   UNL d   1     -42.720-122.310 -49.267  0.00  0.00     0.000 A 
ATOM     15  C   UNL d   1     -42.001-123.497 -48.742  0.00  0.00     0.001 A 
ATOM     16  C   UNL d   1     -42.496-122.840 -48.675  0.00  0.00     0.000 A 
ENDROOT
BRANCH   4  17
ATOM     17  C   UNL d   1     -42.101-121.697 -53.185  0.00  0.00     0.085 C 
ATOM     18  C   UNL d   1     -42.557-121.947 -53.819  0.00  0.00     0.021 C 
ENDBRANCH   4  17
TORSDOF 1
ENDMDL
MODEL 3
REMARK VINA RESULT:      -2.3      1.855      3.516
REMARK  1 active torsions:
REMARK  status: ('A' for Active; 'I' for Inactive)
REMARK    1  A    between atoms: C_12  and  N_4 
ROOT
ATOM      1  C   UNL d   1     -41.932-122.694 -51.208  0.00  0.00     0.081 A 
ATOM      2  C   UNL d   1     -41.496-123.350 -51.120  0.00  0.00     0.118 A 
ATOM      3  C   UNL d   1     -42.354-122.384 -50.563  0.00  0.00     0.268 A 
ATOM      4  N   UNL d   1     -42.311-122.767 -49.840  0.00  0.00    -0.249 N 
ATOM      5  N   UNL d   1     -41.456-123.726 -50.402  0.00  0.00    -0.212 NA
ATOM      6  C   UNL d   1     -41.880-123.421 -49.739  0.00  0.00     0.209 A 
ATOM      7  S   UNL d   1     -41.123-123.563 -51.826  0.00  0.00    -0.068 SA
ATOM      8  C   UNL d   1     -41.848-122.459 -52.003  0.00  0.00     0.013 A 
ATOM      9  C   UNL d   1     -41.341-123.002 -52.395  0.00  0.00     0.031 A 
ATOM     10  S   UNL d   1     -41.864-123.778 -48.988  0.00  0.00    -0.038 SA
ATOM     11  O   UNL d   1     -42.816-121.701 -50.630  0.00  0.00    -0.267 OA
ATOM     12  C   UNL d   1     -42.235-121.800 -52.255  0.00  0.00     0.001 A 
ATOM     13  C   UNL d   1     -41.123-122.959 -53.184  0.00  0.00     0.006 A 
ATOM     14  C   UNL d   1     -42.216-121.480 -53.033  0.00  0.00     0.000 A 
ATOM     15  C   UNL d   1     -41.324-122.419 -53.757  0.00  0.00     0.001 A 
ATOM     16  C   UNL d   1     -41.812-121.757 -53.697  0.00  0.00     0.000 A 
ENDROOT
BRANCH   4  17
ATOM     17  C   UNL d   1     -42.739-122.457 -49.175  0.00  0.00     0.085 C 
ATOM     18  C   UNL d   1     -43.397-122.858 -48.894  0.00  0.00     0.021 C 
ENDBRANCH   4  17
TORSDOF 1
ENDMDL
