MODEL 1
REMARK VINA RESULT:      -6.4      0.000      0.000
REMARK  3 active torsions:
REMARK  status: ('A' for Active; 'I' for Inactive)
REMARK    1  A    between atoms: N_5  and  C_1 
REMARK       I    between atoms: C_2  and  N_3 
REMARK    2  A    between atoms: C_4  and  C_2 
REMARK    3  A    between atoms: N_3  and  N_5 
ROOT
ATOM      1  C   UNL d   1     -48.878  11.938  22.957  0.00  0.00     0.060 A 
ATOM      2  C   UNL d   1     -49.471  12.193  23.464  0.00  0.00     0.012 A 
ATOM      3  C   UNL d   1     -50.209  12.418  23.171  0.00  0.00     0.035 A 
ATOM      4 BR   UNL d   1     -50.799  12.675  23.694  0.00  0.00    -0.049 Br
ATOM      5  C   UNL d   1     -49.022  11.904  22.136  0.00  0.00     0.005 A 
ATOM      6  C   UNL d   1     -49.754  12.128  21.845  0.00  0.00     0.001 A 
ATOM      7  C   UNL d   1     -50.349  12.386  22.370  0.00  0.00     0.007 A 
ENDROOT
BRANCH   1   8
ATOM      8  C   UNL d   1     -48.141  11.714  23.267  0.00  0.00     0.297 C 
ATOM      9  N   UNL d   1     -47.518  12.227  23.219  0.00  0.00    -0.103 NA
ATOM     10  O   UNL d   1     -48.054  10.965  23.623  0.00  0.00    -0.264 OA
BRANCH   9  11
ATOM     11  N   UNL d   1     -47.617  12.952  22.871  0.00  0.00    -0.112 NA
BRANCH  11  12
ATOM     12  C   UNL d   1     -46.994  13.490  22.857  0.00  0.00     0.260 C 
ATOM     13  S   UNL d   1     -46.232  13.238  22.640  0.00  0.00    -0.034 SA
ATOM     14  N   UNL d   1     -47.124  14.277  23.059  0.00  0.00    -0.113 N 
ENDBRANCH  11  12
ENDBRANCH   9  11
ENDBRANCH   1   8
TORSDOF 3
ENDMDL
MODEL 2
REMARK VINA RESULT:      -6.4      2.322      2.923
REMARK  3 active torsions:
REMARK  status: ('A' for Active; 'I' for Inactive)
REMARK    1  A    between atoms: N_5  and  C_1 
REMARK       I    between atoms: C_2  and  N_3 
REMARK    2  A    between atoms: C_4  and  C_2 
REMARK    3  A    between atoms: N_3  and  N_5 
ROOT
ATOM      1  C   UNL d   1     -47.809  13.091  22.333  0.00  0.00     0.060 A 
ATOM      2  C   UNL d   1     -47.850  12.392  22.762  0.00  0.00     0.012 A 
ATOM      3  C   UNL d   1     -47.239  12.173  23.271  0.00  0.00     0.035 A 
ATOM      4 BR   UNL d   1     -47.293  11.464  23.698  0.00  0.00    -0.049 Br
ATOM      5  C   UNL d   1     -47.141  13.586  22.412  0.00  0.00     0.005 A 
ATOM      6  C   UNL d   1     -46.535  13.368  22.918  0.00  0.00     0.001 A 
ATOM      7  C   UNL d   1     -46.588  12.656  23.348  0.00  0.00     0.007 A 
ENDROOT
BRANCH   1   8
ATOM      8  C   UNL d   1     -48.431  13.298  21.825  0.00  0.00     0.297 C 
ATOM      9  N   UNL d   1     -48.977  13.843  22.067  0.00  0.00    -0.103 NA
ATOM     10  O   UNL d   1     -48.485  12.941  21.073  0.00  0.00    -0.264 OA
BRANCH   9  11
ATOM     11  N   UNL d   1     -48.913  14.181  22.800  0.00  0.00    -0.112 NA
BRANCH  11  12
ATOM     12  C   UNL d   1     -49.455  14.754  23.037  0.00  0.00     0.260 C 
ATOM     13  S   UNL d   1     -50.127  14.534  23.473  0.00  0.00    -0.034 SA
ATOM     14  N   UNL d   1     -49.332  15.545  22.844  0.00  0.00    -0.113 N 
ENDBRANCH  11  12
ENDBRANCH   9  11
ENDBRANCH   1   8
TORSDOF 3
ENDMDL
MODEL 3
REMARK VINA RESULT:      -6.3      2.115      2.463
REMARK  3 active torsions:
REMARK  status: ('A' for Active; 'I' for Inactive)
REMARK    1  A    between atoms: N_5  and  C_1 
REMARK       I    between atoms: C_2  and  N_3 
REMARK    2  A    between atoms: C_4  and  C_2 
REMARK    3  A    between atoms: N_3  and  N_5 
ROOT
ATOM      1  C   UNL d   1     -48.611  12.511  22.347  0.00  0.00     0.060 A 
ATOM      2  C   UNL d   1     -47.880  12.380  22.697  0.00  0.00     0.012 A 
ATOM      3  C   UNL d   1     -47.809  11.884  23.353  0.00  0.00     0.035 A 
ATOM      4 BR   UNL d   1     -47.065  11.761  23.697  0.00  0.00    -0.049 Br
ATOM      5  C   UNL d   1     -49.291  12.139  22.656  0.00  0.00     0.005 A 
ATOM      6  C   UNL d   1     -49.220  11.647  23.307  0.00  0.00     0.001 A 
ATOM      7  C   UNL d   1     -48.472  11.521  23.655  0.00  0.00     0.007 A 
ENDROOT
BRANCH   1   8
ATOM      8  C   UNL d   1     -48.666  13.013  21.688  0.00  0.00     0.297 C 
ATOM      9  N   UNL d   1     -48.848  13.793  21.796  0.00  0.00    -0.103 NA
ATOM     10  O   UNL d   1     -48.534  12.704  20.924  0.00  0.00    -0.264 OA
BRANCH   9  11
ATOM     11  N   UNL d   1     -48.973  14.078  22.543  0.00  0.00    -0.112 NA
BRANCH  11  12
ATOM     12  C   UNL d   1     -49.101  14.884  22.660  0.00  0.00     0.260 C 
ATOM     13  S   UNL d   1     -49.860  15.159  22.856  0.00  0.00    -0.034 SA
ATOM     14  N   UNL d   1     -48.478  15.416  22.582  0.00  0.00    -0.113 N 
ENDBRANCH  11  12
ENDBRANCH   9  11
ENDBRANCH   1   8
TORSDOF 3
ENDMDL
MODEL 4
REMARK VINA RESULT:      -6.3      1.514      1.733
REMARK  3 active torsions:
REMARK  status: ('A' for Active; 'I' for Inactive)
REMARK    1  A    between atoms: N_5  and  C_1 
REMARK       I    between atoms: C_2  and  N_3 
REMARK    2  A    between atoms: C_4  and  C_2 
REMARK    3  A    between atoms: N_3  and  N_5 
ROOT
ATOM      1  C   UNL d   1     -49.038  13.681  22.454  0.00  0.00     0.060 A 
ATOM      2  C   UNL d   1     -49.513  13.225  22.945  0.00  0.00     0.012 A 
ATOM      3  C   UNL d   1     -49.997  12.634  22.633  0.00  0.00     0.035 A 
ATOM      4 BR   UNL d   1     -50.471  12.180  23.139  0.00  0.00    -0.049 Br
ATOM      5  C   UNL d   1     -49.044  13.546  21.630  0.00  0.00     0.005 A 
ATOM      6  C   UNL d   1     -49.524  12.959  21.322  0.00  0.00     0.001 A 
ATOM      7  C   UNL d   1     -50.002  12.502  21.830  0.00  0.00     0.007 A 
ENDROOT
BRANCH   1   8
ATOM      8  C   UNL d   1     -48.557  14.272  22.783  0.00  0.00     0.297 C 
ATOM      9  N   UNL d   1     -47.780  14.111  22.940  0.00  0.00    -0.103 NA
ATOM     10  O   UNL d   1     -48.881  15.023  22.945  0.00  0.00    -0.264 OA
BRANCH   9  11
ATOM     11  N   UNL d   1     -47.479  13.377  22.777  0.00  0.00    -0.112 NA
BRANCH  11  12
ATOM     12  C   UNL d   1     -46.705  13.193  22.990  0.00  0.00     0.260 C 
ATOM     13  S   UNL d   1     -46.069  13.527  22.572  0.00  0.00    -0.034 SA
ATOM     14  N   UNL d   1     -46.560  12.679  23.616  0.00  0.00    -0.113 N 
ENDBRANCH  11  12
ENDBRANCH   9  11
ENDBRANCH   1   8
TORSDOF 3
ENDMDL
MODEL 5
REMARK VINA RESULT:      -6.2      2.445      3.038
REMARK  3 active torsions:
REMARK  status: ('A' for Active; 'I' for Inactive)
REMARK    1  A    between atoms: N_5  and  C_1 
REMARK       I    between atoms: C_2  and  N_3 
REMARK    2  A    between atoms: C_4  and  C_2 
REMARK    3  A    between atoms: N_3  and  N_5 
ROOT
ATOM      1  C   UNL d   1     -47.963  12.947  22.359  0.00  0.00     0.060 A 
ATOM      2  C   UNL d   1     -47.216  13.270  22.252  0.00  0.00     0.012 A 
ATOM      3  C   UNL d   1     -46.591  13.062  22.750  0.00  0.00     0.035 A 
ATOM      4 BR   UNL d   1     -45.842  13.395  22.632  0.00  0.00    -0.049 Br
ATOM      5  C   UNL d   1     -48.094  12.402  22.978  0.00  0.00     0.005 A 
ATOM      6  C   UNL d   1     -47.474  12.197  23.472  0.00  0.00     0.001 A 
ATOM      7  C   UNL d   1     -46.719  12.531  23.354  0.00  0.00     0.007 A 
ENDROOT
BRANCH   1   8
ATOM      8  C   UNL d   1     -48.581  13.166  21.849  0.00  0.00     0.297 C 
ATOM      9  N   UNL d   1     -49.083  13.761  22.067  0.00  0.00    -0.103 NA
ATOM     10  O   UNL d   1     -48.674  12.768  21.122  0.00  0.00    -0.264 OA
BRANCH   9  11
ATOM     11  N   UNL d   1     -48.980  14.137  22.776  0.00  0.00    -0.112 NA
BRANCH  11  12
ATOM     12  C   UNL d   1     -49.457  14.780  22.974  0.00  0.00     0.260 C 
ATOM     13  S   UNL d   1     -50.173  14.656  23.376  0.00  0.00    -0.034 SA
ATOM     14  N   UNL d   1     -49.224  15.543  22.773  0.00  0.00    -0.113 N 
ENDBRANCH  11  12
ENDBRANCH   9  11
ENDBRANCH   1   8
TORSDOF 3
ENDMDL
MODEL 6
REMARK VINA RESULT:      -6.0      1.941      2.209
REMARK  3 active torsions:
REMARK  status: ('A' for Active; 'I' for Inactive)
REMARK    1  A    between atoms: N_5  and  C_1 
REMARK       I    between atoms: C_2  and  N_3 
REMARK    2  A    between atoms: C_4  and  C_2 
REMARK    3  A    between atoms: N_3  and  N_5 
ROOT
ATOM      1  C   UNL d   1     -48.852  13.850  22.251  0.00  0.00     0.060 A 
ATOM      2  C   UNL d   1     -49.553  13.780  22.671  0.00  0.00     0.012 A 
ATOM      3  C   UNL d   1     -49.867  14.425  23.079  0.00  0.00     0.035 A 
ATOM      4 BR   UNL d   1     -50.577  14.341  23.499  0.00  0.00    -0.049 Br
ATOM      5  C   UNL d   1     -48.450  14.582  22.235  0.00  0.00     0.005 A 
ATOM      6  C   UNL d   1     -48.762  15.222  22.640  0.00  0.00     0.001 A 
ATOM      7  C   UNL d   1     -49.476  15.139  23.064  0.00  0.00     0.007 A 
ENDROOT
BRANCH   1   8
ATOM      8  C   UNL d   1     -48.548  13.193  21.846  0.00  0.00     0.297 C 
ATOM      9  N   UNL d   1     -47.997  12.723  22.206  0.00  0.00    -0.103 NA
ATOM     10  O   UNL d   1     -48.816  13.026  21.073  0.00  0.00    -0.264 OA
BRANCH   9  11
ATOM     11  N   UNL d   1     -47.746  12.898  22.956  0.00  0.00    -0.112 NA
BRANCH  11  12
ATOM     12  C   UNL d   1     -47.166  12.435  23.313  0.00  0.00     0.260 C 
ATOM     13  S   UNL d   1     -47.377  11.728  23.697  0.00  0.00    -0.034 SA
ATOM     14  N   UNL d   1     -46.378  12.671  23.291  0.00  0.00    -0.113 N 
ENDBRANCH  11  12
ENDBRANCH   9  11
ENDBRANCH   1   8
TORSDOF 3
ENDMDL
MODEL 7
REMARK VINA RESULT:      -4.9      9.614     10.280
REMARK  3 active torsions:
REMARK  status: ('A' for Active; 'I' for Inactive)
REMARK    1  A    between atoms: N_5  and  C_1 
REMARK       I    between atoms: C_2  and  N_3 
REMARK    2  A    between atoms: C_4  and  C_2 
REMARK    3  A    between atoms: N_3  and  N_5 
ROOT
ATOM      1  C   UNL d   1     -40.361  14.876  17.842  0.00  0.00     0.060 A 
ATOM      2  C   UNL d   1     -39.624  14.730  17.510  0.00  0.00     0.012 A 
ATOM      3  C   UNL d   1     -39.355  15.174  16.869  0.00  0.00     0.035 A 
ATOM      4 BR   UNL d   1     -38.610  15.016  16.543  0.00  0.00    -0.049 Br
ATOM      5  C   UNL d   1     -40.843  15.481  17.529  0.00  0.00     0.005 A 
ATOM      6  C   UNL d   1     -40.575  15.922  16.893  0.00  0.00     0.001 A 
ATOM      7  C   UNL d   1     -39.826  15.764  16.563  0.00  0.00     0.007 A 
ENDROOT
BRANCH   1   8
ATOM      8  C   UNL d   1     -40.618  14.421  18.487  0.00  0.00     0.297 C 
ATOM      9  N   UNL d   1     -40.537  14.712  19.237  0.00  0.00    -0.103 NA
ATOM     10  O   UNL d   1     -40.956  13.671  18.352  0.00  0.00    -0.264 OA
BRANCH   9  11
ATOM     11  N   UNL d   1     -40.206  15.443  19.353  0.00  0.00    -0.112 NA
BRANCH  11  12
ATOM     12  C   UNL d   1     -40.154  15.754  20.114  0.00  0.00     0.260 C 
ATOM     13  S   UNL d   1     -39.410  15.917  20.445  0.00  0.00    -0.034 SA
ATOM     14  N   UNL d   1     -40.838  15.904  20.546  0.00  0.00    -0.113 N 
ENDBRANCH  11  12
ENDBRANCH   9  11
ENDBRANCH   1   8
TORSDOF 3
ENDMDL
MODEL 8
REMARK VINA RESULT:      -4.9      9.619     10.196
REMARK  3 active torsions:
REMARK  status: ('A' for Active; 'I' for Inactive)
REMARK    1  A    between atoms: N_5  and  C_1 
REMARK       I    between atoms: C_2  and  N_3 
REMARK    2  A    between atoms: C_4  and  C_2 
REMARK    3  A    between atoms: N_3  and  N_5 
ROOT
ATOM      1  C   UNL d   1     -40.349  14.814  18.562  0.00  0.00     0.060 A 
ATOM      2  C   UNL d   1     -40.600  14.485  19.271  0.00  0.00     0.012 A 
ATOM      3  C   UNL d   1     -40.443  14.860  19.989  0.00  0.00     0.035 A 
ATOM      4 BR   UNL d   1     -40.701  14.517  20.698  0.00  0.00    -0.049 Br
ATOM      5  C   UNL d   1     -39.930  15.536  18.566  0.00  0.00     0.005 A 
ATOM      6  C   UNL d   1     -39.775  15.908  19.279  0.00  0.00     0.001 A 
ATOM      7  C   UNL d   1     -40.034  15.564  19.993  0.00  0.00     0.007 A 
ENDROOT
BRANCH   1   8
ATOM      8  C   UNL d   1     -40.515  14.425  17.848  0.00  0.00     0.297 C 
ATOM      9  N   UNL d   1     -39.957  13.940  17.521  0.00  0.00    -0.103 NA
ATOM     10  O   UNL d   1     -41.254  14.540  17.479  0.00  0.00    -0.264 OA
BRANCH   9  11
ATOM     11  N   UNL d   1     -39.243  13.837  17.891  0.00  0.00    -0.112 NA
BRANCH  11  12
ATOM     12  C   UNL d   1     -38.685  13.323  17.571  0.00  0.00     0.260 C 
ATOM     13  S   UNL d   1     -38.232  13.559  16.915  0.00  0.00    -0.034 SA
ATOM     14  N   UNL d   1     -38.573  12.578  17.901  0.00  0.00    -0.113 N 
ENDBRANCH  11  12
ENDBRANCH   9  11
ENDBRANCH   1   8
TORSDOF 3
ENDMDL
MODEL 9
REMARK VINA RESULT:      -4.5      9.388      9.976
REMARK  3 active torsions:
REMARK  status: ('A' for Active; 'I' for Inactive)
REMARK    1  A    between atoms: N_5  and  C_1 
REMARK       I    between atoms: C_2  and  N_3 
REMARK    2  A    between atoms: C_4  and  C_2 
REMARK    3  A    between atoms: N_3  and  N_5 
ROOT
ATOM      1  C   UNL d   1     -40.082  14.424  19.104  0.00  0.00     0.060 A 
ATOM      2  C   UNL d   1     -39.483  14.866  19.450  0.00  0.00     0.012 A 
ATOM      3  C   UNL d   1     -39.601  15.241  20.176  0.00  0.00     0.035 A 
ATOM      4 BR   UNL d   1     -38.988  15.685  20.514  0.00  0.00    -0.049 Br
ATOM      5  C   UNL d   1     -40.819  14.352  19.490  0.00  0.00     0.005 A 
ATOM      6  C   UNL d   1     -40.935  14.724  20.210  0.00  0.00     0.001 A 
ATOM      7  C   UNL d   1     -40.319  15.170  20.552  0.00  0.00     0.007 A 
ENDROOT
BRANCH   1   8
ATOM      8  C   UNL d   1     -39.949  14.053  18.373  0.00  0.00     0.297 C 
ATOM      9  N   UNL d   1     -40.165  14.430  17.691  0.00  0.00    -0.103 NA
ATOM     10  O   UNL d   1     -39.595  13.298  18.354  0.00  0.00    -0.264 OA
BRANCH   9  11
ATOM     11  N   UNL d   1     -40.508  15.163  17.726  0.00  0.00    -0.112 NA
BRANCH  11  12
ATOM     12  C   UNL d   1     -40.708  15.556  17.030  0.00  0.00     0.260 C 
ATOM     13  S   UNL d   1     -40.116  15.922  16.576  0.00  0.00    -0.034 SA
ATOM     14  N   UNL d   1     -41.493  15.588  16.784  0.00  0.00    -0.113 N 
ENDBRANCH  11  12
ENDBRANCH   9  11
ENDBRANCH   1   8
TORSDOF 3
ENDMDL
