MODEL 1
REMARK VINA RESULT:      53.2      0.000      0.000
REMARK  4 active torsions:
REMARK  status: ('A' for Active; 'I' for Inactive)
REMARK    1  A    between atoms: N_2  and  S_1 
REMARK    2  A    between atoms: C_3  and  S_1 
REMARK    3  A    between atoms: C_11  and  N_2 
REMARK    4  A    between atoms: C_6  and  C_7 
ROOT
ATOM      1  S   UNL d   1     -50.328  27.321  33.381  0.00  0.00     0.285 S 
ATOM      2  O   UNL d   1     -49.511  27.223  33.412  0.00  0.00    -0.198 OA
ATOM      3  O   UNL d   1     -51.160  27.405  33.350  0.00  0.00    -0.198 OA
ENDROOT
BRANCH   1   4
ATOM      4  N   UNL d   1     -50.240  28.133  33.400  0.00  0.00    -0.158 NA
BRANCH   4   5
ATOM      5  C   UNL d   1     -49.644  28.477  33.848  0.00  0.00     0.094 A 
ATOM      6  C   UNL d   1     -49.341  29.203  33.591  0.00  0.00     0.020 A 
ATOM      7  C   UNL d   1     -48.733  29.564  34.041  0.00  0.00     0.005 A 
ATOM      8  C   UNL d   1     -48.450  29.193  34.721  0.00  0.00     0.039 A 
ATOM      9  C   UNL d   1     -48.752  28.472  34.974  0.00  0.00     0.005 A 
ATOM     10  C   UNL d   1     -49.350  28.116  34.535  0.00  0.00     0.020 A 
BRANCH   8  11
ATOM     11  C   UNL d   1     -47.838  29.563  35.167  0.00  0.00     0.196 C 
ATOM     12  O   UNL d   1     -47.230  29.095  35.468  0.00  0.00    -0.287 OA
ATOM     13  C   UNL d   1     -47.869  30.378  35.287  0.00  0.00     0.045 C 
ENDBRANCH   8  11
ENDBRANCH   4   5
ENDBRANCH   1   4
BRANCH   1  14
ATOM     14  C   UNL d   1     -50.425  26.460  33.362  0.00  0.00     0.105 A 
ATOM     15  C   UNL d   1     -49.760  25.991  33.350  0.00  0.00     0.015 A 
ATOM     16  C   UNL d   1     -49.831  25.168  33.332  0.00  0.00     0.022 A 
ATOM     17  C   UNL d   1     -50.574  24.828  33.325  0.00  0.00     0.103 A 
ATOM     18  C   UNL d   1     -51.264  25.312  33.337  0.00  0.00     0.022 A 
ATOM     19  N   UNL d   1     -50.646  23.981  33.306  0.00  0.00    -0.148 N 
ATOM     20  C   UNL d   1     -51.159  26.137  33.355  0.00  0.00     0.015 A 
ENDBRANCH   1  14
TORSDOF 4
ENDMDL
MODEL 2
REMARK VINA RESULT:      54.1      2.930      4.197
REMARK  4 active torsions:
REMARK  status: ('A' for Active; 'I' for Inactive)
REMARK    1  A    between atoms: N_2  and  S_1 
REMARK    2  A    between atoms: C_3  and  S_1 
REMARK    3  A    between atoms: C_11  and  N_2 
REMARK    4  A    between atoms: C_6  and  C_7 
ROOT
ATOM      1  S   UNL d   1     -47.511  30.028  35.589  0.00  0.00     0.285 S 
ATOM      2  O   UNL d   1     -47.090  29.785  34.925  0.00  0.00    -0.198 OA
ATOM      3  O   UNL d   1     -47.948  30.263  36.265  0.00  0.00    -0.198 OA
ENDROOT
BRANCH   1   4
ATOM      4  N   UNL d   1     -47.074  30.718  35.626  0.00  0.00    -0.158 NA
BRANCH   4   5
ATOM      5  C   UNL d   1     -47.243  31.343  35.120  0.00  0.00     0.094 A 
ATOM      6  C   UNL d   1     -46.641  31.595  34.609  0.00  0.00     0.020 A 
ATOM      7  C   UNL d   1     -46.801  32.232  34.088  0.00  0.00     0.005 A 
ATOM      8  C   UNL d   1     -47.544  32.591  34.094  0.00  0.00     0.039 A 
ATOM      9  C   UNL d   1     -48.138  32.339  34.601  0.00  0.00     0.005 A 
ATOM     10  C   UNL d   1     -47.985  31.714  35.114  0.00  0.00     0.020 A 
BRANCH   8  11
ATOM     11  C   UNL d   1     -47.695  33.231  33.567  0.00  0.00     0.196 C 
ATOM     12  O   UNL d   1     -47.061  33.688  33.306  0.00  0.00    -0.287 OA
ATOM     13  C   UNL d   1     -48.472  33.377  33.331  0.00  0.00     0.045 C 
ENDBRANCH   8  11
ENDBRANCH   4   5
ENDBRANCH   1   4
BRANCH   1  14
ATOM     14  C   UNL d   1     -47.977  29.299  35.555  0.00  0.00     0.105 A 
ATOM     15  C   UNL d   1     -48.314  29.017  36.241  0.00  0.00     0.015 A 
ATOM     16  C   UNL d   1     -48.762  28.323  36.231  0.00  0.00     0.022 A 
ATOM     17  C   UNL d   1     -48.865  27.921  35.528  0.00  0.00     0.103 A 
ATOM     18  C   UNL d   1     -48.518  28.211  34.816  0.00  0.00     0.022 A 
ATOM     19  N   UNL d   1     -49.326  27.207  35.517  0.00  0.00    -0.148 N 
ATOM     20  C   UNL d   1     -48.072  28.912  34.860  0.00  0.00     0.015 A 
ENDBRANCH   1  14
TORSDOF 4
ENDMDL
