MODEL 1
REMARK VINA RESULT:     122.0      0.000      0.000
REMARK  5 active torsions:
REMARK  status: ('A' for Active; 'I' for Inactive)
REMARK    1  A    between atoms: S_3  and  C_1 
REMARK    2  A    between atoms: C_7  and  S_3 
REMARK    3  A    between atoms: N_11  and  C_4 
REMARK    4  A    between atoms: C_10  and  C_5 
REMARK    5  A    between atoms: C_24  and  N_11 
ROOT
ATOM      1  C   UNL d   1      61.726  43.730  51.087  0.00  0.00     0.042 A 
ATOM      2  C   UNL d   1      62.438  43.308  51.055  0.00  0.00     0.006 A 
ATOM      3  C   UNL d   1      61.048  43.401  51.397  0.00  0.00     0.006 A 
ATOM      4  C   UNL d   1      61.770  42.194  51.664  0.00  0.00     0.094 A 
ATOM      5  C   UNL d   1      62.457  42.530  51.348  0.00  0.00     0.024 A 
ATOM      6  C   UNL d   1      61.066  42.630  51.688  0.00  0.00     0.024 A 
ATOM      7  O   UNL d   1      61.809  41.409  51.954  0.00  0.00    -0.328 OA
ATOM      8  C   UNL d   1      61.829  40.631  52.247  0.00  0.00     0.181 C 
ENDROOT
BRANCH   1   9
ATOM      9  C   UNL d   1      61.699  44.511  50.794  0.00  0.00     0.186 A 
ATOM     10  N   UNL d   1      61.296  45.118  51.181  0.00  0.00    -0.206 NA
ATOM     11  C   UNL d   1      61.389  45.813  50.733  0.00  0.00     0.224 A 
ATOM     12  C   UNL d   1      61.847  45.623  50.079  0.00  0.00     0.265 A 
ATOM     13  O   UNL d   1      62.045  44.828  50.103  0.00  0.00    -0.260 OA
BRANCH  11  14
ATOM     14  S   UNL d   1      61.132  46.583  50.815  0.00  0.00     0.231 S 
ATOM     15  O   UNL d   1      60.820  46.118  51.518  0.00  0.00    -0.215 OA
ATOM     16  O   UNL d   1      61.416  47.058  50.154  0.00  0.00    -0.215 OA
BRANCH  14  17
ATOM     17  C   UNL d   1      60.867  47.373  50.903  0.00  0.00     0.090 A 
ATOM     18  C   UNL d   1      60.145  47.598  50.604  0.00  0.00     0.012 A 
ATOM     19  C   UNL d   1      59.892  48.373  50.694  0.00  0.00     0.007 A 
ATOM     20  C   UNL d   1      60.368  48.912  51.084  0.00  0.00     0.035 A 
ATOM     21  C   UNL d   1      61.100  48.693  51.390  0.00  0.00     0.007 A 
ATOM     22 BR   UNL d   1      60.112  49.708  51.178  0.00  0.00    -0.049 Br
ATOM     23  C   UNL d   1      61.353  47.918  51.300  0.00  0.00     0.012 A 
ENDBRANCH  14  17
ENDBRANCH  11  14
BRANCH  12  24
ATOM     24  N   UNL d   1      62.056  46.183  49.503  0.00  0.00    -0.373 NA
BRANCH  24  25
ATOM     25  C   UNL d   1      62.451  46.734  49.041  0.00  0.00     0.164 C 
ATOM     26  C   UNL d   1      63.154  47.110  48.829  0.00  0.00     0.037 C 
ENDBRANCH  24  25
ENDBRANCH  12  24
ENDBRANCH   1   9
TORSDOF 5
ENDMDL
MODEL 2
REMARK VINA RESULT:     122.7      1.190      1.934
REMARK  5 active torsions:
REMARK  status: ('A' for Active; 'I' for Inactive)
REMARK    1  A    between atoms: S_3  and  C_1 
REMARK    2  A    between atoms: C_7  and  S_3 
REMARK    3  A    between atoms: N_11  and  C_4 
REMARK    4  A    between atoms: C_10  and  C_5 
REMARK    5  A    between atoms: C_24  and  N_11 
ROOT
ATOM      1  C   UNL d   1      61.490  43.545  51.114  0.00  0.00     0.042 A 
ATOM      2  C   UNL d   1      61.492  43.103  51.815  0.00  0.00     0.006 A 
ATOM      3  C   UNL d   1      61.889  43.295  50.449  0.00  0.00     0.006 A 
ATOM      4  C   UNL d   1      62.319  42.130  51.162  0.00  0.00     0.094 A 
ATOM      5  C   UNL d   1      61.913  42.386  51.835  0.00  0.00     0.024 A 
ATOM      6  C   UNL d   1      62.307  42.584  50.469  0.00  0.00     0.024 A 
ATOM      7  O   UNL d   1      62.737  41.405  51.202  0.00  0.00    -0.328 OA
ATOM      8  C   UNL d   1      63.158  40.688  51.223  0.00  0.00     0.181 C 
ENDROOT
BRANCH   1   9
ATOM      9  C   UNL d   1      61.070  44.266  51.086  0.00  0.00     0.186 A 
ATOM     10  N   UNL d   1      61.444  45.000  51.070  0.00  0.00    -0.206 NA
ATOM     11  C   UNL d   1      60.856  45.588  51.043  0.00  0.00     0.224 A 
ATOM     12  C   UNL d   1      60.130  45.206  51.043  0.00  0.00     0.265 A 
ATOM     13  O   UNL d   1      60.245  44.395  51.069  0.00  0.00    -0.260 OA
BRANCH  11  14
ATOM     14  S   UNL d   1      60.865  46.404  51.019  0.00  0.00     0.231 S 
ATOM     15  O   UNL d   1      61.081  46.107  50.199  0.00  0.00    -0.215 OA
ATOM     16  O   UNL d   1      60.662  46.721  51.794  0.00  0.00    -0.215 OA
BRANCH  14  17
ATOM     17  C   UNL d   1      60.876  47.241  50.990  0.00  0.00     0.090 A 
ATOM     18  C   UNL d   1      60.771  47.676  51.668  0.00  0.00     0.012 A 
ATOM     19  C   UNL d   1      60.782  48.495  51.632  0.00  0.00     0.007 A 
ATOM     20  C   UNL d   1      60.899  48.866  50.914  0.00  0.00     0.035 A 
ATOM     21  C   UNL d   1      61.006  48.435  50.221  0.00  0.00     0.007 A 
ATOM     22 BR   UNL d   1      60.911  49.707  50.872  0.00  0.00    -0.049 Br
ATOM     23  C   UNL d   1      60.994  47.615  50.257  0.00  0.00     0.012 A 
ENDBRANCH  14  17
ENDBRANCH  11  14
BRANCH  12  24
ATOM     24  N   UNL d   1      59.409  45.619  51.019  0.00  0.00    -0.373 NA
BRANCH  24  25
ATOM     25  C   UNL d   1      58.623  45.844  51.087  0.00  0.00     0.164 C 
ATOM     26  C   UNL d   1      57.829  45.713  50.909  0.00  0.00     0.037 C 
ENDBRANCH  24  25
ENDBRANCH  12  24
ENDBRANCH   1   9
TORSDOF 5
ENDMDL
