MODEL 1
REMARK VINA RESULT:      64.9      0.000      0.000
REMARK  3 active torsions:
REMARK  status: ('A' for Active; 'I' for Inactive)
REMARK       I    between atoms: C_6  and  N_7 
REMARK    1  A    between atoms: C_9  and  C_6 
REMARK    2  A    between atoms: N_7  and  C_13 
REMARK    3  A    between atoms: C_15  and  C_14 
ROOT
ATOM      1  C   UNL d   1      61.233  49.049  52.035  0.00  0.00     0.279 C 
ATOM      2  N   UNL d   1      60.758  49.708  51.920  0.00  0.00    -0.208 NA
ATOM      3  O   UNL d   1      61.792  49.054  52.636  0.00  0.00    -0.265 OA
ENDROOT
BRANCH   2   4
ATOM      4  C   UNL d   1      60.195  49.707  51.316  0.00  0.00     0.085 A 
ATOM      5  C   UNL d   1      59.399  49.706  51.510  0.00  0.00     0.024 A 
ATOM      6  C   UNL d   1      58.836  49.706  50.907  0.00  0.00     0.064 A 
ATOM      7  C   UNL d   1      58.007  49.705  50.928  0.00  0.00     0.282 A 
ATOM      8  C   UNL d   1      59.060  49.706  50.120  0.00  0.00     0.063 A 
ATOM      9  N   UNL d   1      57.735  49.704  50.153  0.00  0.00    -0.169 NA
ATOM     10  O   UNL d   1      57.525  49.704  51.594  0.00  0.00    -0.265 OA
ATOM     11  C   UNL d   1      58.385  49.705  49.655  0.00  0.00     0.282 A 
ATOM     12  O   UNL d   1      58.371  49.706  48.832  0.00  0.00    -0.265 OA
ATOM     13  C   UNL d   1      59.863  49.707  49.927  0.00  0.00     0.006 A 
ATOM     14  C   UNL d   1      60.432  49.708  50.523  0.00  0.00     0.019 A 
ENDBRANCH   2   4
BRANCH   1  15
ATOM     15  C   UNL d   1      61.155  48.393  51.559  0.00  0.00     0.058 A 
ATOM     16  C   UNL d   1      60.620  47.801  51.750  0.00  0.00     0.005 A 
ATOM     17  C   UNL d   1      60.546  47.138  51.261  0.00  0.00     0.003 A 
ATOM     18  C   UNL d   1      61.009  47.070  50.582  0.00  0.00     0.039 A 
ATOM     19  C   UNL d   1      61.547  47.666  50.391  0.00  0.00     0.003 A 
ATOM     20  C   UNL d   1      61.620  48.330  50.880  0.00  0.00     0.005 A 
BRANCH  18  21
ATOM     21  C   UNL d   1      60.936  46.407  50.093  0.00  0.00     0.196 C 
ATOM     22  O   UNL d   1      60.705  45.683  50.412  0.00  0.00    -0.287 OA
ATOM     23  C   UNL d   1      61.094  46.473  49.285  0.00  0.00     0.045 C 
ENDBRANCH  18  21
ENDBRANCH   1  15
TORSDOF 3
ENDMDL
