MODEL 1
REMARK VINA RESULT:      -3.0      0.000      0.000
REMARK  4 active torsions:
REMARK  status: ('A' for Active; 'I' for Inactive)
REMARK    1  A    between atoms: C_10  and  C_3 
REMARK       I    between atoms: N_11  and  C_10 
REMARK    2  A    between atoms: C_15  and  N_11 
REMARK    3  A    between atoms: C_17  and  C_15 
REMARK    4  A    between atoms: O_25  and  C_18 
ROOT
ATOM      1  C   UNL d   1      32.853  18.679 -23.340  0.00  0.00     0.071 A 
ATOM      2  C   UNL d   1      33.002  19.261 -23.937  0.00  0.00     0.142 A 
ATOM      3  C   UNL d   1      32.784  17.943 -23.707  0.00  0.00     0.086 A 
ATOM      4  C   UNL d   1      32.801  18.903 -22.556  0.00  0.00     0.198 A 
ATOM      5  O   UNL d   1      33.026  18.883 -24.671  0.00  0.00    -0.304 OA
ATOM      6  C   UNL d   1      32.890  18.073 -24.516  0.00  0.00     0.105 A 
ATOM      7  C   UNL d   1      33.093  20.040 -23.721  0.00  0.00     0.218 A 
ATOM      8  C   UNL d   1      32.894  19.695 -22.339  0.00  0.00     0.042 A 
ATOM      9  C   UNL d   1      33.044  20.277 -22.936  0.00  0.00     0.044 A 
ATOM     10  O   UNL d   1      32.655  18.335 -21.973  0.00  0.00    -0.286 OA
ATOM     11  O   UNL d   1      33.239  20.608 -24.304  0.00  0.00    -0.284 OA
ATOM     12  C   UNL d   1      32.866  17.485 -25.097  0.00  0.00     0.027 C 
ATOM     13  C   UNL d   1      32.843  19.913 -21.561  0.00  0.00     0.003 A 
ATOM     14  C   UNL d   1      33.135  21.049 -22.726  0.00  0.00     0.003 A 
ATOM     15  C   UNL d   1      32.936  20.715 -21.334  0.00  0.00     0.000 A 
ATOM     16  C   UNL d   1      33.085  21.297 -21.931  0.00  0.00     0.000 A 
ENDROOT
BRANCH   3  17
ATOM     17  C   UNL d   1      32.638  17.205 -23.351  0.00  0.00     0.281 C 
ATOM     18  N   UNL d   1      31.900  16.866 -23.422  0.00  0.00    -0.206 NA
ATOM     19  O   UNL d   1      33.241  16.841 -22.940  0.00  0.00    -0.265 OA
BRANCH  18  20
ATOM     20  C   UNL d   1      31.321  17.237 -23.829  0.00  0.00     0.102 C 
BRANCH  20  21
ATOM     21  C   UNL d   1      30.570  16.898 -23.851  0.00  0.00     0.019 A 
ATOM     22  C   UNL d   1      30.444  16.149 -23.535  0.00  0.00     0.004 A 
ATOM     23  C   UNL d   1      29.708  15.800 -23.548  0.00  0.00     0.024 A 
ATOM     24  C   UNL d   1      29.078  16.186 -23.876  0.00  0.00     0.094 A 
ATOM     25  C   UNL d   1      29.193  16.949 -24.201  0.00  0.00     0.024 A 
ATOM     26  C   UNL d   1      29.936  17.282 -24.178  0.00  0.00     0.004 A 
BRANCH  24  27
ATOM     27  O   UNL d   1      28.334  15.805 -23.876  0.00  0.00    -0.328 OA
ATOM     28  C   UNL d   1      27.811  15.967 -23.287  0.00  0.00     0.181 C 
ENDBRANCH  24  27
ENDBRANCH  20  21
ENDBRANCH  18  20
ENDBRANCH   3  17
TORSDOF 4
ENDMDL
MODEL 2
REMARK VINA RESULT:      -0.9      0.880      1.713
REMARK  4 active torsions:
REMARK  status: ('A' for Active; 'I' for Inactive)
REMARK    1  A    between atoms: C_10  and  C_3 
REMARK       I    between atoms: N_11  and  C_10 
REMARK    2  A    between atoms: C_15  and  N_11 
REMARK    3  A    between atoms: C_17  and  C_15 
REMARK    4  A    between atoms: O_25  and  C_18 
ROOT
ATOM      1  C   UNL d   1      32.872  19.236 -23.082  0.00  0.00     0.071 A 
ATOM      2  C   UNL d   1      33.037  19.046 -22.274  0.00  0.00     0.142 A 
ATOM      3  C   UNL d   1      32.861  18.535 -23.517  0.00  0.00     0.086 A 
ATOM      4  C   UNL d   1      32.757  20.015 -23.303  0.00  0.00     0.198 A 
ATOM      5  O   UNL d   1      33.127  18.228 -22.211  0.00  0.00    -0.304 OA
ATOM      6  C   UNL d   1      33.016  17.925 -22.981  0.00  0.00     0.105 A 
ATOM      7  C   UNL d   1      33.079  19.644 -21.724  0.00  0.00     0.218 A 
ATOM      8  C   UNL d   1      32.801  20.620 -22.742  0.00  0.00     0.042 A 
ATOM      9  C   UNL d   1      32.966  20.430 -21.934  0.00  0.00     0.044 A 
ATOM     10  O   UNL d   1      32.596  20.201 -24.093  0.00  0.00    -0.286 OA
ATOM     11  O   UNL d   1      33.241  19.458 -20.934  0.00  0.00    -0.284 OA
ATOM     12  C   UNL d   1      33.058  17.123 -23.178  0.00  0.00     0.027 C 
ATOM     13  C   UNL d   1      32.686  21.391 -22.965  0.00  0.00     0.003 A 
ATOM     14  C   UNL d   1      33.009  21.019 -21.386  0.00  0.00     0.003 A 
ATOM     15  C   UNL d   1      32.729  22.010 -22.401  0.00  0.00     0.000 A 
ATOM     16  C   UNL d   1      32.894  21.820 -21.592  0.00  0.00     0.000 A 
ENDROOT
BRANCH   3  17
ATOM     17  C   UNL d   1      32.722  18.439 -24.332  0.00  0.00     0.281 C 
ATOM     18  N   UNL d   1      32.075  18.010 -24.580  0.00  0.00    -0.206 NA
ATOM     19  O   UNL d   1      33.241  18.780 -24.861  0.00  0.00    -0.265 OA
BRANCH  18  20
ATOM     20  C   UNL d   1      31.578  17.683 -24.048  0.00  0.00     0.102 C 
BRANCH  20  21
ATOM     21  C   UNL d   1      30.898  17.303 -24.319  0.00  0.00     0.019 A 
ATOM     22  C   UNL d   1      30.154  17.588 -24.116  0.00  0.00     0.004 A 
ATOM     23  C   UNL d   1      29.473  17.225 -24.375  0.00  0.00     0.024 A 
ATOM     24  C   UNL d   1      29.514  16.567 -24.844  0.00  0.00     0.094 A 
ATOM     25  C   UNL d   1      30.265  16.266 -25.058  0.00  0.00     0.024 A 
ATOM     26  C   UNL d   1      30.935  16.644 -24.788  0.00  0.00     0.004 A 
BRANCH  24  27
ATOM     27  O   UNL d   1      28.800  16.213 -25.096  0.00  0.00    -0.328 OA
ATOM     28  C   UNL d   1      28.343  15.827 -24.559  0.00  0.00     0.181 C 
ENDBRANCH  24  27
ENDBRANCH  20  21
ENDBRANCH  18  20
ENDBRANCH   3  17
TORSDOF 4
ENDMDL
