MODEL 1
REMARK VINA RESULT:      -7.0      0.000      0.000
REMARK  5 active torsions:
REMARK  status: ('A' for Active; 'I' for Inactive)
REMARK    1  A    between atoms: C_2  and  N_1 
REMARK    2  A    between atoms: N_5  and  C_3 
REMARK       I    between atoms: C_4  and  N_5 
REMARK       I    between atoms: N_9  and  C_4 
REMARK    3  A    between atoms: O_11  and  N_9 
REMARK    4  A    between atoms: C_13  and  O_11 
REMARK    5  A    between atoms: C_14  and  C_13 
ROOT
ATOM      1  C   UNL d   1     -48.360  13.149  22.655  0.00  0.00     0.156 A 
ATOM      2  C   UNL d   1     -47.609  13.438  22.836  0.00  0.00     0.160 A 
ATOM      3  C   UNL d   1     -48.967  13.667  22.472  0.00  0.00     0.026 A 
ATOM      4  C   UNL d   1     -47.467  14.260  22.833  0.00  0.00     0.034 A 
ATOM      5  C   UNL d   1     -48.828  14.484  22.470  0.00  0.00     0.002 A 
ATOM      6  C   UNL d   1     -48.071  14.774  22.652  0.00  0.00     0.003 A 
ENDROOT
BRANCH   2   7
ATOM      7  N   UNL d   1     -46.994  12.915  23.020  0.00  0.00    -0.335 NA
ATOM      8  C   UNL d   1     -46.383  12.394  23.203  0.00  0.00     0.499 C 
ATOM      9  O   UNL d   1     -45.937  13.026  23.475  0.00  0.00    -0.211 OA
ATOM     10  N   UNL d   1     -45.774  11.875  23.386  0.00  0.00    -0.199 NA
BRANCH  10  11
ATOM     11  O   UNL d   1     -45.160  11.352  23.570  0.00  0.00    -0.156 OA
BRANCH  11  12
ATOM     12  C   UNL d   1     -45.111  10.536  23.696  0.00  0.00     0.163 C 
BRANCH  12  13
ATOM     13  C   UNL d   1     -44.312  10.561  23.510  0.00  0.00     0.030 C 
ATOM     14  C   UNL d   1     -44.243   9.766  23.698  0.00  0.00     0.002 C 
ENDBRANCH  12  13
ENDBRANCH  11  12
ENDBRANCH  10  11
ENDBRANCH   2   7
BRANCH   1  15
ATOM     15  N   UNL d   1     -48.498  12.332  22.658  0.00  0.00    -0.111 N 
ATOM     16  O   UNL d   1     -48.394  11.881  21.975  0.00  0.00    -0.532 OA
ATOM     17  O   UNL d   1     -48.747  11.963  23.365  0.00  0.00    -0.532 OA
ENDBRANCH   1  15
TORSDOF 5
ENDMDL
MODEL 2
REMARK VINA RESULT:      -6.0      1.537      4.458
REMARK  5 active torsions:
REMARK  status: ('A' for Active; 'I' for Inactive)
REMARK    1  A    between atoms: C_2  and  N_1 
REMARK    2  A    between atoms: N_5  and  C_3 
REMARK       I    between atoms: C_4  and  N_5 
REMARK       I    between atoms: N_9  and  C_4 
REMARK    3  A    between atoms: O_11  and  N_9 
REMARK    4  A    between atoms: C_13  and  O_11 
REMARK    5  A    between atoms: C_14  and  C_13 
ROOT
ATOM      1  C   UNL d   1     -46.515  12.613  23.146  0.00  0.00     0.156 A 
ATOM      2  C   UNL d   1     -47.275  12.398  23.384  0.00  0.00     0.160 A 
ATOM      3  C   UNL d   1     -45.904  12.069  23.180  0.00  0.00     0.026 A 
ATOM      4  C   UNL d   1     -47.423  11.626  23.660  0.00  0.00     0.034 A 
ATOM      5  C   UNL d   1     -46.049  11.300  23.455  0.00  0.00     0.002 A 
ATOM      6  C   UNL d   1     -46.815  11.085  23.694  0.00  0.00     0.003 A 
ENDROOT
BRANCH   2   7
ATOM      7  N   UNL d   1     -47.893  12.948  23.350  0.00  0.00    -0.335 NA
ATOM      8  C   UNL d   1     -48.508  13.496  23.315  0.00  0.00     0.499 C 
ATOM      9  O   UNL d   1     -49.047  12.882  23.391  0.00  0.00    -0.211 OA
ATOM     10  N   UNL d   1     -49.120  14.040  23.281  0.00  0.00    -0.199 NA
BRANCH  10  11
ATOM     11  O   UNL d   1     -49.738  14.590  23.247  0.00  0.00    -0.156 OA
BRANCH  11  12
ATOM     12  C   UNL d   1     -49.928  15.277  23.666  0.00  0.00     0.163 C 
BRANCH  12  13
ATOM     13  C   UNL d   1     -50.551  15.412  23.151  0.00  0.00     0.030 C 
ATOM     14  C   UNL d   1     -50.893  15.919  23.698  0.00  0.00     0.002 C 
ENDBRANCH  12  13
ENDBRANCH  11  12
ENDBRANCH  10  11
ENDBRANCH   2   7
BRANCH   1  15
ATOM     15  N   UNL d   1     -46.371  13.382  22.872  0.00  0.00    -0.111 N 
ATOM     16  O   UNL d   1     -46.455  13.571  22.074  0.00  0.00    -0.532 OA
ATOM     17  O   UNL d   1     -46.138  13.972  23.417  0.00  0.00    -0.532 OA
ENDBRANCH   1  15
TORSDOF 5
ENDMDL
MODEL 3
REMARK VINA RESULT:      -5.9      1.816      2.382
REMARK  5 active torsions:
REMARK  status: ('A' for Active; 'I' for Inactive)
REMARK    1  A    between atoms: C_2  and  N_1 
REMARK    2  A    between atoms: N_5  and  C_3 
REMARK       I    between atoms: C_4  and  N_5 
REMARK       I    between atoms: N_9  and  C_4 
REMARK    3  A    between atoms: O_11  and  N_9 
REMARK    4  A    between atoms: C_13  and  O_11 
REMARK    5  A    between atoms: C_14  and  C_13 
ROOT
ATOM      1  C   UNL d   1     -49.839  12.353  23.235  0.00  0.00     0.156 A 
ATOM      2  C   UNL d   1     -49.479  13.095  23.231  0.00  0.00     0.160 A 
ATOM      3  C   UNL d   1     -50.627  12.279  23.446  0.00  0.00     0.026 A 
ATOM      4  C   UNL d   1     -49.917  13.772  23.442  0.00  0.00     0.034 A 
ATOM      5  C   UNL d   1     -51.064  12.952  23.657  0.00  0.00     0.002 A 
ATOM      6  C   UNL d   1     -50.700  13.699  23.652  0.00  0.00     0.003 A 
ENDROOT
BRANCH   2   7
ATOM      7  N   UNL d   1     -48.682  13.169  23.018  0.00  0.00    -0.335 NA
ATOM      8  C   UNL d   1     -47.889  13.243  22.805  0.00  0.00     0.499 C 
ATOM      9  O   UNL d   1     -47.980  14.058  22.787  0.00  0.00    -0.211 OA
ATOM     10  N   UNL d   1     -47.100  13.317  22.594  0.00  0.00    -0.199 NA
BRANCH  10  11
ATOM     11  O   UNL d   1     -46.304  13.392  22.381  0.00  0.00    -0.156 OA
BRANCH  11  12
ATOM     12  C   UNL d   1     -45.700  12.858  22.199  0.00  0.00     0.163 C 
BRANCH  12  13
ATOM     13  C   UNL d   1     -45.165  13.479  22.180  0.00  0.00     0.030 C 
ATOM     14  C   UNL d   1     -44.620  12.998  21.799  0.00  0.00     0.002 C 
ENDBRANCH  12  13
ENDBRANCH  11  12
ENDBRANCH  10  11
ENDBRANCH   2   7
BRANCH   1  15
ATOM     15  N   UNL d   1     -49.402  11.681  23.025  0.00  0.00    -0.111 N 
ATOM     16  O   UNL d   1     -49.331  11.450  22.237  0.00  0.00    -0.532 OA
ATOM     17  O   UNL d   1     -49.028  11.234  23.624  0.00  0.00    -0.532 OA
ENDBRANCH   1  15
TORSDOF 5
ENDMDL
MODEL 4
REMARK VINA RESULT:      -5.8      1.733      2.385
REMARK  5 active torsions:
REMARK  status: ('A' for Active; 'I' for Inactive)
REMARK    1  A    between atoms: C_2  and  N_1 
REMARK    2  A    between atoms: N_5  and  C_3 
REMARK       I    between atoms: C_4  and  N_5 
REMARK       I    between atoms: N_9  and  C_4 
REMARK    3  A    between atoms: O_11  and  N_9 
REMARK    4  A    between atoms: C_13  and  O_11 
REMARK    5  A    between atoms: C_14  and  C_13 
ROOT
ATOM      1  C   UNL d   1     -49.654  12.717  22.479  0.00  0.00     0.156 A 
ATOM      2  C   UNL d   1     -49.127  12.356  23.001  0.00  0.00     0.160 A 
ATOM      3  C   UNL d   1     -50.460  12.602  22.561  0.00  0.00     0.026 A 
ATOM      4  C   UNL d   1     -49.416  11.872  23.615  0.00  0.00     0.034 A 
ATOM      5  C   UNL d   1     -50.749  12.121  23.171  0.00  0.00     0.002 A 
ATOM      6  C   UNL d   1     -50.218  11.757  23.697  0.00  0.00     0.003 A 
ENDROOT
BRANCH   2   7
ATOM      7  N   UNL d   1     -48.312  12.473  22.918  0.00  0.00    -0.335 NA
ATOM      8  C   UNL d   1     -47.500  12.589  22.834  0.00  0.00     0.499 C 
ATOM      9  O   UNL d   1     -47.383  12.227  23.561  0.00  0.00    -0.211 OA
ATOM     10  N   UNL d   1     -46.693  12.704  22.752  0.00  0.00    -0.199 NA
BRANCH  10  11
ATOM     11  O   UNL d   1     -45.877  12.821  22.668  0.00  0.00    -0.156 OA
BRANCH  11  12
ATOM     12  C   UNL d   1     -45.402  13.229  22.129  0.00  0.00     0.163 C 
BRANCH  12  13
ATOM     13  C   UNL d   1     -44.806  12.677  22.245  0.00  0.00     0.030 C 
ATOM     14  C   UNL d   1     -44.357  13.040  21.663  0.00  0.00     0.002 C 
ENDBRANCH  12  13
ENDBRANCH  11  12
ENDBRANCH  10  11
ENDBRANCH   2   7
BRANCH   1  15
ATOM     15  N   UNL d   1     -49.364  13.198  21.869  0.00  0.00    -0.111 N 
ATOM     16  O   UNL d   1     -49.163  12.879  21.136  0.00  0.00    -0.532 OA
ATOM     17  O   UNL d   1     -49.275  14.018  22.004  0.00  0.00    -0.532 OA
ENDBRANCH   1  15
TORSDOF 5
ENDMDL
MODEL 5
REMARK VINA RESULT:      -4.8      8.015      8.586
REMARK  5 active torsions:
REMARK  status: ('A' for Active; 'I' for Inactive)
REMARK    1  A    between atoms: C_2  and  N_1 
REMARK    2  A    between atoms: N_5  and  C_3 
REMARK       I    between atoms: C_4  and  N_5 
REMARK       I    between atoms: N_9  and  C_4 
REMARK    3  A    between atoms: O_11  and  N_9 
REMARK    4  A    between atoms: C_13  and  O_11 
REMARK    5  A    between atoms: C_14  and  C_13 
ROOT
ATOM      1  C   UNL d   1     -40.086  14.676  17.687  0.00  0.00     0.156 A 
ATOM      2  C   UNL d   1     -40.388  15.040  18.363  0.00  0.00     0.160 A 
ATOM      3  C   UNL d   1     -40.329  14.918  16.944  0.00  0.00     0.026 A 
ATOM      4  C   UNL d   1     -40.944  15.658  18.289  0.00  0.00     0.034 A 
ATOM      5  C   UNL d   1     -40.882  15.531  16.869  0.00  0.00     0.002 A 
ATOM      6  C   UNL d   1     -41.186  15.898  17.550  0.00  0.00     0.003 A 
ENDROOT
BRANCH   2   7
ATOM      7  N   UNL d   1     -40.142  14.795  19.114  0.00  0.00    -0.335 NA
ATOM      8  C   UNL d   1     -39.897  14.552  19.862  0.00  0.00     0.499 C 
ATOM      9  O   UNL d   1     -40.430  15.077  20.198  0.00  0.00    -0.211 OA
ATOM     10  N   UNL d   1     -39.653  14.309  20.606  0.00  0.00    -0.199 NA
BRANCH  10  11
ATOM     11  O   UNL d   1     -39.407  14.064  21.358  0.00  0.00    -0.156 OA
BRANCH  11  12
ATOM     12  C   UNL d   1     -38.759  13.639  21.646  0.00  0.00     0.163 C 
BRANCH  12  13
ATOM     13  C   UNL d   1     -39.097  13.643  22.394  0.00  0.00     0.030 C 
ATOM     14  C   UNL d   1     -38.435  13.264  22.695  0.00  0.00     0.002 C 
ENDBRANCH  12  13
ENDBRANCH  11  12
ENDBRANCH  10  11
ENDBRANCH   2   7
BRANCH   1  15
ATOM     15  N   UNL d   1     -39.533  14.062  17.763  0.00  0.00    -0.111 N 
ATOM     16  O   UNL d   1     -38.725  14.220  17.798  0.00  0.00    -0.532 OA
ATOM     17  O   UNL d   1     -39.805  13.272  17.805  0.00  0.00    -0.532 OA
ENDBRANCH   1  15
TORSDOF 5
ENDMDL
MODEL 6
REMARK VINA RESULT:      -4.5      8.362      9.092
REMARK  5 active torsions:
REMARK  status: ('A' for Active; 'I' for Inactive)
REMARK    1  A    between atoms: C_2  and  N_1 
REMARK    2  A    between atoms: N_5  and  C_3 
REMARK       I    between atoms: C_4  and  N_5 
REMARK       I    between atoms: N_9  and  C_4 
REMARK    3  A    between atoms: O_11  and  N_9 
REMARK    4  A    between atoms: C_13  and  O_11 
REMARK    5  A    between atoms: C_14  and  C_13 
ROOT
ATOM      1  C   UNL d   1     -39.918  14.557  17.786  0.00  0.00     0.156 A 
ATOM      2  C   UNL d   1     -39.148  14.395  18.034  0.00  0.00     0.160 A 
ATOM      3  C   UNL d   1     -40.066  14.759  17.006  0.00  0.00     0.026 A 
ATOM      4  C   UNL d   1     -38.519  14.437  17.489  0.00  0.00     0.034 A 
ATOM      5  C   UNL d   1     -39.441  14.801  16.464  0.00  0.00     0.002 A 
ATOM      6  C   UNL d   1     -38.666  14.638  16.714  0.00  0.00     0.003 A 
ENDROOT
BRANCH   2   7
ATOM      7  N   UNL d   1     -38.999  14.191  18.822  0.00  0.00    -0.335 NA
ATOM      8  C   UNL d   1     -38.850  13.988  19.607  0.00  0.00     0.499 C 
ATOM      9  O   UNL d   1     -38.071  13.826  19.408  0.00  0.00    -0.211 OA
ATOM     10  N   UNL d   1     -38.702  13.786  20.388  0.00  0.00    -0.199 NA
BRANCH  10  11
ATOM     11  O   UNL d   1     -38.552  13.582  21.176  0.00  0.00    -0.156 OA
BRANCH  11  12
ATOM     12  C   UNL d   1     -38.956  13.689  21.889  0.00  0.00     0.163 C 
BRANCH  12  13
ATOM     13  C   UNL d   1     -38.365  13.273  22.278  0.00  0.00     0.030 C 
ATOM     14  C   UNL d   1     -38.733  13.424  22.996  0.00  0.00     0.002 C 
ENDBRANCH  12  13
ENDBRANCH  11  12
ENDBRANCH  10  11
ENDBRANCH   2   7
BRANCH   1  15
ATOM     15  N   UNL d   1     -40.543  14.515  18.329  0.00  0.00    -0.111 N 
ATOM     16  O   UNL d   1     -40.738  15.160  18.803  0.00  0.00    -0.532 OA
ATOM     17  O   UNL d   1     -40.980  13.805  18.394  0.00  0.00    -0.532 OA
ENDBRANCH   1  15
TORSDOF 5
ENDMDL
MODEL 7
REMARK VINA RESULT:      -4.4      8.834     10.085
REMARK  5 active torsions:
REMARK  status: ('A' for Active; 'I' for Inactive)
REMARK    1  A    between atoms: C_2  and  N_1 
REMARK    2  A    between atoms: N_5  and  C_3 
REMARK       I    between atoms: C_4  and  N_5 
REMARK       I    between atoms: N_9  and  C_4 
REMARK    3  A    between atoms: O_11  and  N_9 
REMARK    4  A    between atoms: C_13  and  O_11 
REMARK    5  A    between atoms: C_14  and  C_13 
ROOT
ATOM      1  C   UNL d   1     -38.460  13.542  16.953  0.00  0.00     0.156 A 
ATOM      2  C   UNL d   1     -38.769  14.306  16.918  0.00  0.00     0.160 A 
ATOM      3  C   UNL d   1     -38.047  13.235  16.315  0.00  0.00     0.026 A 
ATOM      4  C   UNL d   1     -38.661  14.768  16.233  0.00  0.00     0.034 A 
ATOM      5  C   UNL d   1     -37.940  13.693  15.633  0.00  0.00     0.002 A 
ATOM      6  C   UNL d   1     -38.251  14.463  15.599  0.00  0.00     0.003 A 
ENDROOT
BRANCH   2   7
ATOM      7  N   UNL d   1     -39.186  14.616  17.563  0.00  0.00    -0.335 NA
ATOM      8  C   UNL d   1     -39.600  14.925  18.205  0.00  0.00     0.499 C 
ATOM      9  O   UNL d   1     -39.856  15.543  17.730  0.00  0.00    -0.211 OA
ATOM     10  N   UNL d   1     -40.013  15.232  18.843  0.00  0.00    -0.199 NA
BRANCH  10  11
ATOM     11  O   UNL d   1     -40.430  15.542  19.488  0.00  0.00    -0.156 OA
BRANCH  11  12
ATOM     12  C   UNL d   1     -40.818  15.214  20.140  0.00  0.00     0.163 C 
BRANCH  12  13
ATOM     13  C   UNL d   1     -40.725  15.922  20.544  0.00  0.00     0.030 C 
ATOM     14  C   UNL d   1     -41.356  15.727  21.031  0.00  0.00     0.002 C 
ENDBRANCH  12  13
ENDBRANCH  11  12
ENDBRANCH  10  11
ENDBRANCH   2   7
BRANCH   1  15
ATOM     15  N   UNL d   1     -38.568  13.085  17.636  0.00  0.00    -0.111 N 
ATOM     16  O   UNL d   1     -38.013  13.094  18.245  0.00  0.00    -0.532 OA
ATOM     17  O   UNL d   1     -39.252  12.609  17.704  0.00  0.00    -0.532 OA
ENDBRANCH   1  15
TORSDOF 5
ENDMDL
MODEL 8
REMARK VINA RESULT:      -4.3      7.656      8.914
REMARK  5 active torsions:
REMARK  status: ('A' for Active; 'I' for Inactive)
REMARK    1  A    between atoms: C_2  and  N_1 
REMARK    2  A    between atoms: N_5  and  C_3 
REMARK       I    between atoms: C_4  and  N_5 
REMARK       I    between atoms: N_9  and  C_4 
REMARK    3  A    between atoms: O_11  and  N_9 
REMARK    4  A    between atoms: C_13  and  O_11 
REMARK    5  A    between atoms: C_14  and  C_13 
ROOT
ATOM      1  C   UNL d   1     -39.616  14.255  21.412  0.00  0.00     0.156 A 
ATOM      2  C   UNL d   1     -39.197  14.100  20.719  0.00  0.00     0.160 A 
ATOM      3  C   UNL d   1     -39.315  14.020  22.137  0.00  0.00     0.026 A 
ATOM      4  C   UNL d   1     -38.465  13.703  20.755  0.00  0.00     0.034 A 
ATOM      5  C   UNL d   1     -38.587  13.625  22.174  0.00  0.00     0.002 A 
ATOM      6  C   UNL d   1     -38.166  13.469  21.475  0.00  0.00     0.003 A 
ENDROOT
BRANCH   2   7
ATOM      7  N   UNL d   1     -39.502  14.338  19.986  0.00  0.00    -0.335 NA
ATOM      8  C   UNL d   1     -39.805  14.574  19.258  0.00  0.00     0.499 C 
ATOM      9  O   UNL d   1     -39.162  14.225  18.887  0.00  0.00    -0.211 OA
ATOM     10  N   UNL d   1     -40.107  14.810  18.532  0.00  0.00    -0.199 NA
BRANCH  10  11
ATOM     11  O   UNL d   1     -40.411  15.047  17.800  0.00  0.00    -0.156 OA
BRANCH  11  12
ATOM     12  C   UNL d   1     -40.951  15.623  17.556  0.00  0.00     0.163 C 
BRANCH  12  13
ATOM     13  C   UNL d   1     -40.943  15.302  16.801  0.00  0.00     0.030 C 
ATOM     14  C   UNL d   1     -41.408  15.922  16.532  0.00  0.00     0.002 C 
ENDBRANCH  12  13
ENDBRANCH  11  12
ENDBRANCH  10  11
ENDBRANCH   2   7
BRANCH   1  15
ATOM     15  N   UNL d   1     -40.344  14.650  21.374  0.00  0.00    -0.111 N 
ATOM     16  O   UNL d   1     -41.047  14.235  21.258  0.00  0.00    -0.532 OA
ATOM     17  O   UNL d   1     -40.361  15.482  21.456  0.00  0.00    -0.532 OA
ENDBRANCH   1  15
TORSDOF 5
ENDMDL
