MODEL 1
REMARK VINA RESULT:      74.9      0.000      0.000
REMARK  5 active torsions:
REMARK  status: ('A' for Active; 'I' for Inactive)
REMARK       I    between atoms: C_8  and  N_1 
REMARK    1  A    between atoms: C_10  and  C_3 
REMARK    2  A    between atoms: C_4  and  S_14 
REMARK    3  A    between atoms: C_15  and  C_6 
REMARK    4  A    between atoms: C_16  and  C_8 
REMARK    5  A    between atoms: S_14  and  C_16 
ROOT
ATOM      1  N   UNL d   1     -54.961-100.715 -43.017  0.00  0.00    -0.195 N 
ATOM      2  N   UNL d   1     -54.919-100.792 -42.217  0.00  0.00    -0.162 NA
ATOM      3  C   UNL d   1     -54.941-101.600 -42.029  0.00  0.00     0.109 A 
ATOM      4  C   UNL d   1     -55.010-101.478 -43.346  0.00  0.00     0.088 A 
ATOM      5  C   UNL d   1     -54.996-102.001 -42.727  0.00  0.00     0.041 A 
ATOM      6  C   UNL d   1     -54.963-100.076 -43.512  0.00  0.00     0.275 C 
ATOM      7  O   UNL d   1     -55.014-100.171 -44.339  0.00  0.00    -0.266 OA
ENDROOT
BRANCH   4   8
ATOM      8  C   UNL d   1     -55.063-101.693 -44.127  0.00  0.00     0.018 A 
ATOM      9  C   UNL d   1     -54.712-101.229 -44.708  0.00  0.00     0.004 A 
ATOM     10  C   UNL d   1     -54.770-101.456 -45.509  0.00  0.00     0.030 A 
ATOM     11  C   UNL d   1     -55.175-102.139 -45.716  0.00  0.00     0.140 A 
ATOM     12  C   UNL d   1     -55.526-102.601 -45.132  0.00  0.00     0.030 A 
ATOM     13  F   UNL d   1     -55.243-102.380 -46.510  0.00  0.00    -0.204 F 
ATOM     14  C   UNL d   1     -55.473-102.383 -44.332  0.00  0.00     0.004 A 
ENDBRANCH   4   8
BRANCH   6  15
ATOM     15  C   UNL d   1     -54.915 -99.304 -43.197  0.00  0.00     0.128 C 
BRANCH  15  16
ATOM     16  S   UNL d   1     -55.606 -98.880 -43.017  0.00  0.00    -0.069 SA
BRANCH  16  17
ATOM     17  C   UNL d   1     -56.244 -98.865 -43.552  0.00  0.00     0.140 A 
ATOM     18  N   UNL d   1     -56.167 -98.799 -44.366  0.00  0.00    -0.232 NA
ATOM     19  C   UNL d   1     -56.926 -98.806 -44.688  0.00  0.00     0.088 A 
ATOM     20  C   UNL d   1     -57.189 -98.756 -45.473  0.00  0.00     0.020 A 
ATOM     21  C   UNL d   1     -57.466 -98.875 -44.077  0.00  0.00     0.049 A 
ATOM     22  C   UNL d   1     -57.998 -98.777 -45.640  0.00  0.00     0.002 A 
ATOM     23  C   UNL d   1     -58.542 -98.848 -45.010  0.00  0.00     0.001 A 
ATOM     24  C   UNL d   1     -58.269 -98.897 -44.236  0.00  0.00     0.008 A 
ATOM     25  S   UNL d   1     -57.045 -98.913 -43.364  0.00  0.00    -0.060 SA
ENDBRANCH  16  17
ENDBRANCH  15  16
ENDBRANCH   6  15
BRANCH   3  26
ATOM     26  C   UNL d   1     -54.910-101.906 -41.262  0.00  0.00     0.049 A 
ATOM     27  S   UNL d   1     -55.030-102.637 -40.924  0.00  0.00    -0.085 SA
ATOM     28  C   UNL d   1     -54.907-102.558 -40.113  0.00  0.00     0.035 A 
ATOM     29  C   UNL d   1     -54.713-101.791 -39.947  0.00  0.00     0.007 A 
ATOM     30  C   UNL d   1     -54.711-101.370 -40.663  0.00  0.00     0.009 A 
ENDBRANCH   3  26
TORSDOF 5
ENDMDL
