MODEL 1
REMARK VINA RESULT:      31.8      0.000      0.000
REMARK  7 active torsions:
REMARK  status: ('A' for Active; 'I' for Inactive)
REMARK    1  A    between atoms: N_2  and  S_1 
REMARK    2  A    between atoms: C_5  and  S_1 
REMARK    3  A    between atoms: C_3  and  N_2 
REMARK    4  A    between atoms: C_4  and  C_3 
REMARK    5  A    between atoms: C_8  and  C_3 
REMARK    6  A    between atoms: C_17  and  C_8 
REMARK    7  A    between atoms: C_9  and  C_10 
ROOT
ATOM      1  S   UNL d   1      15.219  13.007  -0.833  0.00  0.00     0.285 S 
ATOM      2  O   UNL d   1      15.876  13.000  -0.344  0.00  0.00    -0.198 OA
ATOM      3  O   UNL d   1      15.203  12.172  -0.824  0.00  0.00    -0.198 OA
ENDROOT
BRANCH   1   4
ATOM      4  N   UNL d   1      14.563  13.015  -1.321  0.00  0.00    -0.152 NA
BRANCH   4   5
ATOM      5  C   UNL d   1      14.126  12.340  -1.431  0.00  0.00     0.158 C 
BRANCH   5   6
ATOM      6  C   UNL d   1      13.642  12.059  -0.835  0.00  0.00     0.230 C 
ATOM      7  O   UNL d   1      13.913  12.020  -0.071  0.00  0.00    -0.643 OA
ATOM      8  O   UNL d   1      12.874  11.813  -1.011  0.00  0.00    -0.643 OA
ENDBRANCH   5   6
BRANCH   5   9
ATOM      9  C   UNL d   1      14.170  11.935  -2.149  0.00  0.00     0.026 C 
BRANCH   9  10
ATOM     10  C   UNL d   1      13.749  12.203  -2.806  0.00  0.00     0.002 A 
ATOM     11  C   UNL d   1      13.217  12.836  -2.737  0.00  0.00     0.000 A 
ATOM     12  C   UNL d   1      12.799  13.101  -3.393  0.00  0.00     0.000 A 
ATOM     13  C   UNL d   1      12.907  12.738  -4.123  0.00  0.00     0.000 A 
ATOM     14  C   UNL d   1      13.447  12.092  -4.207  0.00  0.00     0.000 A 
ATOM     15  C   UNL d   1      13.857  11.843  -3.532  0.00  0.00     0.000 A 
ENDBRANCH   9  10
ENDBRANCH   5   9
ENDBRANCH   4   5
ENDBRANCH   1   4
BRANCH   1  16
ATOM     16  C   UNL d   1      15.235  13.826  -0.841  0.00  0.00     0.105 A 
ATOM     17  C   UNL d   1      15.358  14.225  -1.552  0.00  0.00     0.013 A 
ATOM     18  C   UNL d   1      15.374  15.044  -1.561  0.00  0.00    -0.004 A 
ATOM     19  C   UNL d   1      15.267  15.463  -0.859  0.00  0.00    -0.023 A 
ATOM     20  C   UNL d   1      15.141  15.064  -0.131  0.00  0.00    -0.004 A 
ATOM     21  C   UNL d   1      15.128  14.245  -0.139  0.00  0.00     0.013 A 
BRANCH  19  22
ATOM     22  C   UNL d   1      15.287  16.289  -0.893  0.00  0.00     0.019 C 
ATOM     23  C   UNL d   1      15.673  16.297  -0.170  0.00  0.00     0.004 C 
ATOM     24  C   UNL d   1      15.309  17.099  -0.923  0.00  0.00     0.004 C 
ATOM     25  C   UNL d   1      14.901  16.269  -1.614  0.00  0.00     0.004 C 
ENDBRANCH  19  22
ENDBRANCH   1  16
TORSDOF 7
ENDMDL
