MODEL 1
REMARK VINA RESULT:      -8.5      0.000      0.000
REMARK  5 active torsions:
REMARK  status: ('A' for Active; 'I' for Inactive)
REMARK    1  A    between atoms: N_4  and  C_1 
REMARK    2  A    between atoms: N_5  and  C_1 
REMARK       I    between atoms: C_2  and  N_3 
REMARK    3  A    between atoms: C_8  and  C_2 
REMARK    4  A    between atoms: N_3  and  N_4 
REMARK    5  A    between atoms: C_9  and  N_5 
ROOT
ATOM      1  N   UNL d   1      52.939  33.275  52.858  0.00  0.00    -0.273 N 
ATOM      2  H   UNL d   1      53.463  33.898  52.763  0.00  0.00     0.189 HD
ENDROOT
BRANCH   1   3
ATOM      3  N   UNL d   1      52.127  33.381  52.707  0.00  0.00    -0.264 N 
ATOM      4  C   UNL d   1      51.849  34.152  52.543  0.00  0.00     0.271 C 
ATOM      5  O   UNL d   1      52.349  34.793  52.527  0.00  0.00    -0.266 OA
ATOM      6  H   UNL d   1      51.623  32.750  52.721  0.00  0.00     0.190 HD
BRANCH   4   7
ATOM      7  C   UNL d   1      51.027  34.266  52.390  0.00  0.00     0.057 A 
ATOM      8  C   UNL d   1      50.727  34.178  51.629  0.00  0.00     0.005 A 
ATOM      9  C   UNL d   1      49.920  34.292  51.487  0.00  0.00     0.000 A 
ATOM     10  C   UNL d   1      49.413  34.494  52.105  0.00  0.00     0.000 A 
ATOM     11  C   UNL d   1      49.716  34.581  52.861  0.00  0.00     0.000 A 
ATOM     12  C   UNL d   1      50.513  34.471  53.016  0.00  0.00     0.005 A 
ENDBRANCH   4   7
ENDBRANCH   1   3
BRANCH   1  13
ATOM     13  C   UNL d   1      53.228  32.540  53.104  0.00  0.00     0.191 C 
ATOM     14  S   UNL d   1      52.727  31.886  53.138  0.00  0.00    -0.039 SA
BRANCH  13  15
ATOM     15  N   UNL d   1      54.029  32.464  53.319  0.00  0.00    -0.331 N 
ATOM     16  H   UNL d   1      54.557  32.095  52.814  0.00  0.00     0.168 HD
BRANCH  15  17
ATOM     17  C   UNL d   1      54.283  32.763  54.042  0.00  0.00     0.058 A 
ATOM     18  C   UNL d   1      54.883  33.334  54.054  0.00  0.00     0.017 A 
ATOM     19  C   UNL d   1      55.140  33.636  54.780  0.00  0.00     0.002 A 
ATOM     20  C   UNL d   1      54.802  33.373  55.485  0.00  0.00     0.000 A 
ATOM     21  C   UNL d   1      54.198  32.798  55.449  0.00  0.00     0.002 A 
ATOM     22  C   UNL d   1      53.944  32.500  54.747  0.00  0.00     0.017 A 
ENDBRANCH  15  17
ENDBRANCH  13  15
ENDBRANCH   1  13
TORSDOF 5
ENDMDL
MODEL 2
REMARK VINA RESULT:      -8.2      2.443      4.631
REMARK  5 active torsions:
REMARK  status: ('A' for Active; 'I' for Inactive)
REMARK    1  A    between atoms: N_4  and  C_1 
REMARK    2  A    between atoms: N_5  and  C_1 
REMARK       I    between atoms: C_2  and  N_3 
REMARK    3  A    between atoms: C_8  and  C_2 
REMARK    4  A    between atoms: N_3  and  N_4 
REMARK    5  A    between atoms: C_9  and  N_5 
ROOT
ATOM      1  N   UNL d   1      53.006  31.861  53.416  0.00  0.00    -0.273 N 
ATOM      2  H   UNL d   1      52.678  31.762  52.671  0.00  0.00     0.189 HD
ENDROOT
BRANCH   1   3
ATOM      3  N   UNL d   1      53.205  31.198  53.880  0.00  0.00    -0.264 N 
ATOM      4  C   UNL d   1      53.003  30.438  53.596  0.00  0.00     0.271 C 
ATOM      5  O   UNL d   1      52.621  30.333  52.886  0.00  0.00    -0.266 OA
ATOM      6  H   UNL d   1      53.584  31.292  54.586  0.00  0.00     0.190 HD
BRANCH   4   7
ATOM      7  C   UNL d   1      53.202  29.763  54.061  0.00  0.00     0.057 A 
ATOM      8  C   UNL d   1      53.708  29.185  53.765  0.00  0.00     0.005 A 
ATOM      9  C   UNL d   1      53.898  28.526  54.226  0.00  0.00     0.000 A 
ATOM     10  C   UNL d   1      53.582  28.442  54.984  0.00  0.00     0.000 A 
ATOM     11  C   UNL d   1      53.079  29.019  55.275  0.00  0.00     0.000 A 
ATOM     12  C   UNL d   1      52.882  29.678  54.828  0.00  0.00     0.005 A 
ENDBRANCH   4   7
ENDBRANCH   1   3
BRANCH   1  13
ATOM     13  C   UNL d   1      53.136  32.626  53.701  0.00  0.00     0.191 C 
ATOM     14  S   UNL d   1      53.893  32.954  53.685  0.00  0.00    -0.039 SA
BRANCH  13  15
ATOM     15  N   UNL d   1      52.497  33.066  54.004  0.00  0.00    -0.331 N 
ATOM     16  H   UNL d   1      52.317  33.033  54.803  0.00  0.00     0.168 HD
BRANCH  15  17
ATOM     17  C   UNL d   1      52.051  33.532  53.495  0.00  0.00     0.058 A 
ATOM     18  C   UNL d   1      51.245  33.366  53.398  0.00  0.00     0.017 A 
ATOM     19  C   UNL d   1      50.793  33.833  52.886  0.00  0.00     0.002 A 
ATOM     20  C   UNL d   1      51.142  34.459  52.476  0.00  0.00     0.000 A 
ATOM     21  C   UNL d   1      51.955  34.609  52.589  0.00  0.00     0.002 A 
ATOM     22  C   UNL d   1      52.399  34.158  53.085  0.00  0.00     0.017 A 
ENDBRANCH  15  17
ENDBRANCH  13  15
ENDBRANCH   1  13
TORSDOF 5
ENDMDL
MODEL 3
REMARK VINA RESULT:      -7.7      1.342      4.770
REMARK  5 active torsions:
REMARK  status: ('A' for Active; 'I' for Inactive)
REMARK    1  A    between atoms: N_4  and  C_1 
REMARK    2  A    between atoms: N_5  and  C_1 
REMARK       I    between atoms: C_2  and  N_3 
REMARK    3  A    between atoms: C_8  and  C_2 
REMARK    4  A    between atoms: N_3  and  N_4 
REMARK    5  A    between atoms: C_9  and  N_5 
ROOT
ATOM      1  N   UNL d   1      51.725  34.609  53.456  0.00  0.00    -0.273 N 
ATOM      2  H   UNL d   1      51.609  35.374  53.725  0.00  0.00     0.189 HD
ENDROOT
BRANCH   1   3
ATOM      3  N   UNL d   1      52.362  34.153  53.741  0.00  0.00    -0.264 N 
ATOM      4  C   UNL d   1      52.861  34.487  54.322  0.00  0.00     0.271 C 
ATOM      5  O   UNL d   1      52.740  35.237  54.613  0.00  0.00    -0.266 OA
ATOM      6  H   UNL d   1      52.490  33.408  53.459  0.00  0.00     0.190 HD
BRANCH   4   7
ATOM      7  C   UNL d   1      53.508  34.032  54.616  0.00  0.00     0.057 A 
ATOM      8  C   UNL d   1      53.404  33.242  54.822  0.00  0.00     0.005 A 
ATOM      9  C   UNL d   1      54.043  32.802  55.109  0.00  0.00     0.000 A 
ATOM     10  C   UNL d   1      54.787  33.151  55.190  0.00  0.00     0.000 A 
ATOM     11  C   UNL d   1      54.885  33.937  54.982  0.00  0.00     0.000 A 
ATOM     12  C   UNL d   1      54.261  34.385  54.697  0.00  0.00     0.005 A 
ENDBRANCH   4   7
ENDBRANCH   1   3
BRANCH   1  13
ATOM     13  C   UNL d   1      51.202  34.294  52.898  0.00  0.00     0.191 C 
ATOM     14  S   UNL d   1      51.452  34.156  52.124  0.00  0.00    -0.039 SA
BRANCH  13  15
ATOM     15  N   UNL d   1      50.419  34.118  53.122  0.00  0.00    -0.331 N 
ATOM     16  H   UNL d   1      50.272  33.534  53.678  0.00  0.00     0.168 HD
BRANCH  15  17
ATOM     17  C   UNL d   1      49.798  34.535  52.780  0.00  0.00     0.058 A 
ATOM     18  C   UNL d   1      49.405  35.111  53.227  0.00  0.00     0.017 A 
ATOM     19  C   UNL d   1      48.780  35.532  52.886  0.00  0.00     0.002 A 
ATOM     20  C   UNL d   1      48.550  35.380  52.108  0.00  0.00     0.000 A 
ATOM     21  C   UNL d   1      48.960  34.795  51.676  0.00  0.00     0.002 A 
ATOM     22  C   UNL d   1      49.568  34.383  52.003  0.00  0.00     0.017 A 
ENDBRANCH  15  17
ENDBRANCH  13  15
ENDBRANCH   1  13
TORSDOF 5
ENDMDL
MODEL 4
REMARK VINA RESULT:      -7.5      2.520      3.458
REMARK  5 active torsions:
REMARK  status: ('A' for Active; 'I' for Inactive)
REMARK    1  A    between atoms: N_4  and  C_1 
REMARK    2  A    between atoms: N_5  and  C_1 
REMARK       I    between atoms: C_2  and  N_3 
REMARK    3  A    between atoms: C_8  and  C_2 
REMARK    4  A    between atoms: N_3  and  N_4 
REMARK    5  A    between atoms: C_9  and  N_5 
ROOT
ATOM      1  N   UNL d   1      53.588  31.545  53.695  0.00  0.00    -0.273 N 
ATOM      2  H   UNL d   1      54.380  31.408  53.853  0.00  0.00     0.189 HD
ENDROOT
BRANCH   1   3
ATOM      3  N   UNL d   1      53.273  32.314  53.754  0.00  0.00    -0.264 N 
ATOM      4  C   UNL d   1      53.785  32.938  53.968  0.00  0.00     0.271 C 
ATOM      5  O   UNL d   1      54.575  32.814  54.117  0.00  0.00    -0.266 OA
ATOM      6  H   UNL d   1      52.490  32.448  53.608  0.00  0.00     0.190 HD
BRANCH   4   7
ATOM      7  C   UNL d   1      53.473  33.720  54.030  0.00  0.00     0.057 A 
ATOM      8  C   UNL d   1      53.161  34.099  53.370  0.00  0.00     0.005 A 
ATOM      9  C   UNL d   1      52.857  34.865  53.439  0.00  0.00     0.000 A 
ATOM     10  C   UNL d   1      52.865  35.253  54.167  0.00  0.00     0.000 A 
ATOM     11  C   UNL d   1      53.176  34.872  54.821  0.00  0.00     0.000 A 
ATOM     12  C   UNL d   1      53.481  34.113  54.768  0.00  0.00     0.005 A 
ENDBRANCH   4   7
ENDBRANCH   1   3
BRANCH   1  13
ATOM     13  C   UNL d   1      53.105  30.910  53.475  0.00  0.00     0.191 C 
ATOM     14  S   UNL d   1      53.022  30.705  52.681  0.00  0.00    -0.039 SA
BRANCH  13  15
ATOM     15  N   UNL d   1      52.702  30.477  54.063  0.00  0.00    -0.331 N 
ATOM     16  H   UNL d   1      51.999  30.761  54.372  0.00  0.00     0.168 HD
BRANCH  15  17
ATOM     17  C   UNL d   1      53.018  29.766  54.327  0.00  0.00     0.058 A 
ATOM     18  C   UNL d   1      53.050  29.616  55.141  0.00  0.00     0.017 A 
ATOM     19  C   UNL d   1      53.367  28.901  55.410  0.00  0.00     0.002 A 
ATOM     20  C   UNL d   1      53.649  28.342  54.873  0.00  0.00     0.000 A 
ATOM     21  C   UNL d   1      53.607  28.513  54.057  0.00  0.00     0.002 A 
ATOM     22  C   UNL d   1      53.299  29.207  53.790  0.00  0.00     0.017 A 
ENDBRANCH  15  17
ENDBRANCH  13  15
ENDBRANCH   1  13
TORSDOF 5
ENDMDL
