MODEL 1
REMARK VINA RESULT:      -9.9      0.000      0.000
REMARK  1 active torsions:
REMARK  status: ('A' for Active; 'I' for Inactive)
REMARK    1  A    between atoms: N_8  and  C_7 
REMARK       I    between atoms: C_11  and  N_8 
ROOT
ATOM      1  N   UNL d   1      53.145  34.029  54.219  0.00  0.00    -0.273 N 
ATOM      2  C   UNL d   1      53.202  33.271  53.897  0.00  0.00     0.067 A 
ATOM      3  C   UNL d   1      52.722  33.056  53.262  0.00  0.00     0.019 A 
ATOM      4  C   UNL d   1      53.734  32.732  54.205  0.00  0.00     0.018 A 
ATOM      5  C   UNL d   1      53.619  34.247  54.849  0.00  0.00     0.265 A 
ATOM      6  C   UNL d   1      52.569  34.435  53.796  0.00  0.00     0.083 A 
ATOM      7  C   UNL d   1      53.318  31.756  53.254  0.00  0.00     0.085 A 
ATOM      8  C   UNL d   1      52.779  32.298  52.940  0.00  0.00     0.021 A 
ATOM      9  C   UNL d   1      53.792  31.975  53.883  0.00  0.00     0.021 A 
ATOM     10  C   UNL d   1      52.242  33.702  53.066  0.00  0.00     0.021 A 
ATOM     11  C   UNL d   1      54.222  32.946  54.846  0.00  0.00     0.006 A 
ATOM     12  C   UNL d   1      54.164  33.703  55.168  0.00  0.00     0.061 A 
ATOM     13  O   UNL d   1      53.562  35.004  55.170  0.00  0.00    -0.267 OA
ENDROOT
BRANCH   7  14
ATOM     14  N   UNL d   1      53.375  31.000  52.932  0.00  0.00    -0.208 NA
ATOM     15  C   UNL d   1      52.858  30.419  53.161  0.00  0.00     0.279 C 
ATOM     16  O   UNL d   1      52.262  30.578  53.724  0.00  0.00    -0.265 OA
ATOM     17  C   UNL d   1      52.912  29.660  52.842  0.00  0.00     0.068 C 
ENDBRANCH   7  14
TORSDOF 1
ENDMDL
MODEL 2
REMARK VINA RESULT:      -9.7      1.485      2.643
REMARK  1 active torsions:
REMARK  status: ('A' for Active; 'I' for Inactive)
REMARK    1  A    between atoms: N_8  and  C_7 
REMARK       I    between atoms: C_11  and  N_8 
ROOT
ATOM      1  N   UNL d   1      53.795  32.926  54.307  0.00  0.00    -0.273 N 
ATOM      2  C   UNL d   1      53.194  33.253  53.846  0.00  0.00     0.067 A 
ATOM      3  C   UNL d   1      52.837  32.801  53.254  0.00  0.00     0.019 A 
ATOM      4  C   UNL d   1      52.949  34.022  53.973  0.00  0.00     0.018 A 
ATOM      5  C   UNL d   1      54.152  33.370  54.895  0.00  0.00     0.265 A 
ATOM      6  C   UNL d   1      53.915  32.155  54.049  0.00  0.00     0.083 A 
ATOM      7  C   UNL d   1      51.991  33.905  52.924  0.00  0.00     0.085 A 
ATOM      8  C   UNL d   1      52.236  33.127  52.794  0.00  0.00     0.021 A 
ATOM      9  C   UNL d   1      52.347  34.348  53.512  0.00  0.00     0.021 A 
ATOM     10  C   UNL d   1      53.190  32.052  53.249  0.00  0.00     0.021 A 
ATOM     11  C   UNL d   1      53.306  34.481  54.569  0.00  0.00     0.006 A 
ATOM     12  C   UNL d   1      53.908  34.155  55.030  0.00  0.00     0.061 A 
ATOM     13  O   UNL d   1      54.754  33.044  55.356  0.00  0.00    -0.267 OA
ENDROOT
BRANCH   7  14
ATOM     14  N   UNL d   1      51.390  34.230  52.464  0.00  0.00    -0.208 NA
ATOM     15  C   UNL d   1      50.614  34.130  52.676  0.00  0.00     0.279 C 
ATOM     16  O   UNL d   1      50.413  33.697  53.362  0.00  0.00    -0.265 OA
ATOM     17  C   UNL d   1      50.009  34.455  52.219  0.00  0.00     0.068 C 
ENDBRANCH   7  14
TORSDOF 1
ENDMDL
MODEL 3
REMARK VINA RESULT:      -9.0      1.065      3.234
REMARK  1 active torsions:
REMARK  status: ('A' for Active; 'I' for Inactive)
REMARK    1  A    between atoms: N_8  and  C_7 
REMARK       I    between atoms: C_11  and  N_8 
ROOT
ATOM      1  N   UNL d   1      52.517  31.113  53.105  0.00  0.00    -0.273 N 
ATOM      2  C   UNL d   1      53.088  31.648  53.367  0.00  0.00     0.067 A 
ATOM      3  C   UNL d   1      52.954  32.459  53.298  0.00  0.00     0.019 A 
ATOM      4  C   UNL d   1      53.786  31.378  53.694  0.00  0.00     0.018 A 
ATOM      5  C   UNL d   1      52.645  30.307  53.171  0.00  0.00     0.265 A 
ATOM      6  C   UNL d   1      51.886  31.548  52.808  0.00  0.00     0.083 A 
ATOM      7  C   UNL d   1      54.229  32.718  53.890  0.00  0.00     0.085 A 
ATOM      8  C   UNL d   1      53.525  32.994  53.560  0.00  0.00     0.021 A 
ATOM      9  C   UNL d   1      54.357  31.913  53.956  0.00  0.00     0.021 A 
ATOM     10  C   UNL d   1      52.211  32.573  52.951  0.00  0.00     0.021 A 
ATOM     11  C   UNL d   1      53.925  30.560  53.766  0.00  0.00     0.006 A 
ATOM     12  C   UNL d   1      53.355  30.024  53.504  0.00  0.00     0.061 A 
ATOM     13  O   UNL d   1      52.074  29.772  52.910  0.00  0.00    -0.267 OA
ENDROOT
BRANCH   7  14
ATOM     14  N   UNL d   1      54.799  33.253  54.151  0.00  0.00    -0.208 NA
ATOM     15  C   UNL d   1      54.822  33.477  54.930  0.00  0.00     0.279 C 
ATOM     16  O   UNL d   1      54.270  33.170  55.477  0.00  0.00    -0.265 OA
ATOM     17  C   UNL d   1      55.391  34.012  55.196  0.00  0.00     0.068 C 
ENDBRANCH   7  14
TORSDOF 1
ENDMDL
MODEL 4
REMARK VINA RESULT:      -8.8      1.432      3.131
REMARK  1 active torsions:
REMARK  status: ('A' for Active; 'I' for Inactive)
REMARK    1  A    between atoms: N_8  and  C_7 
REMARK       I    between atoms: C_11  and  N_8 
ROOT
ATOM      1  N   UNL d   1      53.602  31.851  53.876  0.00  0.00    -0.273 N 
ATOM      2  C   UNL d   1      53.070  32.402  53.571  0.00  0.00     0.067 A 
ATOM      3  C   UNL d   1      53.085  33.182  53.840  0.00  0.00     0.019 A 
ATOM      4  C   UNL d   1      52.526  32.179  53.003  0.00  0.00     0.018 A 
ATOM      5  C   UNL d   1      53.591  31.076  53.613  0.00  0.00     0.265 A 
ATOM      6  C   UNL d   1      54.070  32.238  54.430  0.00  0.00     0.083 A 
ATOM      7  C   UNL d   1      52.005  33.505  52.960  0.00  0.00     0.085 A 
ATOM      8  C   UNL d   1      52.553  33.733  53.534  0.00  0.00     0.021 A 
ATOM      9  C   UNL d   1      51.994  32.730  52.697  0.00  0.00     0.021 A 
ATOM     10  C   UNL d   1      53.683  33.252  54.408  0.00  0.00     0.021 A 
ATOM     11  C   UNL d   1      52.508  31.392  52.729  0.00  0.00     0.006 A 
ATOM     12  C   UNL d   1      53.040  30.841  53.034  0.00  0.00     0.061 A 
ATOM     13  O   UNL d   1      54.124  30.525  53.919  0.00  0.00    -0.267 OA
ENDROOT
BRANCH   7  14
ATOM     14  N   UNL d   1      51.473  34.055  52.655  0.00  0.00    -0.208 NA
ATOM     15  C   UNL d   1      50.712  34.085  52.934  0.00  0.00     0.279 C 
ATOM     16  O   UNL d   1      50.457  33.559  53.531  0.00  0.00    -0.265 OA
ATOM     17  C   UNL d   1      50.176  34.634  52.631  0.00  0.00     0.068 C 
ENDBRANCH   7  14
TORSDOF 1
ENDMDL
MODEL 5
REMARK VINA RESULT:      -8.3      1.537      2.988
REMARK  1 active torsions:
REMARK  status: ('A' for Active; 'I' for Inactive)
REMARK    1  A    between atoms: N_8  and  C_7 
REMARK       I    between atoms: C_11  and  N_8 
ROOT
ATOM      1  N   UNL d   1      51.649  33.120  52.971  0.00  0.00    -0.273 N 
ATOM      2  C   UNL d   1      52.404  33.247  53.278  0.00  0.00     0.067 A 
ATOM      3  C   UNL d   1      52.931  32.616  53.349  0.00  0.00     0.019 A 
ATOM      4  C   UNL d   1      52.633  33.996  53.512  0.00  0.00     0.018 A 
ATOM      5  C   UNL d   1      51.123  33.742  52.898  0.00  0.00     0.265 A 
ATOM      6  C   UNL d   1      51.587  32.321  52.788  0.00  0.00     0.083 A 
ATOM      7  C   UNL d   1      53.915  33.500  53.892  0.00  0.00     0.085 A 
ATOM      8  C   UNL d   1      53.686  32.743  53.656  0.00  0.00     0.021 A 
ATOM      9  C   UNL d   1      53.388  34.123  53.819  0.00  0.00     0.021 A 
ATOM     10  C   UNL d   1      52.558  31.931  53.073  0.00  0.00     0.021 A 
ATOM     11  C   UNL d   1      52.104  34.636  53.442  0.00  0.00     0.006 A 
ATOM     12  C   UNL d   1      51.349  34.509  53.135  0.00  0.00     0.061 A 
ATOM     13  O   UNL d   1      50.368  33.616  52.591  0.00  0.00    -0.267 OA
ENDROOT
BRANCH   7  14
ATOM     14  N   UNL d   1      54.669  33.627  54.199  0.00  0.00    -0.208 NA
ATOM     15  C   UNL d   1      54.796  33.586  54.999  0.00  0.00     0.279 C 
ATOM     16  O   UNL d   1      54.166  33.415  55.521  0.00  0.00    -0.265 OA
ATOM     17  C   UNL d   1      55.549  33.712  55.311  0.00  0.00     0.068 C 
ENDBRANCH   7  14
TORSDOF 1
ENDMDL
MODEL 6
REMARK VINA RESULT:      -8.3      0.971      3.287
REMARK  1 active torsions:
REMARK  status: ('A' for Active; 'I' for Inactive)
REMARK    1  A    between atoms: N_8  and  C_7 
REMARK       I    between atoms: C_11  and  N_8 
ROOT
ATOM      1  N   UNL d   1      52.763  31.822  53.237  0.00  0.00    -0.273 N 
ATOM      2  C   UNL d   1      52.846  32.633  53.366  0.00  0.00     0.067 A 
ATOM      3  C   UNL d   1      52.202  33.136  53.253  0.00  0.00     0.019 A 
ATOM      4  C   UNL d   1      53.564  32.940  53.606  0.00  0.00     0.018 A 
ATOM      5  C   UNL d   1      53.398  31.319  53.347  0.00  0.00     0.265 A 
ATOM      6  C   UNL d   1      51.986  31.687  53.003  0.00  0.00     0.083 A 
ATOM      7  C   UNL d   1      53.012  34.254  53.625  0.00  0.00     0.085 A 
ATOM      8  C   UNL d   1      52.285  33.947  53.382  0.00  0.00     0.021 A 
ATOM      9  C   UNL d   1      53.647  33.751  53.735  0.00  0.00     0.021 A 
ATOM     10  C   UNL d   1      51.553  32.681  53.013  0.00  0.00     0.021 A 
ATOM     11  C   UNL d   1      54.217  32.436  53.722  0.00  0.00     0.006 A 
ATOM     12  C   UNL d   1      54.134  31.625  53.592  0.00  0.00     0.061 A 
ATOM     13  O   UNL d   1      53.315  30.509  53.218  0.00  0.00    -0.267 OA
ENDROOT
BRANCH   7  14
ATOM     14  N   UNL d   1      53.094  35.064  53.754  0.00  0.00    -0.208 NA
ATOM     15  C   UNL d   1      53.100  35.358  54.510  0.00  0.00     0.279 C 
ATOM     16  O   UNL d   1      53.022  34.846  55.165  0.00  0.00    -0.265 OA
ATOM     17  C   UNL d   1      53.183  36.168  54.644  0.00  0.00     0.068 C 
ENDBRANCH   7  14
TORSDOF 1
ENDMDL
MODEL 7
REMARK VINA RESULT:      -8.3      1.034      3.614
REMARK  1 active torsions:
REMARK  status: ('A' for Active; 'I' for Inactive)
REMARK    1  A    between atoms: N_8  and  C_7 
REMARK       I    between atoms: C_11  and  N_8 
ROOT
ATOM      1  N   UNL d   1      53.348  31.975  53.319  0.00  0.00    -0.273 N 
ATOM      2  C   UNL d   1      53.274  32.698  53.710  0.00  0.00     0.067 A 
ATOM      3  C   UNL d   1      53.913  33.007  54.130  0.00  0.00     0.019 A 
ATOM      4  C   UNL d   1      52.569  33.110  53.683  0.00  0.00     0.018 A 
ATOM      5  C   UNL d   1      52.717  31.665  52.901  0.00  0.00     0.265 A 
ATOM      6  C   UNL d   1      54.113  31.701  53.448  0.00  0.00     0.083 A 
ATOM      7  C   UNL d   1      53.125  34.143  54.491  0.00  0.00     0.085 A 
ATOM      8  C   UNL d   1      53.839  33.729  54.521  0.00  0.00     0.021 A 
ATOM      9  C   UNL d   1      52.494  33.833  54.074  0.00  0.00     0.021 A 
ATOM     10  C   UNL d   1      54.549  32.480  54.064  0.00  0.00     0.021 A 
ATOM     11  C   UNL d   1      51.921  32.802  53.260  0.00  0.00     0.006 A 
ATOM     12  C   UNL d   1      51.995  32.079  52.869  0.00  0.00     0.061 A 
ATOM     13  O   UNL d   1      52.792  30.942  52.510  0.00  0.00    -0.267 OA
ENDROOT
BRANCH   7  14
ATOM     14  N   UNL d   1      53.051  34.865  54.882  0.00  0.00    -0.208 NA
ATOM     15  C   UNL d   1      53.126  35.561  54.471  0.00  0.00     0.279 C 
ATOM     16  O   UNL d   1      53.279  35.555  53.650  0.00  0.00    -0.265 OA
ATOM     17  C   UNL d   1      53.053  36.286  54.858  0.00  0.00     0.068 C 
ENDBRANCH   7  14
TORSDOF 1
ENDMDL
MODEL 8
REMARK VINA RESULT:      -6.9      0.840      3.509
REMARK  1 active torsions:
REMARK  status: ('A' for Active; 'I' for Inactive)
REMARK    1  A    between atoms: N_8  and  C_7 
REMARK       I    between atoms: C_11  and  N_8 
ROOT
ATOM      1  N   UNL d   1      53.427  31.158  53.959  0.00  0.00    -0.273 N 
ATOM      2  C   UNL d   1      53.422  31.983  53.944  0.00  0.00     0.067 A 
ATOM      3  C   UNL d   1      53.783  32.409  54.552  0.00  0.00     0.019 A 
ATOM      4  C   UNL d   1      53.061  32.382  53.329  0.00  0.00     0.018 A 
ATOM      5  C   UNL d   1      53.071  30.732  53.359  0.00  0.00     0.265 A 
ATOM      6  C   UNL d   1      53.828  30.925  54.639  0.00  0.00     0.083 A 
ATOM      7  C   UNL d   1      53.412  33.633  53.914  0.00  0.00     0.085 A 
ATOM      8  C   UNL d   1      53.778  33.234  54.537  0.00  0.00     0.021 A 
ATOM      9  C   UNL d   1      53.055  33.207  53.313  0.00  0.00     0.021 A 
ATOM     10  C   UNL d   1      54.101  31.871  55.095  0.00  0.00     0.021 A 
ATOM     11  C   UNL d   1      52.695  31.956  52.713  0.00  0.00     0.006 A 
ATOM     12  C   UNL d   1      52.700  31.131  52.728  0.00  0.00     0.061 A 
ATOM     13  O   UNL d   1      53.076  29.907  53.374  0.00  0.00    -0.267 OA
ENDROOT
BRANCH   7  14
ATOM     14  N   UNL d   1      53.406  34.457  53.898  0.00  0.00    -0.208 NA
ATOM     15  C   UNL d   1      53.096  34.874  54.521  0.00  0.00     0.279 C 
ATOM     16  O   UNL d   1      52.778  34.476  55.183  0.00  0.00    -0.265 OA
ATOM     17  C   UNL d   1      53.088  35.699  54.510  0.00  0.00     0.068 C 
ENDBRANCH   7  14
TORSDOF 1
ENDMDL
