MODEL 1
REMARK VINA RESULT:      -5.1      0.000      0.000
REMARK  8 active torsions:
REMARK  status: ('A' for Active; 'I' for Inactive)
REMARK    1  A    between atoms: N_5  and  C_1 
REMARK    2  A    between atoms: N_8  and  C_3 
REMARK    3  A    between atoms: C_17  and  N_8 
REMARK    4  A    between atoms: C_28  and  N_9 
REMARK    5  A    between atoms: C_10  and  C_17 
REMARK    6  A    between atoms: C_20  and  O_27 
REMARK    7  A    between atoms: O_27  and  C_29 
REMARK    8  A    between atoms: C_29  and  C_28 
ROOT
ATOM      1  C   UNL d   1     -41.115  14.006  21.017  0.00  0.00     0.737 A 
ATOM      2  N   UNL d   1     -40.941  14.428  20.352  0.00  0.00    -0.041 NA
ATOM      3  C   UNL d   1     -40.202  14.711  20.235  0.00  0.00     0.182 A 
ATOM      4  N   UNL d   1     -40.541  13.868  21.567  0.00  0.00    -0.060 NA
ATOM      5  C   UNL d   1     -39.627  14.575  20.781  0.00  0.00     0.055 A 
ATOM      6  C   UNL d   1     -39.791  14.157  21.445  0.00  0.00     0.103 A 
ATOM      7  C   UNL d   1     -38.886  14.861  20.660  0.00  0.00     0.005 A 
ATOM      8  C   UNL d   1     -39.215  14.021  21.991  0.00  0.00     0.020 A 
ATOM      9  C   UNL d   1     -38.319  14.726  21.199  0.00  0.00     0.000 A 
ATOM     10  C   UNL d   1     -38.483  14.308  21.863  0.00  0.00     0.002 A 
ENDROOT
BRANCH   1  11
ATOM     11  N   UNL d   1     -41.871  13.714  21.142  0.00  0.00    -0.134 N 
ATOM     12  C   UNL d   1     -42.531  14.223  21.080  0.00  0.00     0.117 A 
ATOM     13  C   UNL d   1     -43.290  13.928  21.206  0.00  0.00     0.100 A 
ATOM     14  N   UNL d   1     -43.404  13.130  21.393  0.00  0.00    -0.298 N 
ATOM     15  C   UNL d   1     -42.744  12.620  21.455  0.00  0.00     0.100 A 
ATOM     16  C   UNL d   1     -41.983  12.919  21.328  0.00  0.00     0.117 A 
BRANCH  14  17
ATOM     17  C   UNL d   1     -44.163  12.834  21.518  0.00  0.00     0.107 C 
BRANCH  17  18
ATOM     18  C   UNL d   1     -44.729  13.287  21.919  0.00  0.00     0.142 C 
BRANCH  18  19
ATOM     19  O   UNL d   1     -45.325  12.922  22.372  0.00  0.00    -0.304 OA
BRANCH  19  20
ATOM     20  C   UNL d   1     -46.051  13.288  22.490  0.00  0.00     0.100 A 
ATOM     21  C   UNL d   1     -46.753  12.914  22.242  0.00  0.00     0.025 A 
ATOM     22  C   UNL d   1     -47.479  13.285  22.362  0.00  0.00     0.002 A 
ATOM     23  C   UNL d   1     -47.517  14.034  22.731  0.00  0.00     0.000 A 
ATOM     24  C   UNL d   1     -46.815  14.407  22.978  0.00  0.00     0.002 A 
ATOM     25  C   UNL d   1     -48.254  14.405  22.850  0.00  0.00     0.000 C 
ATOM     26  C   UNL d   1     -46.079  14.028  22.855  0.00  0.00     0.025 A 
ENDBRANCH  19  20
ENDBRANCH  18  19
ENDBRANCH  17  18
ENDBRANCH  14  17
ENDBRANCH   1  11
BRANCH   3  27
ATOM     27  N   UNL d   1     -40.040  15.125  19.579  0.00  0.00    -0.223 NA
BRANCH  27  28
ATOM     28  C   UNL d   1     -40.419  14.984  18.925  0.00  0.00     0.125 C 
BRANCH  28  29
ATOM     29  C   UNL d   1     -40.697  15.264  18.112  0.00  0.00     0.119 A 
ATOM     30  O   UNL d   1     -41.333  15.922  17.623  0.00  0.00    -0.304 OA
ATOM     31  C   UNL d   1     -41.207  15.773  16.563  0.00  0.00     0.123 A 
ATOM     32  C   UNL d   1     -40.626  15.167  16.766  0.00  0.00     0.029 A 
ATOM     33  C   UNL d   1     -40.407  14.948  17.405  0.00  0.00     0.028 A 
ENDBRANCH  28  29
ENDBRANCH  27  28
ENDBRANCH   3  27
TORSDOF 8
ENDMDL
MODEL 2
REMARK VINA RESULT:      -3.7      1.737      6.579
REMARK  8 active torsions:
REMARK  status: ('A' for Active; 'I' for Inactive)
REMARK    1  A    between atoms: N_5  and  C_1 
REMARK    2  A    between atoms: N_8  and  C_3 
REMARK    3  A    between atoms: C_17  and  N_8 
REMARK    4  A    between atoms: C_28  and  N_9 
REMARK    5  A    between atoms: C_10  and  C_17 
REMARK    6  A    between atoms: C_20  and  O_27 
REMARK    7  A    between atoms: O_27  and  C_29 
REMARK    8  A    between atoms: C_29  and  C_28 
ROOT
ATOM      1  C   UNL d   1     -43.444  12.248  22.129  0.00  0.00     0.737 A 
ATOM      2  N   UNL d   1     -44.233  12.415  22.152  0.00  0.00    -0.041 NA
ATOM      3  C   UNL d   1     -44.737  11.935  22.546  0.00  0.00     0.182 A 
ATOM      4  N   UNL d   1     -43.161  11.593  22.506  0.00  0.00    -0.060 NA
ATOM      5  C   UNL d   1     -44.458  11.281  22.923  0.00  0.00     0.055 A 
ATOM      6  C   UNL d   1     -43.675  11.107  22.906  0.00  0.00     0.103 A 
ATOM      7  C   UNL d   1     -44.967  10.801  23.318  0.00  0.00     0.005 A 
ATOM      8  C   UNL d   1     -43.398  10.452  23.284  0.00  0.00     0.020 A 
ATOM      9  C   UNL d   1     -44.691  10.156  23.690  0.00  0.00     0.000 A 
ATOM     10  C   UNL d   1     -43.909   9.982  23.673  0.00  0.00     0.002 A 
ENDROOT
BRANCH   1  11
ATOM     11  N   UNL d   1     -42.923  12.738  21.726  0.00  0.00    -0.134 N 
ATOM     12  C   UNL d   1     -43.155  13.090  21.004  0.00  0.00     0.117 A 
ATOM     13  C   UNL d   1     -42.630  13.581  20.601  0.00  0.00     0.100 A 
ATOM     14  N   UNL d   1     -41.875  13.729  20.906  0.00  0.00    -0.298 N 
ATOM     15  C   UNL d   1     -41.644  13.377  21.628  0.00  0.00     0.100 A 
ATOM     16  C   UNL d   1     -42.172  12.884  22.032  0.00  0.00     0.117 A 
BRANCH  14  17
ATOM     17  C   UNL d   1     -41.351  14.221  20.503  0.00  0.00     0.107 C 
BRANCH  17  18
ATOM     18  C   UNL d   1     -41.022  13.983  19.782  0.00  0.00     0.142 C 
BRANCH  18  19
ATOM     19  O   UNL d   1     -40.630  14.529  19.290  0.00  0.00    -0.304 OA
BRANCH  19  20
ATOM     20  C   UNL d   1     -40.141  14.273  18.680  0.00  0.00     0.100 A 
ATOM     21  C   UNL d   1     -40.399  14.325  17.890  0.00  0.00     0.025 A 
ATOM     22  C   UNL d   1     -39.906  14.068  17.281  0.00  0.00     0.002 A 
ATOM     23  C   UNL d   1     -39.150  13.756  17.450  0.00  0.00     0.000 A 
ATOM     24  C   UNL d   1     -38.893  13.704  18.241  0.00  0.00     0.002 A 
ATOM     25  C   UNL d   1     -38.655  13.497  16.832  0.00  0.00     0.000 C 
ATOM     26  C   UNL d   1     -39.396  13.966  18.857  0.00  0.00     0.025 A 
ENDBRANCH  19  20
ENDBRANCH  18  19
ENDBRANCH  17  18
ENDBRANCH  14  17
ENDBRANCH   1  11
BRANCH   3  27
ATOM     27  N   UNL d   1     -45.510  12.106  22.562  0.00  0.00    -0.223 NA
BRANCH  27  28
ATOM     28  C   UNL d   1     -45.749  12.837  22.541  0.00  0.00     0.125 C 
BRANCH  28  29
ATOM     29  C   UNL d   1     -46.427  13.433  22.520  0.00  0.00     0.119 A 
ATOM     30  O   UNL d   1     -47.400  13.587  22.196  0.00  0.00    -0.304 OA
ATOM     31  C   UNL d   1     -47.694  14.580  22.497  0.00  0.00     0.123 A 
ATOM     32  C   UNL d   1     -46.906  14.654  22.844  0.00  0.00     0.029 A 
ATOM     33  C   UNL d   1     -46.373  14.186  22.860  0.00  0.00     0.028 A 
ENDBRANCH  28  29
ENDBRANCH  27  28
ENDBRANCH   3  27
TORSDOF 8
ENDMDL
MODEL 3
REMARK VINA RESULT:      -2.4      1.918      7.031
REMARK  8 active torsions:
REMARK  status: ('A' for Active; 'I' for Inactive)
REMARK    1  A    between atoms: N_5  and  C_1 
REMARK    2  A    between atoms: N_8  and  C_3 
REMARK    3  A    between atoms: C_17  and  N_8 
REMARK    4  A    between atoms: C_28  and  N_9 
REMARK    5  A    between atoms: C_10  and  C_17 
REMARK    6  A    between atoms: C_20  and  O_27 
REMARK    7  A    between atoms: O_27  and  C_29 
REMARK    8  A    between atoms: C_29  and  C_28 
ROOT
ATOM      1  C   UNL d   1     -45.382  12.423  22.649  0.00  0.00     0.737 A 
ATOM      2  N   UNL d   1     -45.808  13.052  22.920  0.00  0.00    -0.041 NA
ATOM      3  C   UNL d   1     -46.530  12.942  23.246  0.00  0.00     0.182 A 
ATOM      4  N   UNL d   1     -45.687  11.678  22.706  0.00  0.00    -0.060 NA
ATOM      5  C   UNL d   1     -46.836  12.200  23.305  0.00  0.00     0.055 A 
ATOM      6  C   UNL d   1     -46.421  11.568  23.037  0.00  0.00     0.103 A 
ATOM      7  C   UNL d   1     -47.562  12.093  23.633  0.00  0.00     0.005 A 
ATOM      8  C   UNL d   1     -46.729  10.826  23.096  0.00  0.00     0.020 A 
ATOM      9  C   UNL d   1     -47.864  11.361  23.690  0.00  0.00     0.000 A 
ATOM     10  C   UNL d   1     -47.448  10.729  23.422  0.00  0.00     0.002 A 
ENDROOT
BRANCH   1  11
ATOM     11  N   UNL d   1     -44.642  12.531  22.314  0.00  0.00    -0.134 N 
ATOM     12  C   UNL d   1     -44.489  13.208  21.847  0.00  0.00     0.117 A 
ATOM     13  C   UNL d   1     -43.744  13.315  21.512  0.00  0.00     0.100 A 
ATOM     14  N   UNL d   1     -43.145  12.757  21.633  0.00  0.00    -0.298 N 
ATOM     15  C   UNL d   1     -43.297  12.080  22.100  0.00  0.00     0.100 A 
ATOM     16  C   UNL d   1     -44.046  11.974  22.436  0.00  0.00     0.117 A 
BRANCH  14  17
ATOM     17  C   UNL d   1     -42.399  12.863  21.298  0.00  0.00     0.107 C 
BRANCH  17  18
ATOM     18  C   UNL d   1     -42.140  13.620  21.085  0.00  0.00     0.142 C 
BRANCH  18  19
ATOM     19  O   UNL d   1     -41.625  13.728  20.439  0.00  0.00    -0.304 OA
BRANCH  19  20
ATOM     20  C   UNL d   1     -41.010  14.272  20.475  0.00  0.00     0.100 A 
ATOM     21  C   UNL d   1     -41.027  14.954  19.997  0.00  0.00     0.025 A 
ATOM     22  C   UNL d   1     -40.408  15.497  20.036  0.00  0.00     0.002 A 
ATOM     23  C   UNL d   1     -39.764  15.370  20.552  0.00  0.00     0.000 A 
ATOM     24  C   UNL d   1     -39.747  14.688  21.030  0.00  0.00     0.002 A 
ATOM     25  C   UNL d   1     -39.140  15.922  20.589  0.00  0.00     0.000 C 
ATOM     26  C   UNL d   1     -40.377  14.138  20.988  0.00  0.00     0.025 A 
ENDBRANCH  19  20
ENDBRANCH  18  19
ENDBRANCH  17  18
ENDBRANCH  14  17
ENDBRANCH   1  11
BRANCH   3  27
ATOM     27  N   UNL d   1     -46.941  13.565  23.510  0.00  0.00    -0.223 NA
BRANCH  27  28
ATOM     28  C   UNL d   1     -47.329  14.014  23.021  0.00  0.00     0.125 C 
BRANCH  28  29
ATOM     29  C   UNL d   1     -48.066  14.498  22.828  0.00  0.00     0.119 A 
ATOM     30  O   UNL d   1     -49.065  14.639  23.068  0.00  0.00    -0.304 OA
ATOM     31  C   UNL d   1     -49.446  15.430  22.442  0.00  0.00     0.123 A 
ATOM     32  C   UNL d   1     -48.654  15.474  22.101  0.00  0.00     0.029 A 
ATOM     33  C   UNL d   1     -48.074  15.093  22.253  0.00  0.00     0.028 A 
ENDBRANCH  28  29
ENDBRANCH  27  28
ENDBRANCH   3  27
TORSDOF 8
ENDMDL
MODEL 4
REMARK VINA RESULT:      -2.1      2.418      7.876
REMARK  8 active torsions:
REMARK  status: ('A' for Active; 'I' for Inactive)
REMARK    1  A    between atoms: N_5  and  C_1 
REMARK    2  A    between atoms: N_8  and  C_3 
REMARK    3  A    between atoms: C_17  and  N_8 
REMARK    4  A    between atoms: C_28  and  N_9 
REMARK    5  A    between atoms: C_10  and  C_17 
REMARK    6  A    between atoms: C_20  and  O_27 
REMARK    7  A    between atoms: O_27  and  C_29 
REMARK    8  A    between atoms: C_29  and  C_28 
ROOT
ATOM      1  C   UNL d   1     -47.032  13.877  22.515  0.00  0.00     0.737 A 
ATOM      2  N   UNL d   1     -47.533  13.498  23.021  0.00  0.00    -0.041 NA
ATOM      3  C   UNL d   1     -48.245  13.816  23.199  0.00  0.00     0.182 A 
ATOM      4  N   UNL d   1     -47.250  14.581  22.186  0.00  0.00    -0.060 NA
ATOM      5  C   UNL d   1     -48.466  14.518  22.872  0.00  0.00     0.055 A 
ATOM      6  C   UNL d   1     -47.974  14.902  22.368  0.00  0.00     0.103 A 
ATOM      7  C   UNL d   1     -49.182  14.834  23.053  0.00  0.00     0.005 A 
ATOM      8  C   UNL d   1     -48.196  15.604  22.042  0.00  0.00     0.020 A 
ATOM      9  C   UNL d   1     -49.399  15.526  22.731  0.00  0.00     0.000 A 
ATOM     10  C   UNL d   1     -48.907  15.910  22.227  0.00  0.00     0.002 A 
ENDROOT
BRANCH   1  11
ATOM     11  N   UNL d   1     -46.301  13.555  22.330  0.00  0.00    -0.134 N 
ATOM     12  C   UNL d   1     -46.243  12.955  21.750  0.00  0.00     0.117 A 
ATOM     13  C   UNL d   1     -45.507  12.633  21.566  0.00  0.00     0.100 A 
ATOM     14  N   UNL d   1     -44.824  12.899  21.950  0.00  0.00    -0.298 N 
ATOM     15  C   UNL d   1     -44.882  13.499  22.530  0.00  0.00     0.100 A 
ATOM     16  C   UNL d   1     -45.622  13.821  22.713  0.00  0.00     0.117 A 
BRANCH  14  17
ATOM     17  C   UNL d   1     -44.088  12.576  21.766  0.00  0.00     0.107 C 
BRANCH  17  18
ATOM     18  C   UNL d   1     -43.547  13.002  21.307  0.00  0.00     0.142 C 
BRANCH  18  19
ATOM     19  O   UNL d   1     -42.756  12.750  21.237  0.00  0.00    -0.304 OA
BRANCH  19  20
ATOM     20  C   UNL d   1     -42.149  13.292  21.117  0.00  0.00     0.100 A 
ATOM     21  C   UNL d   1     -42.206  13.855  20.506  0.00  0.00     0.025 A 
ATOM     22  C   UNL d   1     -41.596  14.396  20.389  0.00  0.00     0.002 A 
ATOM     23  C   UNL d   1     -40.920  14.385  20.880  0.00  0.00     0.000 A 
ATOM     24  C   UNL d   1     -40.863  13.822  21.491  0.00  0.00     0.002 A 
ATOM     25  C   UNL d   1     -40.305  14.934  20.758  0.00  0.00     0.000 C 
ATOM     26  C   UNL d   1     -41.485  13.274  21.606  0.00  0.00     0.025 A 
ENDBRANCH  19  20
ENDBRANCH  18  19
ENDBRANCH  17  18
ENDBRANCH  14  17
ENDBRANCH   1  11
BRANCH   3  27
ATOM     27  N   UNL d   1     -48.730  13.437  23.697  0.00  0.00    -0.223 NA
BRANCH  27  28
ATOM     28  C   UNL d   1     -48.936  12.708  23.563  0.00  0.00     0.125 C 
BRANCH  28  29
ATOM     29  C   UNL d   1     -49.566  12.061  23.586  0.00  0.00     0.119 A 
ATOM     30  O   UNL d   1     -49.719  11.036  23.537  0.00  0.00    -0.304 OA
ATOM     31  C   UNL d   1     -50.778  10.857  23.634  0.00  0.00     0.123 A 
ATOM     32  C   UNL d   1     -50.867  11.714  23.697  0.00  0.00     0.029 A 
ATOM     33  C   UNL d   1     -50.372  12.222  23.679  0.00  0.00     0.028 A 
ENDBRANCH  28  29
ENDBRANCH  27  28
ENDBRANCH   3  27
TORSDOF 8
ENDMDL
