MODEL 1
REMARK VINA RESULT:      28.8      0.000      0.000
REMARK  1 active torsions:
REMARK  status: ('A' for Active; 'I' for Inactive)
REMARK    1  A    between atoms: C_9  and  C_5 
ROOT
ATOM      1  C   UNL d   1      14.054  13.201  -2.645  0.00  0.00     0.062 A 
ATOM      2  C   UNL d   1      14.387  13.869  -2.330  0.00  0.00     0.197 A 
ATOM      3  C   UNL d   1      14.018  12.497  -2.170  0.00  0.00     0.044 A 
ATOM      4  C   UNL d   1      13.754  13.219  -3.422  0.00  0.00     0.112 A 
ATOM      5  C   UNL d   1      13.419  12.514  -3.712  0.00  0.00     0.084 A 
ATOM      6  C   UNL d   1      14.318  12.492  -1.402  0.00  0.00     0.196 A 
ATOM      7  C   UNL d   1      14.700  13.878  -1.539  0.00  0.00     0.042 A 
ATOM      8  C   UNL d   1      14.666  13.198  -1.082  0.00  0.00     0.042 A 
ATOM      9  C   UNL d   1      13.683  11.805  -2.469  0.00  0.00     0.004 A 
ATOM     10  C   UNL d   1      13.382  11.779  -3.217  0.00  0.00     0.008 A 
ATOM     11  O   UNL d   1      14.422  14.573  -2.805  0.00  0.00    -0.286 OA
ATOM     12  O   UNL d   1      14.282  11.782  -0.924  0.00  0.00    -0.287 OA
ATOM     13  N   UNL d   1      13.788  13.886  -3.872  0.00  0.00    -0.148 N 
ATOM     14  C   UNL d   1      15.035  14.570  -1.241  0.00  0.00     0.003 A 
ATOM     15  C   UNL d   1      14.965  13.193  -0.313  0.00  0.00     0.003 A 
ATOM     16  C   UNL d   1      15.336  14.590  -0.489  0.00  0.00     0.000 A 
ATOM     17  C   UNL d   1      15.300  13.886  -0.015  0.00  0.00     0.000 A 
ENDROOT
BRANCH   5  18
ATOM     18  C   UNL d   1      13.130  12.549  -4.476  0.00  0.00     0.212 C 
ATOM     19  O   UNL d   1      12.769  13.238  -4.704  0.00  0.00    -0.644 OA
ATOM     20  O   UNL d   1      13.215  11.889  -4.983  0.00  0.00    -0.644 OA
ENDBRANCH   5  18
TORSDOF 1
ENDMDL
MODEL 2
REMARK VINA RESULT:      30.2      1.162      3.262
REMARK  1 active torsions:
REMARK  status: ('A' for Active; 'I' for Inactive)
REMARK    1  A    between atoms: C_9  and  C_5 
ROOT
ATOM      1  C   UNL d   1      14.106  13.197  -2.271  0.00  0.00     0.062 A 
ATOM      2  C   UNL d   1      14.071  13.861  -2.733  0.00  0.00     0.197 A 
ATOM      3  C   UNL d   1      13.704  12.494  -2.532  0.00  0.00     0.044 A 
ATOM      4  C   UNL d   1      14.532  13.215  -1.556  0.00  0.00     0.112 A 
ATOM      5  C   UNL d   1      14.545  12.513  -1.108  0.00  0.00     0.084 A 
ATOM      6  C   UNL d   1      13.286  12.488  -3.243  0.00  0.00     0.196 A 
ATOM      7  C   UNL d   1      13.643  13.869  -3.468  0.00  0.00     0.042 A 
ATOM      8  C   UNL d   1      13.256  13.192  -3.719  0.00  0.00     0.042 A 
ATOM      9  C   UNL d   1      13.725  11.805  -2.079  0.00  0.00     0.004 A 
ATOM     10  C   UNL d   1      14.126  11.781  -1.380  0.00  0.00     0.008 A 
ATOM     11  O   UNL d   1      14.473  14.564  -2.472  0.00  0.00    -0.286 OA
ATOM     12  O   UNL d   1      12.881  11.780  -3.506  0.00  0.00    -0.287 OA
ATOM     13  N   UNL d   1      14.912  13.880  -1.309  0.00  0.00    -0.148 N 
ATOM     14  C   UNL d   1      13.623  14.559  -3.920  0.00  0.00     0.003 A 
ATOM     15  C   UNL d   1      12.837  13.185  -4.430  0.00  0.00     0.003 A 
ATOM     16  C   UNL d   1      13.218  14.577  -4.622  0.00  0.00     0.000 A 
ATOM     17  C   UNL d   1      12.816  13.875  -4.883  0.00  0.00     0.000 A 
ENDROOT
BRANCH   5  18
ATOM     18  C   UNL d   1      14.967  12.549  -0.409  0.00  0.00     0.212 C 
ATOM     19  O   UNL d   1      15.275  11.853  -0.127  0.00  0.00    -0.644 OA
ATOM     20  O   UNL d   1      15.065  13.282  -0.019  0.00  0.00    -0.644 OA
ENDBRANCH   5  18
TORSDOF 1
ENDMDL
