MODEL 1
REMARK VINA RESULT:      46.5      0.000      0.000
REMARK  4 active torsions:
REMARK  status: ('A' for Active; 'I' for Inactive)
REMARK    1  A    between atoms: C_10  and  C_4 
REMARK       I    between atoms: N_11  and  C_10 
REMARK    2  A    between atoms: C_12  and  C_19 
REMARK    3  A    between atoms: O_26  and  C_12 
REMARK    4  A    between atoms: C_27  and  O_26 
ROOT
ATOM      1  C   UNL d   1      45.810 -17.519  43.291  0.00  0.00     0.154 A 
ATOM      2  C   UNL d   1      46.089 -17.032  42.689  0.00  0.00     0.093 A 
ATOM      3  N   UNL d   1      45.808 -18.346  43.187  0.00  0.00    -0.211 NA
ATOM      4  C   UNL d   1      45.706 -16.256  43.707  0.00  0.00     0.122 A 
ATOM      5  N   UNL d   1      45.575 -17.042  43.917  0.00  0.00    -0.285 N 
ATOM      6  C   UNL d   1      46.366 -17.359  41.981  0.00  0.00     0.269 A 
ATOM      7  N   UNL d   1      46.366 -18.174  41.875  0.00  0.00    -0.259 N 
ATOM      8  C   UNL d   1      46.085 -18.676  42.482  0.00  0.00     0.140 A 
ATOM      9  C   UNL d   1      46.024 -16.255  42.945  0.00  0.00     0.030 A 
ATOM     10  C   UNL d   1      46.642 -18.504  41.171  0.00  0.00     0.084 A 
ATOM     11  O   UNL d   1      46.646 -16.866  41.378  0.00  0.00    -0.266 OA
ATOM     12  C   UNL d   1      46.082 -19.484  42.381  0.00  0.00     0.064 A 
ATOM     13  C   UNL d   1      46.638 -19.320  41.073  0.00  0.00     0.018 A 
ATOM     14  C   UNL d   1      46.355 -19.815  41.684  0.00  0.00    -0.008 A 
ATOM     15  C   UNL d   1      45.260 -17.308  44.636  0.00  0.00     0.101 C 
ENDROOT
BRANCH   4  16
ATOM     16  C   UNL d   1      45.548 -15.590  44.173  0.00  0.00     0.281 C 
ATOM     17  N   UNL d   1      45.633 -14.836  43.852  0.00  0.00    -0.271 N 
ATOM     18  C   UNL d   1      45.875 -14.740  43.070  0.00  0.00     0.083 A 
ATOM     19  C   UNL d   1      45.475 -14.170  44.318  0.00  0.00     0.083 A 
ATOM     20  C   UNL d   1      45.959 -13.986  42.755  0.00  0.00     0.025 A 
ATOM     21  C   UNL d   1      45.800 -13.321  43.221  0.00  0.00     0.067 A 
ATOM     22  C   UNL d   1      45.560 -13.414  43.999  0.00  0.00     0.025 A 
ATOM     23  O   UNL d   1      45.307 -15.685  44.954  0.00  0.00    -0.265 OA
BRANCH  21  24
ATOM     24  C   UNL d   1      45.885 -12.563  42.903  0.00  0.00     0.300 C 
ATOM     25  O   UNL d   1      46.643 -12.245  42.797  0.00  0.00    -0.259 OA
BRANCH  24  26
ATOM     26  O   UNL d   1      45.219 -12.127  42.692  0.00  0.00    -0.271 OA
BRANCH  26  27
ATOM     27  C   UNL d   1      44.700 -12.428  42.130  0.00  0.00     0.126 C 
ATOM     28  C   UNL d   1      43.943 -12.099  42.058  0.00  0.00     0.029 C 
ENDBRANCH  26  27
ENDBRANCH  24  26
ENDBRANCH  21  24
ENDBRANCH   4  16
TORSDOF 4
ENDMDL
