MODEL 1
REMARK VINA RESULT:      -9.3      0.000      0.000
REMARK  3 active torsions:
REMARK  status: ('A' for Active; 'I' for Inactive)
REMARK    1  A    between atoms: N_9  and  C_2 
REMARK    2  A    between atoms: C_15  and  C_7 
REMARK    3  A    between atoms: C_11  and  C_14 
ROOT
ATOM      1  C   UNL d   1      52.658  32.141  53.439  0.00  0.00     0.152 A 
ATOM      2  C   UNL d   1      52.761  32.952  53.585  0.00  0.00     0.174 A 
ATOM      3  C   UNL d   1      51.990  31.875  53.021  0.00  0.00     0.111 A 
ATOM      4  N   UNL d   1      52.189  33.495  53.307  0.00  0.00    -0.207 NA
ATOM      5  N   UNL d   1      51.427  32.409  52.748  0.00  0.00    -0.225 NA
ATOM      6  O   UNL d   1      53.226  31.600  53.714  0.00  0.00    -0.302 OA
ATOM      7  C   UNL d   1      51.521  33.220  52.888  0.00  0.00     0.164 A 
ATOM      8  C   UNL d   1      52.463  30.522  53.155  0.00  0.00     0.043 A 
ATOM      9  C   UNL d   1      53.130  30.788  53.573  0.00  0.00     0.102 A 
ATOM     10  C   UNL d   1      52.368  29.715  53.014  0.00  0.00     0.004 A 
ATOM     11  C   UNL d   1      53.691  30.259  53.845  0.00  0.00     0.025 A 
ATOM     12  C   UNL d   1      52.930  29.182  53.287  0.00  0.00     0.000 A 
ATOM     13  C   UNL d   1      53.595  29.455  53.704  0.00  0.00     0.002 A 
ENDROOT
BRANCH   2  14
ATOM     14  N   UNL d   1      53.420  33.223  53.998  0.00  0.00    -0.287 N 
ATOM     15  C   UNL d   1      54.134  33.303  53.610  0.00  0.00     0.082 A 
ATOM     16  C   UNL d   1      54.790  33.574  54.026  0.00  0.00     0.025 A 
ATOM     17  C   UNL d   1      54.724  33.761  54.826  0.00  0.00     0.067 A 
ATOM     18  C   UNL d   1      54.005  33.677  55.207  0.00  0.00     0.025 A 
ATOM     19  C   UNL d   1      53.348  33.407  54.795  0.00  0.00     0.082 A 
BRANCH  17  20
ATOM     20  C   UNL d   1      55.402  34.040  55.252  0.00  0.00     0.211 C 
ATOM     21  O   UNL d   1      55.541  33.780  56.045  0.00  0.00    -0.644 OA
ATOM     22  O   UNL d   1      55.938  34.578  54.882  0.00  0.00    -0.644 OA
ENDBRANCH  17  20
ENDBRANCH   2  14
BRANCH   7  23
ATOM     23  C   UNL d   1      50.959  33.750  52.615  0.00  0.00     0.036 A 
ATOM     24  C   UNL d   1      50.933  33.948  51.827  0.00  0.00     0.003 A 
ATOM     25  C   UNL d   1      50.365  34.484  51.548  0.00  0.00     0.000 A 
ATOM     26  C   UNL d   1      49.827  34.815  52.074  0.00  0.00     0.000 A 
ATOM     27  C   UNL d   1      49.855  34.612  52.879  0.00  0.00     0.000 A 
ATOM     28  C   UNL d   1      50.416  34.085  53.143  0.00  0.00     0.003 A 
ENDBRANCH   7  23
TORSDOF 3
ENDMDL
MODEL 2
REMARK VINA RESULT:      -9.3      1.124      3.369
REMARK  3 active torsions:
REMARK  status: ('A' for Active; 'I' for Inactive)
REMARK    1  A    between atoms: N_9  and  C_2 
REMARK    2  A    between atoms: C_15  and  C_7 
REMARK    3  A    between atoms: C_11  and  C_14 
ROOT
ATOM      1  C   UNL d   1      52.739  33.141  53.697  0.00  0.00     0.152 A 
ATOM      2  C   UNL d   1      52.233  32.628  53.284  0.00  0.00     0.174 A 
ATOM      3  C   UNL d   1      52.590  33.958  53.701  0.00  0.00     0.111 A 
ATOM      4  N   UNL d   1      51.574  32.943  52.875  0.00  0.00    -0.207 NA
ATOM      5  N   UNL d   1      51.942  34.268  53.299  0.00  0.00    -0.225 NA
ATOM      6  O   UNL d   1      53.393  32.829  54.103  0.00  0.00    -0.302 OA
ATOM      7  C   UNL d   1      51.431  33.765  52.884  0.00  0.00     0.164 A 
ATOM      8  C   UNL d   1      53.755  34.152  54.523  0.00  0.00     0.043 A 
ATOM      9  C   UNL d   1      53.904  33.334  54.518  0.00  0.00     0.102 A 
ATOM     10  C   UNL d   1      54.263  34.654  54.936  0.00  0.00     0.004 A 
ATOM     11  C   UNL d   1      54.547  33.025  54.917  0.00  0.00     0.025 A 
ATOM     12  C   UNL d   1      54.910  34.344  55.337  0.00  0.00     0.000 A 
ATOM     13  C   UNL d   1      55.053  33.525  55.328  0.00  0.00     0.002 A 
ENDROOT
BRANCH   2  14
ATOM     14  N   UNL d   1      52.374  31.817  53.274  0.00  0.00    -0.287 N 
ATOM     15  C   UNL d   1      52.938  31.512  52.768  0.00  0.00     0.082 A 
ATOM     16  C   UNL d   1      53.077  30.702  52.762  0.00  0.00     0.025 A 
ATOM     17  C   UNL d   1      52.649  30.204  53.262  0.00  0.00     0.067 A 
ATOM     18  C   UNL d   1      52.086  30.518  53.765  0.00  0.00     0.025 A 
ATOM     19  C   UNL d   1      51.945  31.327  53.775  0.00  0.00     0.082 A 
BRANCH  17  20
ATOM     20  C   UNL d   1      52.795  29.369  53.253  0.00  0.00     0.211 C 
ATOM     21  O   UNL d   1      52.504  28.895  52.615  0.00  0.00    -0.644 OA
ATOM     22  O   UNL d   1      53.231  29.011  53.882  0.00  0.00    -0.644 OA
ENDBRANCH  17  20
ENDBRANCH   2  14
BRANCH   7  23
ATOM     23  C   UNL d   1      50.788  34.076  52.485  0.00  0.00     0.036 A 
ATOM     24  C   UNL d   1      50.785  34.106  51.673  0.00  0.00     0.003 A 
ATOM     25  C   UNL d   1      50.135  34.420  51.266  0.00  0.00     0.000 A 
ATOM     26  C   UNL d   1      49.490  34.702  51.689  0.00  0.00     0.000 A 
ATOM     27  C   UNL d   1      49.493  34.672  52.519  0.00  0.00     0.000 A 
ATOM     28  C   UNL d   1      50.136  34.362  52.910  0.00  0.00     0.003 A 
ENDBRANCH   7  23
TORSDOF 3
ENDMDL
MODEL 3
REMARK VINA RESULT:      -8.6      1.592      4.442
REMARK  3 active torsions:
REMARK  status: ('A' for Active; 'I' for Inactive)
REMARK    1  A    between atoms: N_9  and  C_2 
REMARK    2  A    between atoms: C_15  and  C_7 
REMARK    3  A    between atoms: C_11  and  C_14 
ROOT
ATOM      1  C   UNL d   1      53.114  32.850  53.887  0.00  0.00     0.152 A 
ATOM      2  C   UNL d   1      52.465  32.559  53.458  0.00  0.00     0.174 A 
ATOM      3  C   UNL d   1      53.712  32.331  54.140  0.00  0.00     0.111 A 
ATOM      4  N   UNL d   1      52.421  31.742  53.285  0.00  0.00    -0.207 NA
ATOM      5  N   UNL d   1      53.668  31.527  53.969  0.00  0.00    -0.225 NA
ATOM      6  O   UNL d   1      53.159  33.661  54.060  0.00  0.00    -0.302 OA
ATOM      7  C   UNL d   1      53.025  31.227  53.542  0.00  0.00     0.164 A 
ATOM      8  C   UNL d   1      54.402  33.441  54.741  0.00  0.00     0.043 A 
ATOM      9  C   UNL d   1      53.805  33.960  54.489  0.00  0.00     0.102 A 
ATOM     10  C   UNL d   1      55.044  33.738  55.167  0.00  0.00     0.004 A 
ATOM     11  C   UNL d   1      53.846  34.759  54.658  0.00  0.00     0.025 A 
ATOM     12  C   UNL d   1      55.087  34.541  55.337  0.00  0.00     0.000 A 
ATOM     13  C   UNL d   1      54.485  35.054  55.081  0.00  0.00     0.002 A 
ENDROOT
BRANCH   2  14
ATOM     14  N   UNL d   1      51.869  33.067  53.205  0.00  0.00    -0.287 N 
ATOM     15  C   UNL d   1      51.974  33.501  52.520  0.00  0.00     0.082 A 
ATOM     16  C   UNL d   1      51.376  34.008  52.270  0.00  0.00     0.025 A 
ATOM     17  C   UNL d   1      50.680  34.075  52.707  0.00  0.00     0.067 A 
ATOM     18  C   UNL d   1      50.584  33.637  53.391  0.00  0.00     0.025 A 
ATOM     19  C   UNL d   1      51.179  33.130  53.644  0.00  0.00     0.082 A 
BRANCH  17  20
ATOM     20  C   UNL d   1      50.066  34.599  52.446  0.00  0.00     0.211 C 
ATOM     21  O   UNL d   1      49.746  34.521  51.667  0.00  0.00    -0.644 OA
ATOM     22  O   UNL d   1      49.775  35.197  52.966  0.00  0.00    -0.644 OA
ENDBRANCH  17  20
ENDBRANCH   2  14
BRANCH   7  23
ATOM     23  C   UNL d   1      52.984  30.427  53.374  0.00  0.00     0.036 A 
ATOM     24  C   UNL d   1      52.869  30.175  52.609  0.00  0.00     0.003 A 
ATOM     25  C   UNL d   1      52.827  29.366  52.436  0.00  0.00     0.000 A 
ATOM     26  C   UNL d   1      52.903  28.817  53.042  0.00  0.00     0.000 A 
ATOM     27  C   UNL d   1      53.021  29.074  53.823  0.00  0.00     0.000 A 
ATOM     28  C   UNL d   1      53.060  29.871  53.983  0.00  0.00     0.003 A 
ENDBRANCH   7  23
TORSDOF 3
ENDMDL
MODEL 4
REMARK VINA RESULT:      -7.8      0.839      3.623
REMARK  3 active torsions:
REMARK  status: ('A' for Active; 'I' for Inactive)
REMARK    1  A    between atoms: N_9  and  C_2 
REMARK    2  A    between atoms: C_15  and  C_7 
REMARK    3  A    between atoms: C_11  and  C_14 
ROOT
ATOM      1  C   UNL d   1      52.672  32.502  53.542  0.00  0.00     0.152 A 
ATOM      2  C   UNL d   1      53.342  32.192  53.924  0.00  0.00     0.174 A 
ATOM      3  C   UNL d   1      52.106  31.989  53.213  0.00  0.00     0.111 A 
ATOM      4  N   UNL d   1      53.439  31.363  53.973  0.00  0.00    -0.207 NA
ATOM      5  N   UNL d   1      52.202  31.173  53.261  0.00  0.00    -0.225 NA
ATOM      6  O   UNL d   1      52.573  33.325  53.493  0.00  0.00    -0.302 OA
ATOM      7  C   UNL d   1      52.867  30.854  53.640  0.00  0.00     0.164 A 
ATOM      8  C   UNL d   1      51.341  33.130  52.784  0.00  0.00     0.043 A 
ATOM      9  C   UNL d   1      51.907  33.643  53.113  0.00  0.00     0.102 A 
ATOM     10  C   UNL d   1      50.679  33.446  52.407  0.00  0.00     0.004 A 
ATOM     11  C   UNL d   1      51.813  34.453  53.067  0.00  0.00     0.025 A 
ATOM     12  C   UNL d   1      50.583  34.260  52.359  0.00  0.00     0.000 A 
ATOM     13  C   UNL d   1      51.153  34.767  52.691  0.00  0.00     0.002 A 
ENDROOT
BRANCH   2  14
ATOM     14  N   UNL d   1      53.906  32.694  54.252  0.00  0.00    -0.287 N 
ATOM     15  C   UNL d   1      54.545  32.931  53.802  0.00  0.00     0.082 A 
ATOM     16  C   UNL d   1      55.107  33.432  54.133  0.00  0.00     0.025 A 
ATOM     17  C   UNL d   1      55.023  33.691  54.911  0.00  0.00     0.067 A 
ATOM     18  C   UNL d   1      54.380  33.449  55.355  0.00  0.00     0.025 A 
ATOM     19  C   UNL d   1      53.816  32.948  55.027  0.00  0.00     0.082 A 
BRANCH  17  20
ATOM     20  C   UNL d   1      55.604  34.208  55.249  0.00  0.00     0.211 C 
ATOM     21  O   UNL d   1      55.939  34.831  54.785  0.00  0.00    -0.644 OA
ATOM     22  O   UNL d   1      55.847  34.099  56.051  0.00  0.00    -0.644 OA
ENDBRANCH  17  20
ENDBRANCH   2  14
BRANCH   7  23
ATOM     23  C   UNL d   1      52.960  30.043  53.686  0.00  0.00     0.036 A 
ATOM     24  C   UNL d   1      52.824  29.577  53.034  0.00  0.00     0.003 A 
ATOM     25  C   UNL d   1      52.918  28.754  53.078  0.00  0.00     0.000 A 
ATOM     26  C   UNL d   1      53.150  28.411  53.787  0.00  0.00     0.000 A 
ATOM     27  C   UNL d   1      53.290  28.887  54.454  0.00  0.00     0.000 A 
ATOM     28  C   UNL d   1      53.195  29.693  54.400  0.00  0.00     0.003 A 
ENDBRANCH   7  23
TORSDOF 3
ENDMDL
MODEL 5
REMARK VINA RESULT:      -7.7      1.442      3.937
REMARK  3 active torsions:
REMARK  status: ('A' for Active; 'I' for Inactive)
REMARK    1  A    between atoms: N_9  and  C_2 
REMARK    2  A    between atoms: C_15  and  C_7 
REMARK    3  A    between atoms: C_11  and  C_14 
ROOT
ATOM      1  C   UNL d   1      53.013  32.019  53.642  0.00  0.00     0.152 A 
ATOM      2  C   UNL d   1      52.905  32.843  53.658  0.00  0.00     0.174 A 
ATOM      3  C   UNL d   1      53.685  31.681  53.995  0.00  0.00     0.111 A 
ATOM      4  N   UNL d   1      53.478  33.324  54.032  0.00  0.00    -0.207 NA
ATOM      5  N   UNL d   1      54.248  32.154  54.363  0.00  0.00    -0.225 NA
ATOM      6  O   UNL d   1      52.445  31.540  53.270  0.00  0.00    -0.302 OA
ATOM      7  C   UNL d   1      54.150  32.977  54.385  0.00  0.00     0.164 A 
ATOM      8  C   UNL d   1      53.217  30.378  53.603  0.00  0.00     0.043 A 
ATOM      9  C   UNL d   1      52.546  30.716  53.250  0.00  0.00     0.102 A 
ATOM     10  C   UNL d   1      53.317  29.559  53.583  0.00  0.00     0.004 A 
ATOM     11  C   UNL d   1      51.985  30.247  52.884  0.00  0.00     0.025 A 
ATOM     12  C   UNL d   1      52.754  29.086  53.215  0.00  0.00     0.000 A 
ATOM     13  C   UNL d   1      52.085  29.432  52.864  0.00  0.00     0.002 A 
ENDROOT
BRANCH   2  14
ATOM     14  N   UNL d   1      52.243  33.185  53.310  0.00  0.00    -0.287 N 
ATOM     15  C   UNL d   1      51.531  33.186  53.713  0.00  0.00     0.082 A 
ATOM     16  C   UNL d   1      50.872  33.529  53.362  0.00  0.00     0.025 A 
ATOM     17  C   UNL d   1      50.930  33.868  52.612  0.00  0.00     0.067 A 
ATOM     18  C   UNL d   1      51.646  33.863  52.216  0.00  0.00     0.025 A 
ATOM     19  C   UNL d   1      52.307  33.521  52.564  0.00  0.00     0.082 A 
BRANCH  17  20
ATOM     20  C   UNL d   1      50.247  34.221  52.254  0.00  0.00     0.211 C 
ATOM     21  O   UNL d   1      50.113  34.136  51.423  0.00  0.00    -0.644 OA
ATOM     22  O   UNL d   1      49.702  34.658  52.729  0.00  0.00    -0.644 OA
ENDBRANCH  17  20
ENDBRANCH   2  14
BRANCH   7  23
ATOM     23  C   UNL d   1      54.712  33.445  54.752  0.00  0.00     0.036 A 
ATOM     24  C   UNL d   1      54.629  33.647  55.535  0.00  0.00     0.003 A 
ATOM     25  C   UNL d   1      55.197  34.122  55.909  0.00  0.00     0.000 A 
ATOM     26  C   UNL d   1      55.846  34.389  55.483  0.00  0.00     0.000 A 
ATOM     27  C   UNL d   1      55.930  34.183  54.682  0.00  0.00     0.000 A 
ATOM     28  C   UNL d   1      55.368  33.717  54.324  0.00  0.00     0.003 A 
ENDBRANCH   7  23
TORSDOF 3
ENDMDL
MODEL 6
REMARK VINA RESULT:      -6.5      9.532     11.039
REMARK  3 active torsions:
REMARK  status: ('A' for Active; 'I' for Inactive)
REMARK    1  A    between atoms: N_9  and  C_2 
REMARK    2  A    between atoms: C_15  and  C_7 
REMARK    3  A    between atoms: C_11  and  C_14 
ROOT
ATOM      1  C   UNL d   1      44.684  30.057  58.638  0.00  0.00     0.152 A 
ATOM      2  C   UNL d   1      44.804  29.332  59.024  0.00  0.00     0.174 A 
ATOM      3  C   UNL d   1      44.563  30.750  59.081  0.00  0.00     0.111 A 
ATOM      4  N   UNL d   1      44.801  29.307  59.860  0.00  0.00    -0.207 NA
ATOM      5  N   UNL d   1      44.560  30.726  59.903  0.00  0.00    -0.225 NA
ATOM      6  O   UNL d   1      44.687  30.083  57.807  0.00  0.00    -0.302 OA
ATOM      7  C   UNL d   1      44.679  30.007  60.299  0.00  0.00     0.164 A 
ATOM      8  C   UNL d   1      44.446  31.497  57.857  0.00  0.00     0.043 A 
ATOM      9  C   UNL d   1      44.568  30.804  57.413  0.00  0.00     0.102 A 
ATOM     10  C   UNL d   1      44.328  32.213  57.465  0.00  0.00     0.004 A 
ATOM     11  C   UNL d   1      44.571  30.827  56.596  0.00  0.00     0.025 A 
ATOM     12  C   UNL d   1      44.331  32.237  56.643  0.00  0.00     0.000 A 
ATOM     13  C   UNL d   1      44.453  31.540  56.207  0.00  0.00     0.002 A 
ENDROOT
BRANCH   2  14
ATOM     14  N   UNL d   1      44.925  28.642  58.592  0.00  0.00    -0.287 N 
ATOM     15  C   UNL d   1      44.314  28.105  58.511  0.00  0.00     0.082 A 
ATOM     16  C   UNL d   1      44.438  27.417  58.078  0.00  0.00     0.025 A 
ATOM     17  C   UNL d   1      45.172  27.273  57.731  0.00  0.00     0.067 A 
ATOM     18  C   UNL d   1      45.778  27.816  57.816  0.00  0.00     0.025 A 
ATOM     19  C   UNL d   1      45.657  28.505  58.248  0.00  0.00     0.082 A 
BRANCH  17  20
ATOM     20  C   UNL d   1      45.297  26.562  57.285  0.00  0.00     0.211 C 
ATOM     21  O   UNL d   1      45.622  26.602  56.505  0.00  0.00    -0.644 OA
ATOM     22  O   UNL d   1      45.095  25.814  57.623  0.00  0.00    -0.644 OA
ENDBRANCH  17  20
ENDBRANCH   2  14
BRANCH   7  23
ATOM     23  C   UNL d   1      44.675  29.985  61.117  0.00  0.00     0.036 A 
ATOM     24  C   UNL d   1      44.582  29.278  61.507  0.00  0.00     0.003 A 
ATOM     25  C   UNL d   1      44.578  29.254  62.336  0.00  0.00     0.000 A 
ATOM     26  C   UNL d   1      44.670  29.950  62.762  0.00  0.00     0.000 A 
ATOM     27  C   UNL d   1      44.766  30.672  62.363  0.00  0.00     0.000 A 
ATOM     28  C   UNL d   1      44.768  30.686  61.549  0.00  0.00     0.003 A 
ENDBRANCH   7  23
TORSDOF 3
ENDMDL
