MODEL 1
REMARK VINA RESULT:      -3.6      0.000      0.000
REMARK  4 active torsions:
REMARK  status: ('A' for Active; 'I' for Inactive)
REMARK    1  A    between atoms: C_6  and  N_1 
REMARK    2  A    between atoms: N_8  and  C_4 
REMARK    3  A    between atoms: N_7  and  C_10 
REMARK    4  A    between atoms: C_16  and  N_8 
ROOT
ATOM      1  N   UNL d   1      32.940  21.035 -21.775  0.00  0.00    -0.238 N 
ATOM      2  C   UNL d   1      33.115  20.312 -21.370  0.00  0.00     0.269 A 
ATOM      3  C   UNL d   1      32.964  20.895 -22.579  0.00  0.00     0.285 A 
ATOM      4  C   UNL d   1      33.155  20.078 -22.697  0.00  0.00     0.142 A 
ATOM      5  C   UNL d   1      33.240  19.754 -21.948  0.00  0.00     0.085 A 
ATOM      6  O   UNL d   1      33.156  20.173 -20.567  0.00  0.00    -0.267 OA
ATOM      7  O   UNL d   1      32.822  21.467 -23.162  0.00  0.00    -0.265 OA
ENDROOT
BRANCH   4   8
ATOM      8  N   UNL d   1      33.241  19.682 -23.404  0.00  0.00    -0.241 NA
BRANCH   8   9
ATOM      9  C   UNL d   1      32.839  18.981 -23.531  0.00  0.00     0.082 A 
ATOM     10  C   UNL d   1      32.272  18.933 -24.136  0.00  0.00     0.021 A 
ATOM     11  C   UNL d   1      31.856  18.234 -24.280  0.00  0.00     0.019 A 
ATOM     12  C   UNL d   1      32.014  17.563 -23.800  0.00  0.00     0.064 A 
ATOM     13  C   UNL d   1      32.580  17.598 -23.190  0.00  0.00     0.019 A 
ATOM     14  C   UNL d   1      32.990  18.314 -23.061  0.00  0.00     0.021 A 
BRANCH  12  15
ATOM     15  N   UNL d   1      31.611  16.858 -23.926  0.00  0.00    -0.300 N 
ATOM     16  C   UNL d   1      32.004  16.227 -24.265  0.00  0.00     0.107 A 
ATOM     17  C   UNL d   1      31.612  15.520 -24.395  0.00  0.00     0.142 A 
ATOM     18  O   UNL d   1      30.815  15.453 -24.180  0.00  0.00    -0.300 OA
ATOM     19  C   UNL d   1      30.407  16.092 -23.835  0.00  0.00     0.142 A 
ATOM     20  C   UNL d   1      30.817  16.792 -23.712  0.00  0.00     0.107 A 
ENDBRANCH  12  15
ENDBRANCH   8   9
ENDBRANCH   4   8
BRANCH   1  21
ATOM     21  C   UNL d   1      32.773  21.756 -21.435  0.00  0.00     0.097 A 
ATOM     22  C   UNL d   1      32.138  21.830 -20.925  0.00  0.00     0.156 A 
ATOM     23  F   UNL d   1      31.660  21.186 -20.747  0.00  0.00    -0.203 F 
ATOM     24  C   UNL d   1      31.968  22.562 -20.579  0.00  0.00     0.031 A 
ATOM     25  C   UNL d   1      32.438  23.213 -20.749  0.00  0.00     0.002 A 
ATOM     26  C   UNL d   1      33.074  23.131 -21.262  0.00  0.00     0.002 A 
ATOM     27  C   UNL d   1      33.241  22.400 -21.605  0.00  0.00     0.020 A 
ENDBRANCH   1  21
TORSDOF 4
ENDMDL
MODEL 2
REMARK VINA RESULT:      -1.7      1.704      5.552
REMARK  4 active torsions:
REMARK  status: ('A' for Active; 'I' for Inactive)
REMARK    1  A    between atoms: C_6  and  N_1 
REMARK    2  A    between atoms: N_8  and  C_4 
REMARK    3  A    between atoms: N_7  and  C_10 
REMARK    4  A    between atoms: C_16  and  N_8 
ROOT
ATOM      1  N   UNL d   1      29.930  16.296 -23.817  0.00  0.00    -0.238 N 
ATOM      2  C   UNL d   1      30.413  15.981 -23.198  0.00  0.00     0.269 A 
ATOM      3  C   UNL d   1      30.385  16.800 -24.271  0.00  0.00     0.285 A 
ATOM      4  C   UNL d   1      31.167  16.812 -23.946  0.00  0.00     0.142 A 
ATOM      5  C   UNL d   1      31.151  16.307 -23.299  0.00  0.00     0.085 A 
ATOM      6  O   UNL d   1      30.210  15.456 -22.608  0.00  0.00    -0.267 OA
ATOM      7  O   UNL d   1      30.110  17.218 -24.932  0.00  0.00    -0.265 OA
ENDROOT
BRANCH   4   8
ATOM      8  N   UNL d   1      31.812  17.234 -24.210  0.00  0.00    -0.241 NA
BRANCH   8   9
ATOM      9  C   UNL d   1      32.049  17.910 -23.814  0.00  0.00     0.082 A 
ATOM     10  C   UNL d   1      31.873  18.657 -24.130  0.00  0.00     0.021 A 
ATOM     11  C   UNL d   1      32.103  19.351 -23.746  0.00  0.00     0.019 A 
ATOM     12  C   UNL d   1      32.524  19.290 -23.021  0.00  0.00     0.064 A 
ATOM     13  C   UNL d   1      32.707  18.547 -22.694  0.00  0.00     0.019 A 
ATOM     14  C   UNL d   1      32.465  17.857 -23.098  0.00  0.00     0.021 A 
BRANCH  12  15
ATOM     15  N   UNL d   1      32.763  19.968 -22.622  0.00  0.00    -0.300 N 
ATOM     16  C   UNL d   1      32.986  20.628 -23.050  0.00  0.00     0.107 A 
ATOM     17  C   UNL d   1      33.225  21.308 -22.662  0.00  0.00     0.142 A 
ATOM     18  O   UNL d   1      33.239  21.320 -21.833  0.00  0.00    -0.300 OA
ATOM     19  C   UNL d   1      33.013  20.651 -21.390  0.00  0.00     0.142 A 
ATOM     20  C   UNL d   1      32.776  19.979 -21.797  0.00  0.00     0.107 A 
ENDBRANCH  12  15
ENDBRANCH   8   9
ENDBRANCH   4   8
BRANCH   1  21
ATOM     21  C   UNL d   1      29.143  16.135 -23.952  0.00  0.00     0.097 A 
ATOM     22  C   UNL d   1      28.575  16.415 -23.435  0.00  0.00     0.156 A 
ATOM     23  F   UNL d   1      28.783  16.859 -22.776  0.00  0.00    -0.203 F 
ATOM     24  C   UNL d   1      27.775  16.252 -23.570  0.00  0.00     0.031 A 
ATOM     25  C   UNL d   1      27.554  15.809 -24.225  0.00  0.00     0.002 A 
ATOM     26  C   UNL d   1      28.130  15.531 -24.740  0.00  0.00     0.002 A 
ATOM     27  C   UNL d   1      28.926  15.695 -24.602  0.00  0.00     0.020 A 
ENDBRANCH   1  21
TORSDOF 4
ENDMDL
