MODEL 1
REMARK VINA RESULT:      59.5      0.000      0.000
REMARK  4 active torsions:
REMARK  status: ('A' for Active; 'I' for Inactive)
REMARK    1  A    between atoms: C_2  and  S_1 
REMARK    2  A    between atoms: N_3  and  S_1 
REMARK    3  A    between atoms: C_4  and  C_6 
REMARK       I    between atoms: N_7  and  C_4 
REMARK    4  A    between atoms: C_14  and  N_7 
ROOT
ATOM      1  C   UNL d   1      14.026  12.917  -1.531  0.00  0.00     0.104 A 
ATOM      2  C   UNL d   1      14.461  13.609  -1.431  0.00  0.00     0.018 A 
ATOM      3  C   UNL d   1      14.670  13.857  -0.671  0.00  0.00     0.059 A 
ATOM      4  C   UNL d   1      13.799  12.471  -0.878  0.00  0.00     0.012 A 
ATOM      5  C   UNL d   1      14.443  13.412  -0.014  0.00  0.00     0.005 A 
ATOM      6  C   UNL d   1      14.008  12.719  -0.118  0.00  0.00     0.001 A 
ATOM      7  C   UNL d   1      13.364  11.779  -0.978  0.00  0.00     0.001 C 
ENDROOT
BRANCH   3   8
ATOM      8  C   UNL d   1      15.105  14.548  -0.562  0.00  0.00     0.279 C 
ATOM      9  N   UNL d   1      14.864  15.245  -0.923  0.00  0.00    -0.208 NA
ATOM     10  O   UNL d   1      15.778  14.537  -0.091  0.00  0.00    -0.265 OA
BRANCH   9  11
ATOM     11  C   UNL d   1      15.296  15.940  -0.817  0.00  0.00     0.087 A 
ATOM     12  C   UNL d   1      14.944  16.661  -0.982  0.00  0.00     0.045 A 
ATOM     13  C   UNL d   1      15.372  17.363  -0.878  0.00  0.00     0.121 A 
ATOM     14  O   UNL d   1      15.175  18.163  -0.995  0.00  0.00    -0.299 OA
ATOM     15  C   UNL d   1      16.150  17.327  -0.608  0.00  0.00     0.119 A 
ATOM     16  C   UNL d   1      15.834  18.611  -0.795  0.00  0.00     0.304 A 
ATOM     17  O   UNL d   1      16.446  18.102  -0.553  0.00  0.00    -0.300 OA
ATOM     18  C   UNL d   1      16.509  16.592  -0.439  0.00  0.00     0.028 A 
ATOM     19  C   UNL d   1      16.077  15.896  -0.545  0.00  0.00     0.021 A 
ENDBRANCH   9  11
ENDBRANCH   3   8
BRANCH   1  20
ATOM     20  S   UNL d   1      13.819  12.671  -2.284  0.00  0.00     0.271 S 
ATOM     21  O   UNL d   1      13.823  11.885  -2.029  0.00  0.00    -0.200 OA
ATOM     22  O   UNL d   1      13.815  13.577  -2.578  0.00  0.00    -0.200 OA
BRANCH  20  23
ATOM     23  N   UNL d   1      13.610  12.483  -3.063  0.00  0.00    -0.229 N 
ATOM     24  C   UNL d   1      13.202  12.981  -3.582  0.00  0.00     0.092 A 
ATOM     25  C   UNL d   1      13.112  12.573  -4.294  0.00  0.00     0.021 A 
ATOM     26  C   UNL d   1      13.466  11.827  -4.208  0.00  0.00     0.021 A 
ATOM     27  C   UNL d   1      13.769  11.779  -3.452  0.00  0.00     0.092 A 
ENDBRANCH  20  23
ENDBRANCH   1  20
TORSDOF 4
ENDMDL
