MODEL 1
REMARK VINA RESULT:      70.8      0.000      0.000
REMARK  9 active torsions:
REMARK  status: ('A' for Active; 'I' for Inactive)
REMARK    1  A    between atoms: C_9  and  C_1 
REMARK    2  A    between atoms: N_8  and  C_2 
REMARK    3  A    between atoms: C_10  and  C_4 
REMARK    4  A    between atoms: C_6  and  N_7 
REMARK    5  A    between atoms: N_7  and  N_8 
REMARK    6  A    between atoms: O_18  and  C_9 
REMARK    7  A    between atoms: O_19  and  C_10 
REMARK    8  A    between atoms: C_23  and  O_18 
REMARK    9  A    between atoms: C_24  and  O_19 
ROOT
ATOM      1  C   UNL d   1     -48.575  28.475  35.518  0.00  0.00     0.090 A 
ATOM      2  C   UNL d   1     -48.840  28.366  34.769  0.00  0.00     0.138 A 
ATOM      3  C   UNL d   1     -48.131  29.141  35.523  0.00  0.00     0.018 A 
ATOM      4  C   UNL d   1     -48.092  29.471  34.820  0.00  0.00     0.095 A 
ATOM      5  S   UNL d   1     -48.532  29.007  34.307  0.00  0.00    -0.061 SA
ATOM      6  C   UNL d   1     -47.725  29.483  36.217  0.00  0.00     0.001 C 
ENDROOT
BRANCH   2   7
ATOM      7  N   UNL d   1     -49.317  27.724  34.570  0.00  0.00    -0.141 NA
BRANCH   7   8
ATOM      8  N   UNL d   1     -49.602  27.599  33.785  0.00  0.00    -0.141 NA
BRANCH   8   9
ATOM      9  C   UNL d   1     -50.167  26.977  33.628  0.00  0.00     0.180 A 
ATOM     10  C   UNL d   1     -50.983  27.205  33.570  0.00  0.00     0.218 A 
ATOM     11  O   UNL d   1     -51.178  27.999  33.667  0.00  0.00    -0.285 OA
ATOM     12  C   UNL d   1     -51.552  26.626  33.419  0.00  0.00     0.044 A 
ATOM     13  C   UNL d   1     -51.356  25.831  33.321  0.00  0.00     0.007 A 
ATOM     14  C   UNL d   1     -50.550  25.587  33.376  0.00  0.00     0.044 A 
ATOM     15  C   UNL d   1     -49.951  26.168  33.531  0.00  0.00     0.218 A 
ATOM     16  O   UNL d   1     -49.185  25.929  33.581  0.00  0.00    -0.285 OA
ENDBRANCH   8   9
ENDBRANCH   7   8
ENDBRANCH   2   7
BRANCH   1  17
ATOM     17  C   UNL d   1     -48.744  27.970  36.170  0.00  0.00     0.302 C 
ATOM     18  O   UNL d   1     -48.337  27.246  36.267  0.00  0.00    -0.259 OA
BRANCH  17  19
ATOM     19  O   UNL d   1     -49.336  28.205  36.735  0.00  0.00    -0.271 OA
BRANCH  19  20
ATOM     20  C   UNL d   1     -49.780  27.634  37.132  0.00  0.00     0.126 C 
ATOM     21  C   UNL d   1     -50.052  27.801  37.891  0.00  0.00     0.029 C 
ENDBRANCH  19  20
ENDBRANCH  17  19
ENDBRANCH   1  17
BRANCH   4  22
ATOM     22  C   UNL d   1     -47.671  30.175  34.637  0.00  0.00     0.306 C 
ATOM     23  O   UNL d   1     -46.870  30.172  34.580  0.00  0.00    -0.258 OA
BRANCH  22  24
ATOM     24  O   UNL d   1     -48.123  30.851  34.522  0.00  0.00    -0.271 OA
BRANCH  24  25
ATOM     25  C   UNL d   1     -47.722  31.593  34.429  0.00  0.00     0.126 C 
ATOM     26  C   UNL d   1     -48.110  32.208  34.081  0.00  0.00     0.029 C 
ENDBRANCH  24  25
ENDBRANCH  22  24
ENDBRANCH   4  22
TORSDOF 9
ENDMDL
MODEL 2
REMARK VINA RESULT:      72.4      1.666      4.575
REMARK  9 active torsions:
REMARK  status: ('A' for Active; 'I' for Inactive)
REMARK    1  A    between atoms: C_9  and  C_1 
REMARK    2  A    between atoms: N_8  and  C_2 
REMARK    3  A    between atoms: C_10  and  C_4 
REMARK    4  A    between atoms: C_6  and  N_7 
REMARK    5  A    between atoms: N_7  and  N_8 
REMARK    6  A    between atoms: O_18  and  C_9 
REMARK    7  A    between atoms: O_19  and  C_10 
REMARK    8  A    between atoms: C_23  and  O_18 
REMARK    9  A    between atoms: C_24  and  O_19 
ROOT
ATOM      1  C   UNL d   1     -47.936  29.403  35.100  0.00  0.00     0.090 A 
ATOM      2  C   UNL d   1     -48.258  29.896  34.557  0.00  0.00     0.138 A 
ATOM      3  C   UNL d   1     -48.262  28.680  34.994  0.00  0.00     0.018 A 
ATOM      4  C   UNL d   1     -48.778  28.675  34.412  0.00  0.00     0.095 A 
ATOM      5  S   UNL d   1     -48.806  29.434  34.104  0.00  0.00    -0.061 SA
ATOM      6  C   UNL d   1     -48.083  27.961  35.458  0.00  0.00     0.001 C 
ENDROOT
BRANCH   2   7
ATOM      7  N   UNL d   1     -48.041  30.690  34.514  0.00  0.00    -0.141 NA
BRANCH   7   8
ATOM      8  N   UNL d   1     -48.211  31.169  33.840  0.00  0.00    -0.141 NA
BRANCH   8   9
ATOM      9  C   UNL d   1     -48.012  32.001  33.843  0.00  0.00     0.180 A 
ATOM     10  C   UNL d   1     -48.627  32.543  34.069  0.00  0.00     0.218 A 
ATOM     11  O   UNL d   1     -49.366  32.239  34.268  0.00  0.00    -0.285 OA
ATOM     12  C   UNL d   1     -48.464  33.352  34.082  0.00  0.00     0.044 A 
ATOM     13  C   UNL d   1     -47.724  33.655  33.882  0.00  0.00     0.007 A 
ATOM     14  C   UNL d   1     -47.102  33.132  33.656  0.00  0.00     0.044 A 
ATOM     15  C   UNL d   1     -47.251  32.296  33.637  0.00  0.00     0.218 A 
ATOM     16  O   UNL d   1     -46.654  31.803  33.420  0.00  0.00    -0.285 OA
ENDBRANCH   8   9
ENDBRANCH   7   8
ENDBRANCH   2   7
BRANCH   1  17
ATOM     17  C   UNL d   1     -47.360  29.622  35.672  0.00  0.00     0.302 C 
ATOM     18  O   UNL d   1     -46.545  29.495  35.531  0.00  0.00    -0.259 OA
BRANCH  17  19
ATOM     19  O   UNL d   1     -47.614  29.977  36.404  0.00  0.00    -0.271 OA
BRANCH  19  20
ATOM     20  C   UNL d   1     -47.113  29.982  37.059  0.00  0.00     0.126 C 
ATOM     21  C   UNL d   1     -46.763  30.693  37.284  0.00  0.00     0.029 C 
ENDBRANCH  19  20
ENDBRANCH  17  19
ENDBRANCH   1  17
BRANCH   4  22
ATOM     22  C   UNL d   1     -49.218  28.005  34.158  0.00  0.00     0.306 C 
ATOM     23  O   UNL d   1     -48.934  27.262  34.268  0.00  0.00    -0.258 OA
BRANCH  22  24
ATOM     24  O   UNL d   1     -49.940  28.158  33.798  0.00  0.00    -0.271 OA
BRANCH  24  25
ATOM     25  C   UNL d   1     -50.295  27.544  33.331  0.00  0.00     0.126 C 
ATOM     26  C   UNL d   1     -51.098  27.485  33.308  0.00  0.00     0.029 C 
ENDBRANCH  24  25
ENDBRANCH  22  24
ENDBRANCH   4  22
TORSDOF 9
ENDMDL
MODEL 3
REMARK VINA RESULT:      73.4      2.299      4.262
REMARK  9 active torsions:
REMARK  status: ('A' for Active; 'I' for Inactive)
REMARK    1  A    between atoms: C_9  and  C_1 
REMARK    2  A    between atoms: N_8  and  C_2 
REMARK    3  A    between atoms: C_10  and  C_4 
REMARK    4  A    between atoms: C_6  and  N_7 
REMARK    5  A    between atoms: N_7  and  N_8 
REMARK    6  A    between atoms: O_18  and  C_9 
REMARK    7  A    between atoms: O_19  and  C_10 
REMARK    8  A    between atoms: C_23  and  O_18 
REMARK    9  A    between atoms: C_24  and  O_19 
ROOT
ATOM      1  C   UNL d   1     -51.115  26.247  34.537  0.00  0.00     0.090 A 
ATOM      2  C   UNL d   1     -51.059  26.426  35.316  0.00  0.00     0.138 A 
ATOM      3  C   UNL d   1     -50.503  26.601  34.163  0.00  0.00     0.018 A 
ATOM      4  C   UNL d   1     -50.052  27.000  34.654  0.00  0.00     0.095 A 
ATOM      5  S   UNL d   1     -50.372  26.916  35.404  0.00  0.00    -0.061 SA
ATOM      6  C   UNL d   1     -50.332  26.564  33.306  0.00  0.00     0.001 C 
ENDROOT
BRANCH   2   7
ATOM      7  N   UNL d   1     -51.609  26.146  35.863  0.00  0.00    -0.141 NA
BRANCH   7   8
ATOM      8  N   UNL d   1     -51.856  26.603  36.529  0.00  0.00    -0.141 NA
BRANCH   8   9
ATOM      9  C   UNL d   1     -51.912  26.239  37.301  0.00  0.00     0.180 A 
ATOM     10  C   UNL d   1     -52.616  25.792  37.465  0.00  0.00     0.218 A 
ATOM     11  O   UNL d   1     -53.193  25.736  36.878  0.00  0.00    -0.285 OA
ATOM     12  C   UNL d   1     -52.700  25.429  38.201  0.00  0.00     0.044 A 
ATOM     13  C   UNL d   1     -52.122  25.485  38.787  0.00  0.00     0.007 A 
ATOM     14  C   UNL d   1     -51.417  25.925  38.642  0.00  0.00     0.044 A 
ATOM     15  C   UNL d   1     -51.314  26.305  37.890  0.00  0.00     0.218 A 
ATOM     16  O   UNL d   1     -50.639  26.723  37.758  0.00  0.00    -0.285 OA
ENDBRANCH   8   9
ENDBRANCH   7   8
ENDBRANCH   2   7
BRANCH   1  17
ATOM     17  C   UNL d   1     -51.716  25.770  34.191  0.00  0.00     0.302 C 
ATOM     18  O   UNL d   1     -52.477  26.082  34.041  0.00  0.00    -0.259 OA
BRANCH  17  19
ATOM     19  O   UNL d   1     -51.541  24.960  33.993  0.00  0.00    -0.271 OA
BRANCH  19  20
ATOM     20  C   UNL d   1     -51.939  24.590  33.372  0.00  0.00     0.126 C 
ATOM     21  C   UNL d   1     -51.892  23.770  33.306  0.00  0.00     0.029 C 
ENDBRANCH  19  20
ENDBRANCH  17  19
ENDBRANCH   1  17
BRANCH   4  22
ATOM     22  C   UNL d   1     -49.365  27.436  34.440  0.00  0.00     0.306 C 
ATOM     23  O   UNL d   1     -48.964  27.264  33.765  0.00  0.00    -0.258 OA
BRANCH  22  24
ATOM     24  O   UNL d   1     -49.136  28.033  34.954  0.00  0.00    -0.271 OA
BRANCH  24  25
ATOM     25  C   UNL d   1     -48.409  28.442  34.799  0.00  0.00     0.126 C 
ATOM     26  C   UNL d   1     -48.076  28.885  35.383  0.00  0.00     0.029 C 
ENDBRANCH  24  25
ENDBRANCH  22  24
ENDBRANCH   4  22
TORSDOF 9
ENDMDL
MODEL 4
REMARK VINA RESULT:      73.6      2.883      5.077
REMARK  9 active torsions:
REMARK  status: ('A' for Active; 'I' for Inactive)
REMARK    1  A    between atoms: C_9  and  C_1 
REMARK    2  A    between atoms: N_8  and  C_2 
REMARK    3  A    between atoms: C_10  and  C_4 
REMARK    4  A    between atoms: C_6  and  N_7 
REMARK    5  A    between atoms: N_7  and  N_8 
REMARK    6  A    between atoms: O_18  and  C_9 
REMARK    7  A    between atoms: O_19  and  C_10 
REMARK    8  A    between atoms: C_23  and  O_18 
REMARK    9  A    between atoms: C_24  and  O_19 
ROOT
ATOM      1  C   UNL d   1     -51.746  25.024  34.659  0.00  0.00     0.090 A 
ATOM      2  C   UNL d   1     -51.671  25.612  35.198  0.00  0.00     0.138 A 
ATOM      3  C   UNL d   1     -51.269  25.200  34.041  0.00  0.00     0.018 A 
ATOM      4  C   UNL d   1     -50.890  25.870  34.147  0.00  0.00     0.095 A 
ATOM      5  S   UNL d   1     -51.118  26.168  34.876  0.00  0.00    -0.061 SA
ATOM      6  C   UNL d   1     -51.165  24.720  33.317  0.00  0.00     0.001 C 
ENDROOT
BRANCH   2   7
ATOM      7  N   UNL d   1     -52.091  25.601  35.907  0.00  0.00    -0.141 NA
BRANCH   7   8
ATOM      8  N   UNL d   1     -52.001  26.202  36.494  0.00  0.00    -0.141 NA
BRANCH   8   9
ATOM      9  C   UNL d   1     -52.030  25.997  37.324  0.00  0.00     0.180 A 
ATOM     10  C   UNL d   1     -51.342  26.180  37.789  0.00  0.00     0.218 A 
ATOM     11  O   UNL d   1     -50.699  26.536  37.417  0.00  0.00    -0.285 OA
ATOM     12  C   UNL d   1     -51.339  25.994  38.593  0.00  0.00     0.044 A 
ATOM     13  C   UNL d   1     -51.983  25.638  38.964  0.00  0.00     0.007 A 
ATOM     14  C   UNL d   1     -52.675  25.450  38.518  0.00  0.00     0.044 A 
ATOM     15  C   UNL d   1     -52.695  25.633  37.689  0.00  0.00     0.218 A 
ATOM     16  O   UNL d   1     -53.357  25.451  37.271  0.00  0.00    -0.285 OA
ENDBRANCH   8   9
ENDBRANCH   7   8
ENDBRANCH   2   7
BRANCH   1  17
ATOM     17  C   UNL d   1     -52.241  24.348  34.743  0.00  0.00     0.302 C 
ATOM     18  O   UNL d   1     -52.193  23.864  35.423  0.00  0.00    -0.259 OA
BRANCH  17  19
ATOM     19  O   UNL d   1     -52.796  24.160  34.125  0.00  0.00    -0.271 OA
BRANCH  19  20
ATOM     20  C   UNL d   1     -53.394  23.607  34.259  0.00  0.00     0.126 C 
ATOM     21  C   UNL d   1     -53.797  23.296  33.612  0.00  0.00     0.029 C 
ENDBRANCH  19  20
ENDBRANCH  17  19
ENDBRANCH   1  17
BRANCH   4  22
ATOM     22  C   UNL d   1     -50.347  26.213  33.604  0.00  0.00     0.306 C 
ATOM     23  O   UNL d   1     -49.715  25.796  33.335  0.00  0.00    -0.258 OA
BRANCH  22  24
ATOM     24  O   UNL d   1     -50.503  26.985  33.371  0.00  0.00    -0.271 OA
BRANCH  24  25
ATOM     25  C   UNL d   1     -49.915  27.578  33.523  0.00  0.00     0.126 C 
ATOM     26  C   UNL d   1     -50.065  28.341  33.313  0.00  0.00     0.029 C 
ENDBRANCH  24  25
ENDBRANCH  22  24
ENDBRANCH   4  22
TORSDOF 9
ENDMDL
