MODEL 1
REMARK VINA RESULT:      48.8      0.000      0.000
REMARK  3 active torsions:
REMARK  status: ('A' for Active; 'I' for Inactive)
REMARK    1  A    between atoms: C_13  and  C_2 
REMARK    2  A    between atoms: C_10  and  C_4 
REMARK    3  A    between atoms: N_7  and  C_10 
ROOT
ATOM      1  N   UNL d   1      58.276  49.706  51.562  0.00  0.00    -0.121 NA
ATOM      2  C   UNL d   1      58.191  49.689  50.745  0.00  0.00     0.204 A 
ATOM      3  O   UNL d   1      58.942  49.669  50.410  0.00  0.00    -0.267 OA
ATOM      4  C   UNL d   1      59.499  49.674  51.023  0.00  0.00     0.222 A 
ATOM      5  N   UNL d   1      59.083  49.698  51.738  0.00  0.00    -0.119 NA
ENDROOT
BRANCH   4   6
ATOM      6  C   UNL d   1      60.319  49.660  50.941  0.00  0.00     0.127 C 
BRANCH   6   7
ATOM      7  N   UNL d   1      60.698  48.968  50.701  0.00  0.00    -0.300 N 
ATOM      8  C   UNL d   1      61.226  48.994  50.071  0.00  0.00     0.081 A 
ATOM      9  C   UNL d   1      61.605  48.310  49.828  0.00  0.00     0.053 A 
ATOM     10  C   UNL d   1      61.457  47.596  50.213  0.00  0.00     0.239 A 
ATOM     11  C   UNL d   1      60.923  47.572  50.849  0.00  0.00     0.053 A 
ATOM     12  O   UNL d   1      61.274  46.904  50.634  0.00  0.00    -0.298 OA
ATOM     13  O   UNL d   1      61.994  47.570  49.589  0.00  0.00    -0.298 OA
ATOM     14  C   UNL d   1      60.545  48.264  51.089  0.00  0.00     0.081 A 
ATOM     15  C   UNL d   1      61.725  46.311  50.279  0.00  0.00     0.146 A 
ATOM     16  C   UNL d   1      62.226  46.781  49.549  0.00  0.00     0.146 A 
ENDBRANCH   6   7
ENDBRANCH   4   6
BRANCH   2  17
ATOM     17  C   UNL d   1      57.474  49.691  50.332  0.00  0.00     0.043 A 
ATOM     18  C   UNL d   1      56.759  49.678  50.749  0.00  0.00     0.004 A 
ATOM     19  C   UNL d   1      56.048  49.680  50.348  0.00  0.00     0.000 A 
ATOM     20  C   UNL d   1      56.040  49.695  49.519  0.00  0.00     0.000 A 
ATOM     21  C   UNL d   1      56.755  49.707  49.102  0.00  0.00     0.000 A 
ATOM     22  C   UNL d   1      57.466  49.705  49.509  0.00  0.00     0.004 A 
ENDBRANCH   2  17
TORSDOF 3
ENDMDL
MODEL 2
REMARK VINA RESULT:      50.6      0.959      4.472
REMARK  3 active torsions:
REMARK  status: ('A' for Active; 'I' for Inactive)
REMARK    1  A    between atoms: C_13  and  C_2 
REMARK    2  A    between atoms: C_10  and  C_4 
REMARK    3  A    between atoms: N_7  and  C_10 
ROOT
ATOM      1  N   UNL d   1      61.167  48.085  51.336  0.00  0.00    -0.121 NA
ATOM      2  C   UNL d   1      61.066  47.807  50.570  0.00  0.00     0.204 A 
ATOM      3  O   UNL d   1      60.653  48.377  50.144  0.00  0.00    -0.267 OA
ATOM      4  C   UNL d   1      60.496  49.015  50.649  0.00  0.00     0.222 A 
ATOM      5  N   UNL d   1      60.816  48.831  51.390  0.00  0.00    -0.119 NA
ENDROOT
BRANCH   4   6
ATOM      6  C   UNL d   1      60.094  49.708  50.454  0.00  0.00     0.127 C 
BRANCH   6   7
ATOM      7  N   UNL d   1      59.271  49.708  50.404  0.00  0.00    -0.300 N 
ATOM      8  C   UNL d   1      58.911  49.708  49.664  0.00  0.00     0.081 A 
ATOM      9  C   UNL d   1      58.095  49.708  49.608  0.00  0.00     0.053 A 
ATOM     10  C   UNL d   1      57.633  49.708  50.291  0.00  0.00     0.239 A 
ATOM     11  C   UNL d   1      57.999  49.708  51.037  0.00  0.00     0.053 A 
ATOM     12  O   UNL d   1      57.215  49.708  51.008  0.00  0.00    -0.298 OA
ATOM     13  O   UNL d   1      57.226  49.708  49.575  0.00  0.00    -0.298 OA
ATOM     14  C   UNL d   1      58.822  49.708  51.087  0.00  0.00     0.081 A 
ATOM     15  C   UNL d   1      56.418  49.707  50.792  0.00  0.00     0.146 A 
ATOM     16  C   UNL d   1      56.431  49.707  49.790  0.00  0.00     0.146 A 
ENDBRANCH   6   7
ENDBRANCH   4   6
BRANCH   2  17
ATOM     17  C   UNL d   1      61.333  47.081  50.279  0.00  0.00     0.043 A 
ATOM     18  C   UNL d   1      61.025  46.376  50.585  0.00  0.00     0.004 A 
ATOM     19  C   UNL d   1      61.285  45.656  50.302  0.00  0.00     0.000 A 
ATOM     20  C   UNL d   1      61.860  45.628  49.705  0.00  0.00     0.000 A 
ATOM     21  C   UNL d   1      62.168  46.332  49.399  0.00  0.00     0.000 A 
ATOM     22  C   UNL d   1      61.904  47.053  49.686  0.00  0.00     0.004 A 
ENDBRANCH   2  17
TORSDOF 3
ENDMDL
