MODEL 1
REMARK VINA RESULT:      -6.6      0.000      0.000
REMARK  5 active torsions:
REMARK  status: ('A' for Active; 'I' for Inactive)
REMARK    1  A    between atoms: N_2  and  C_1 
REMARK    2  A    between atoms: C_6  and  C_1 
REMARK    3  A    between atoms: O_4  and  N_2 
REMARK    4  A    between atoms: C_3  and  O_4 
REMARK    5  A    between atoms: C_5  and  C_3 
ROOT
ATOM      1  O   UNL d   1     -48.028  12.373  23.207  0.00  0.00    -0.168 OA
ENDROOT
BRANCH   1   2
ATOM      2  C   UNL d   1     -48.687  11.783  22.988  0.00  0.00     0.319 C 
ATOM      3  O   UNL d   1     -48.486  10.947  22.732  0.00  0.00    -0.257 OA
BRANCH   2   4
ATOM      4  C   UNL d   1     -49.480  12.019  23.026  0.00  0.00     0.066 A 
ATOM      5  C   UNL d   1     -49.792  12.479  22.408  0.00  0.00     0.012 A 
ATOM      6  C   UNL d   1     -50.589  12.711  22.455  0.00  0.00     0.035 A 
ATOM      7 BR   UNL d   1     -50.898  13.169  21.838  0.00  0.00    -0.049 Br
ATOM      8  C   UNL d   1     -51.061  12.493  23.093  0.00  0.00     0.007 A 
ATOM      9  C   UNL d   1     -50.722  12.036  23.689  0.00  0.00     0.001 A 
ATOM     10  C   UNL d   1     -49.951  11.802  23.661  0.00  0.00     0.005 A 
ENDBRANCH   2   4
ENDBRANCH   1   2
BRANCH   1  11
ATOM     11  N   UNL d   1     -47.257  12.246  22.977  0.00  0.00    -0.100 NA
BRANCH  11  12
ATOM     12  C   UNL d   1     -46.665  12.786  23.149  0.00  0.00     0.228 C 
ATOM     13  N   UNL d   1     -46.819  13.393  23.683  0.00  0.00    -0.123 N 
BRANCH  12  14
ATOM     14  C   UNL d   1     -45.926  12.736  22.803  0.00  0.00     0.121 A 
ATOM     15  N   UNL d   1     -45.404  12.154  23.032  0.00  0.00    -0.241 NA
ATOM     16  C   UNL d   1     -44.652  12.109  22.675  0.00  0.00     0.099 A 
ATOM     17  C   UNL d   1     -44.442  12.655  22.092  0.00  0.00     0.021 A 
ATOM     18  C   UNL d   1     -44.975  13.246  21.861  0.00  0.00     0.003 A 
ATOM     19  C   UNL d   1     -45.716  13.282  22.220  0.00  0.00     0.022 A 
ENDBRANCH  12  14
ENDBRANCH  11  12
ENDBRANCH   1  11
TORSDOF 5
ENDMDL
MODEL 2
REMARK VINA RESULT:      -6.2      1.827      2.281
REMARK  5 active torsions:
REMARK  status: ('A' for Active; 'I' for Inactive)
REMARK    1  A    between atoms: N_2  and  C_1 
REMARK    2  A    between atoms: C_6  and  C_1 
REMARK    3  A    between atoms: O_4  and  N_2 
REMARK    4  A    between atoms: C_3  and  O_4 
REMARK    5  A    between atoms: C_5  and  C_3 
ROOT
ATOM      1  O   UNL d   1     -47.811  13.888  22.797  0.00  0.00    -0.168 OA
ENDROOT
BRANCH   1   2
ATOM      2  C   UNL d   1     -48.555  14.049  22.298  0.00  0.00     0.319 C 
ATOM      3  O   UNL d   1     -48.595  13.791  21.440  0.00  0.00    -0.257 OA
BRANCH   2   4
ATOM      4  C   UNL d   1     -49.203  14.437  22.638  0.00  0.00     0.066 A 
ATOM      5  C   UNL d   1     -49.800  13.983  22.997  0.00  0.00     0.012 A 
ATOM      6  C   UNL d   1     -50.446  14.383  23.335  0.00  0.00     0.035 A 
ATOM      7 BR   UNL d   1     -51.040  13.929  23.692  0.00  0.00    -0.049 Br
ATOM      8  C   UNL d   1     -50.499  15.204  23.319  0.00  0.00     0.007 A 
ATOM      9  C   UNL d   1     -49.890  15.625  22.956  0.00  0.00     0.001 A 
ATOM     10  C   UNL d   1     -49.255  15.256  22.622  0.00  0.00     0.005 A 
ENDBRANCH   2   4
ENDBRANCH   1   2
BRANCH   1  11
ATOM     11  N   UNL d   1     -47.440  13.163  22.779  0.00  0.00    -0.100 NA
BRANCH  11  12
ATOM     12  C   UNL d   1     -46.720  13.040  23.150  0.00  0.00     0.228 C 
ATOM     13  N   UNL d   1     -46.269  13.691  23.376  0.00  0.00    -0.123 N 
BRANCH  12  14
ATOM     14  C   UNL d   1     -46.439  12.288  23.303  0.00  0.00     0.121 A 
ATOM     15  N   UNL d   1     -45.646  12.121  23.220  0.00  0.00    -0.241 NA
ATOM     16  C   UNL d   1     -45.366  11.352  23.377  0.00  0.00     0.099 A 
ATOM     17  C   UNL d   1     -45.895  10.764  23.615  0.00  0.00     0.021 A 
ATOM     18  C   UNL d   1     -46.702  10.937  23.698  0.00  0.00     0.003 A 
ATOM     19  C   UNL d   1     -46.968  11.701  23.541  0.00  0.00     0.022 A 
ENDBRANCH  12  14
ENDBRANCH  11  12
ENDBRANCH   1  11
TORSDOF 5
ENDMDL
MODEL 3
REMARK VINA RESULT:      -5.9      1.809      2.138
REMARK  5 active torsions:
REMARK  status: ('A' for Active; 'I' for Inactive)
REMARK    1  A    between atoms: N_2  and  C_1 
REMARK    2  A    between atoms: C_6  and  C_1 
REMARK    3  A    between atoms: O_4  and  N_2 
REMARK    4  A    between atoms: C_3  and  O_4 
REMARK    5  A    between atoms: C_5  and  C_3 
ROOT
ATOM      1  O   UNL d   1     -48.023  14.088  23.048  0.00  0.00    -0.168 OA
ENDROOT
BRANCH   1   2
ATOM      2  C   UNL d   1     -48.432  14.829  22.713  0.00  0.00     0.319 C 
ATOM      3  O   UNL d   1     -47.955  15.469  22.303  0.00  0.00    -0.257 OA
BRANCH   2   4
ATOM      4  C   UNL d   1     -49.253  14.916  22.787  0.00  0.00     0.066 A 
ATOM      5  C   UNL d   1     -49.749  14.498  22.267  0.00  0.00     0.012 A 
ATOM      6  C   UNL d   1     -50.571  14.591  22.349  0.00  0.00     0.035 A 
ATOM      7 BR   UNL d   1     -51.064  14.174  21.830  0.00  0.00    -0.049 Br
ATOM      8  C   UNL d   1     -50.891  15.082  22.927  0.00  0.00     0.007 A 
ATOM      9  C   UNL d   1     -50.372  15.482  23.427  0.00  0.00     0.001 A 
ATOM     10  C   UNL d   1     -49.572  15.405  23.363  0.00  0.00     0.005 A 
ENDBRANCH   2   4
ENDBRANCH   1   2
BRANCH   1  11
ATOM     11  N   UNL d   1     -47.257  13.902  22.843  0.00  0.00    -0.100 NA
BRANCH  11  12
ATOM     12  C   UNL d   1     -46.902  13.208  23.098  0.00  0.00     0.228 C 
ATOM     13  N   UNL d   1     -47.298  12.731  23.640  0.00  0.00    -0.123 N 
BRANCH  12  14
ATOM     14  C   UNL d   1     -46.166  12.979  22.828  0.00  0.00     0.121 A 
ATOM     15  N   UNL d   1     -45.770  12.364  23.185  0.00  0.00    -0.241 NA
ATOM     16  C   UNL d   1     -45.019  12.135  22.905  0.00  0.00     0.099 A 
ATOM     17  C   UNL d   1     -44.682  12.535  22.266  0.00  0.00     0.021 A 
ATOM     18  C   UNL d   1     -45.086  13.162  21.904  0.00  0.00     0.003 A 
ATOM     19  C   UNL d   1     -45.828  13.379  22.189  0.00  0.00     0.022 A 
ENDBRANCH  12  14
ENDBRANCH  11  12
ENDBRANCH   1  11
TORSDOF 5
ENDMDL
MODEL 4
REMARK VINA RESULT:      -5.8      2.388      4.265
REMARK  5 active torsions:
REMARK  status: ('A' for Active; 'I' for Inactive)
REMARK    1  A    between atoms: N_2  and  C_1 
REMARK    2  A    between atoms: C_6  and  C_1 
REMARK    3  A    between atoms: O_4  and  N_2 
REMARK    4  A    between atoms: C_3  and  O_4 
REMARK    5  A    between atoms: C_5  and  C_3 
ROOT
ATOM      1  O   UNL d   1     -48.747  12.775  22.568  0.00  0.00    -0.168 OA
ENDROOT
BRANCH   1   2
ATOM      2  C   UNL d   1     -48.404  12.077  23.041  0.00  0.00     0.319 C 
ATOM      3  O   UNL d   1     -48.945  11.452  23.390  0.00  0.00    -0.257 OA
BRANCH   2   4
ATOM      4  C   UNL d   1     -47.585  12.016  23.151  0.00  0.00     0.066 A 
ATOM      5  C   UNL d   1     -47.091  12.589  22.808  0.00  0.00     0.012 A 
ATOM      6  C   UNL d   1     -46.270  12.519  22.924  0.00  0.00     0.035 A 
ATOM      7 BR   UNL d   1     -45.779  13.092  22.582  0.00  0.00    -0.049 Br
ATOM      8  C   UNL d   1     -45.951  11.902  23.365  0.00  0.00     0.007 A 
ATOM      9  C   UNL d   1     -46.469  11.350  23.691  0.00  0.00     0.001 A 
ATOM     10  C   UNL d   1     -47.267  11.401  23.590  0.00  0.00     0.005 A 
ENDBRANCH   2   4
ENDBRANCH   1   2
BRANCH   1  11
ATOM     11  N   UNL d   1     -49.484  13.078  22.739  0.00  0.00    -0.100 NA
BRANCH  11  12
ATOM     12  C   UNL d   1     -49.761  13.760  22.380  0.00  0.00     0.228 C 
ATOM     13  N   UNL d   1     -49.748  13.814  21.559  0.00  0.00    -0.123 N 
BRANCH  12  14
ATOM     14  C   UNL d   1     -50.049  14.388  22.816  0.00  0.00     0.121 A 
ATOM     15  N   UNL d   1     -50.770  14.330  23.192  0.00  0.00    -0.241 NA
ATOM     16  C   UNL d   1     -51.059  14.974  23.635  0.00  0.00     0.099 A 
ATOM     17  C   UNL d   1     -50.612  15.666  23.691  0.00  0.00     0.021 A 
ATOM     18  C   UNL d   1     -49.879  15.722  23.308  0.00  0.00     0.003 A 
ATOM     19  C   UNL d   1     -49.602  15.080  22.872  0.00  0.00     0.022 A 
ENDBRANCH  12  14
ENDBRANCH  11  12
ENDBRANCH   1  11
TORSDOF 5
ENDMDL
MODEL 5
REMARK VINA RESULT:      -5.7      2.337      4.763
REMARK  5 active torsions:
REMARK  status: ('A' for Active; 'I' for Inactive)
REMARK    1  A    between atoms: N_2  and  C_1 
REMARK    2  A    between atoms: C_6  and  C_1 
REMARK    3  A    between atoms: O_4  and  N_2 
REMARK    4  A    between atoms: C_3  and  O_4 
REMARK    5  A    between atoms: C_5  and  C_3 
ROOT
ATOM      1  O   UNL d   1     -47.814  13.757  22.644  0.00  0.00    -0.168 OA
ENDROOT
BRANCH   1   2
ATOM      2  C   UNL d   1     -46.943  13.906  22.862  0.00  0.00     0.319 C 
ATOM      3  O   UNL d   1     -46.675  14.713  23.147  0.00  0.00    -0.257 OA
BRANCH   2   4
ATOM      4  C   UNL d   1     -46.390  13.292  22.796  0.00  0.00     0.066 A 
ATOM      5  C   UNL d   1     -46.474  12.623  23.283  0.00  0.00     0.012 A 
ATOM      6  C   UNL d   1     -45.915  12.013  23.210  0.00  0.00     0.035 A 
ATOM      7 BR   UNL d   1     -46.000  11.347  23.696  0.00  0.00    -0.049 Br
ATOM      8  C   UNL d   1     -45.293  12.063  22.673  0.00  0.00     0.007 A 
ATOM      9  C   UNL d   1     -45.239  12.739  22.205  0.00  0.00     0.001 A 
ATOM     10  C   UNL d   1     -45.771  13.342  22.261  0.00  0.00     0.005 A 
ENDBRANCH   2   4
ENDBRANCH   1   2
BRANCH   1  11
ATOM     11  N   UNL d   1     -48.409  14.225  22.943  0.00  0.00    -0.100 NA
BRANCH  11  12
ATOM     12  C   UNL d   1     -49.163  14.218  22.622  0.00  0.00     0.228 C 
ATOM     13  N   UNL d   1     -49.298  13.802  21.925  0.00  0.00    -0.123 N 
BRANCH  12  14
ATOM     14  C   UNL d   1     -49.783  14.614  22.977  0.00  0.00     0.121 A 
ATOM     15  N   UNL d   1     -49.801  15.428  22.983  0.00  0.00    -0.241 NA
ATOM     16  C   UNL d   1     -50.437  15.826  23.347  0.00  0.00     0.099 A 
ATOM     17  C   UNL d   1     -51.045  15.391  23.698  0.00  0.00     0.021 A 
ATOM     18  C   UNL d   1     -51.025  14.562  23.690  0.00  0.00     0.003 A 
ATOM     19  C   UNL d   1     -50.391  14.179  23.328  0.00  0.00     0.022 A 
ENDBRANCH  12  14
ENDBRANCH  11  12
ENDBRANCH   1  11
TORSDOF 5
ENDMDL
MODEL 6
REMARK VINA RESULT:      -5.6      1.797      2.442
REMARK  5 active torsions:
REMARK  status: ('A' for Active; 'I' for Inactive)
REMARK    1  A    between atoms: N_2  and  C_1 
REMARK    2  A    between atoms: C_6  and  C_1 
REMARK    3  A    between atoms: O_4  and  N_2 
REMARK    4  A    between atoms: C_3  and  O_4 
REMARK    5  A    between atoms: C_5  and  C_3 
ROOT
ATOM      1  O   UNL d   1     -46.924  12.546  22.980  0.00  0.00    -0.168 OA
ENDROOT
BRANCH   1   2
ATOM      2  C   UNL d   1     -47.042  13.294  22.475  0.00  0.00     0.319 C 
ATOM      3  O   UNL d   1     -46.386  13.593  21.941  0.00  0.00    -0.257 OA
BRANCH   2   4
ATOM      4  C   UNL d   1     -47.761  13.705  22.508  0.00  0.00     0.066 A 
ATOM      5  C   UNL d   1     -48.414  13.403  22.092  0.00  0.00     0.012 A 
ATOM      6  C   UNL d   1     -49.131  13.823  22.131  0.00  0.00     0.035 A 
ATOM      7 BR   UNL d   1     -49.781  13.521  21.716  0.00  0.00    -0.049 Br
ATOM      8  C   UNL d   1     -49.198  14.517  22.567  0.00  0.00     0.007 A 
ATOM      9  C   UNL d   1     -48.531  14.789  22.968  0.00  0.00     0.001 A 
ATOM     10  C   UNL d   1     -47.827  14.397  22.943  0.00  0.00     0.005 A 
ENDBRANCH   2   4
ENDBRANCH   1   2
BRANCH   1  11
ATOM     11  N   UNL d   1     -46.193  12.194  23.047  0.00  0.00    -0.100 NA
BRANCH  11  12
ATOM     12  C   UNL d   1     -46.104  11.449  23.377  0.00  0.00     0.228 C 
ATOM     13  N   UNL d   1     -46.763  11.069  23.690  0.00  0.00    -0.123 N 
BRANCH  12  14
ATOM     14  C   UNL d   1     -45.378  11.075  23.403  0.00  0.00     0.121 A 
ATOM     15  N   UNL d   1     -44.704  11.470  23.173  0.00  0.00    -0.241 NA
ATOM     16  C   UNL d   1     -43.966  11.084  23.201  0.00  0.00     0.099 A 
ATOM     17  C   UNL d   1     -43.924  10.301  23.464  0.00  0.00     0.021 A 
ATOM     18  C   UNL d   1     -44.612   9.902  23.698  0.00  0.00     0.003 A 
ATOM     19  C   UNL d   1     -45.336  10.293  23.665  0.00  0.00     0.022 A 
ENDBRANCH  12  14
ENDBRANCH  11  12
ENDBRANCH   1  11
TORSDOF 5
ENDMDL
MODEL 7
REMARK VINA RESULT:      -5.5      2.066      4.618
REMARK  5 active torsions:
REMARK  status: ('A' for Active; 'I' for Inactive)
REMARK    1  A    between atoms: N_2  and  C_1 
REMARK    2  A    between atoms: C_6  and  C_1 
REMARK    3  A    between atoms: O_4  and  N_2 
REMARK    4  A    between atoms: C_3  and  O_4 
REMARK    5  A    between atoms: C_5  and  C_3 
ROOT
ATOM      1  O   UNL d   1     -47.784  13.501  22.375  0.00  0.00    -0.168 OA
ENDROOT
BRANCH   1   2
ATOM      2  C   UNL d   1     -47.008  13.715  22.800  0.00  0.00     0.319 C 
ATOM      3  O   UNL d   1     -46.930  14.489  23.247  0.00  0.00    -0.257 OA
BRANCH   2   4
ATOM      4  C   UNL d   1     -46.367  13.190  22.776  0.00  0.00     0.066 A 
ATOM      5  C   UNL d   1     -45.740  13.347  22.253  0.00  0.00     0.012 A 
ATOM      6  C   UNL d   1     -45.102  12.815  22.236  0.00  0.00     0.035 A 
ATOM      7 BR   UNL d   1     -44.478  12.972  21.714  0.00  0.00    -0.049 Br
ATOM      8  C   UNL d   1     -45.085  12.150  22.721  0.00  0.00     0.007 A 
ATOM      9  C   UNL d   1     -45.722  12.024  23.228  0.00  0.00     0.001 A 
ATOM     10  C   UNL d   1     -46.350  12.528  23.259  0.00  0.00     0.005 A 
ENDBRANCH   2   4
ENDBRANCH   1   2
BRANCH   1  11
ATOM     11  N   UNL d   1     -48.480  13.886  22.550  0.00  0.00    -0.100 NA
BRANCH  11  12
ATOM     12  C   UNL d   1     -49.192  13.659  22.215  0.00  0.00     0.228 C 
ATOM     13  N   UNL d   1     -49.284  13.707  21.398  0.00  0.00    -0.123 N 
BRANCH  12  14
ATOM     14  C   UNL d   1     -49.813  13.387  22.670  0.00  0.00     0.121 A 
ATOM     15  N   UNL d   1     -50.174  13.878  23.210  0.00  0.00    -0.241 NA
ATOM     16  C   UNL d   1     -50.807  13.594  23.672  0.00  0.00     0.099 A 
ATOM     17  C   UNL d   1     -51.064  12.815  23.578  0.00  0.00     0.021 A 
ATOM     18  C   UNL d   1     -50.695  12.316  23.028  0.00  0.00     0.003 A 
ATOM     19  C   UNL d   1     -50.070  12.607  22.577  0.00  0.00     0.022 A 
ENDBRANCH  12  14
ENDBRANCH  11  12
ENDBRANCH   1  11
TORSDOF 5
ENDMDL
MODEL 8
REMARK VINA RESULT:      -5.4      8.532      9.450
REMARK  5 active torsions:
REMARK  status: ('A' for Active; 'I' for Inactive)
REMARK    1  A    between atoms: N_2  and  C_1 
REMARK    2  A    between atoms: C_6  and  C_1 
REMARK    3  A    between atoms: O_4  and  N_2 
REMARK    4  A    between atoms: C_3  and  O_4 
REMARK    5  A    between atoms: C_5  and  C_3 
ROOT
ATOM      1  O   UNL d   1     -40.675  14.924  19.244  0.00  0.00    -0.168 OA
ENDROOT
BRANCH   1   2
ATOM      2  C   UNL d   1     -40.673  14.538  18.419  0.00  0.00     0.319 C 
ATOM      3  O   UNL d   1     -40.908  13.679  18.316  0.00  0.00    -0.257 OA
BRANCH   2   4
ATOM      4  C   UNL d   1     -40.454  14.984  17.756  0.00  0.00     0.066 A 
ATOM      5  C   UNL d   1     -39.681  14.909  17.461  0.00  0.00     0.012 A 
ATOM      6  C   UNL d   1     -39.470  15.361  16.795  0.00  0.00     0.035 A 
ATOM      7 BR   UNL d   1     -38.699  15.286  16.501  0.00  0.00    -0.049 Br
ATOM      8  C   UNL d   1     -40.008  15.870  16.435  0.00  0.00     0.007 A 
ATOM      9  C   UNL d   1     -40.766  15.921  16.753  0.00  0.00     0.001 A 
ATOM     10  C   UNL d   1     -40.989  15.491  17.398  0.00  0.00     0.005 A 
ENDBRANCH   2   4
ENDBRANCH   1   2
BRANCH   1  11
ATOM     11  N   UNL d   1     -40.521  14.486  19.913  0.00  0.00    -0.100 NA
BRANCH  11  12
ATOM     12  C   UNL d   1     -40.562  14.818  20.662  0.00  0.00     0.228 C 
ATOM     13  N   UNL d   1     -41.180  15.331  20.839  0.00  0.00    -0.123 N 
BRANCH  12  14
ATOM     14  C   UNL d   1     -40.004  14.652  21.235  0.00  0.00     0.121 A 
ATOM     15  N   UNL d   1     -39.902  13.889  21.501  0.00  0.00    -0.241 NA
ATOM     16  C   UNL d   1     -39.332  13.726  22.086  0.00  0.00     0.099 A 
ATOM     17  C   UNL d   1     -38.873  14.340  22.393  0.00  0.00     0.021 A 
ATOM     18  C   UNL d   1     -38.978  15.116  22.120  0.00  0.00     0.003 A 
ATOM     19  C   UNL d   1     -39.545  15.266  21.541  0.00  0.00     0.022 A 
ENDBRANCH  12  14
ENDBRANCH  11  12
ENDBRANCH   1  11
TORSDOF 5
ENDMDL
MODEL 9
REMARK VINA RESULT:      -5.4      8.475      9.471
REMARK  5 active torsions:
REMARK  status: ('A' for Active; 'I' for Inactive)
REMARK    1  A    between atoms: N_2  and  C_1 
REMARK    2  A    between atoms: C_6  and  C_1 
REMARK    3  A    between atoms: O_4  and  N_2 
REMARK    4  A    between atoms: C_3  and  O_4 
REMARK    5  A    between atoms: C_5  and  C_3 
ROOT
ATOM      1  O   UNL d   1     -40.080  14.349  19.740  0.00  0.00    -0.168 OA
ENDROOT
BRANCH   1   2
ATOM      2  C   UNL d   1     -40.450  14.473  20.563  0.00  0.00     0.319 C 
ATOM      3  O   UNL d   1     -41.335  14.392  20.683  0.00  0.00    -0.257 OA
BRANCH   2   4
ATOM      4  C   UNL d   1     -39.966  14.663  21.208  0.00  0.00     0.066 A 
ATOM      5  C   UNL d   1     -39.609  14.046  21.636  0.00  0.00     0.012 A 
ATOM      6  C   UNL d   1     -39.125  14.247  22.282  0.00  0.00     0.035 A 
ATOM      7 BR   UNL d   1     -38.769  13.632  22.708  0.00  0.00    -0.049 Br
ATOM      8  C   UNL d   1     -39.000  15.032  22.496  0.00  0.00     0.007 A 
ATOM      9  C   UNL d   1     -39.369  15.619  22.051  0.00  0.00     0.001 A 
ATOM     10  C   UNL d   1     -39.841  15.444  21.421  0.00  0.00     0.005 A 
ENDBRANCH   2   4
ENDBRANCH   1   2
BRANCH   1  11
ATOM     11  N   UNL d   1     -40.513  14.472  19.061  0.00  0.00    -0.100 NA
BRANCH  11  12
ATOM     12  C   UNL d   1     -40.180  14.378  18.318  0.00  0.00     0.228 C 
ATOM     13  N   UNL d   1     -39.658  13.756  18.188  0.00  0.00    -0.123 N 
BRANCH  12  14
ATOM     14  C   UNL d   1     -40.355  14.888  17.703  0.00  0.00     0.121 A 
ATOM     15  N   UNL d   1     -41.118  14.955  17.429  0.00  0.00    -0.241 NA
ATOM     16  C   UNL d   1     -41.290  15.476  16.802  0.00  0.00     0.099 A 
ATOM     17  C   UNL d   1     -40.682  15.922  16.463  0.00  0.00     0.021 A 
ATOM     18  C   UNL d   1     -39.906  15.852  16.744  0.00  0.00     0.003 A 
ATOM     19  C   UNL d   1     -39.747  15.334  17.364  0.00  0.00     0.022 A 
ENDBRANCH  12  14
ENDBRANCH  11  12
ENDBRANCH   1  11
TORSDOF 5
ENDMDL
