MODEL 1
REMARK VINA RESULT:      18.4      0.000      0.000
REMARK  0 active torsions:
REMARK  status: ('A' for Active; 'I' for Inactive)
ROOT
ATOM      1  C   UNL d   1     -58.276 -98.786 -45.194  0.00  0.00     0.110 A 
ATOM      2  C   UNL d   1     -57.609 -98.797 -44.710  0.00  0.00     0.110 A 
ATOM      3  C   UNL d   1     -59.037 -98.773 -44.862  0.00  0.00     0.207 A 
ATOM      4  C   UNL d   1     -57.701 -98.794 -43.894  0.00  0.00     0.207 A 
ATOM      5  C   UNL d   1     -59.108 -98.771 -44.048  0.00  0.00     0.043 A 
ATOM      6  C   UNL d   1     -58.440 -98.781 -43.563  0.00  0.00     0.043 A 
ATOM      7  O   UNL d   1     -59.697 -98.763 -45.341  0.00  0.00    -0.286 OA
ATOM      8  O   UNL d   1     -57.037 -98.805 -43.405  0.00  0.00    -0.286 OA
ATOM      9 CL   UNL d   1     -56.865 -98.809 -45.047  0.00  0.00    -0.078 Cl
ATOM     10 CL   UNL d   1     -58.190 -98.788 -46.015  0.00  0.00    -0.078 Cl
ATOM     11  C   UNL d   1     -59.868 -98.758 -43.716  0.00  0.00     0.003 A 
ATOM     12  C   UNL d   1     -58.552 -98.779 -42.744  0.00  0.00     0.003 A 
ATOM     13  C   UNL d   1     -59.958 -98.755 -42.898  0.00  0.00     0.000 A 
ATOM     14  C   UNL d   1     -59.288 -98.766 -42.394  0.00  0.00     0.000 A 
ENDROOT
TORSDOF 0
ENDMDL
MODEL 2
REMARK VINA RESULT:      19.1      1.283      2.276
REMARK  0 active torsions:
REMARK  status: ('A' for Active; 'I' for Inactive)
ROOT
ATOM      1  C   UNL d   1     -59.050 -98.755 -44.605  0.00  0.00     0.110 A 
ATOM      2  C   UNL d   1     -58.931 -98.755 -43.788  0.00  0.00     0.110 A 
ATOM      3  C   UNL d   1     -58.403 -98.756 -45.124  0.00  0.00     0.207 A 
ATOM      4  C   UNL d   1     -58.166 -98.755 -43.492  0.00  0.00     0.207 A 
ATOM      5  C   UNL d   1     -57.649 -98.756 -44.809  0.00  0.00     0.043 A 
ATOM      6  C   UNL d   1     -57.530 -98.756 -43.992  0.00  0.00     0.043 A 
ATOM      7  O   UNL d   1     -58.521 -98.756 -45.932  0.00  0.00    -0.286 OA
ATOM      8  O   UNL d   1     -58.042 -98.755 -42.676  0.00  0.00    -0.286 OA
ATOM      9 CL   UNL d   1     -59.576 -98.755 -43.286  0.00  0.00    -0.078 Cl
ATOM     10 CL   UNL d   1     -59.817 -98.755 -44.909  0.00  0.00    -0.078 Cl
ATOM     11  C   UNL d   1     -57.002 -98.756 -45.328  0.00  0.00     0.003 A 
ATOM     12  C   UNL d   1     -56.753 -98.756 -43.712  0.00  0.00     0.003 A 
ATOM     13  C   UNL d   1     -56.236 -98.756 -45.028  0.00  0.00     0.000 A 
ATOM     14  C   UNL d   1     -56.101 -98.756 -44.201  0.00  0.00     0.000 A 
ENDROOT
TORSDOF 0
ENDMDL
MODEL 3
REMARK VINA RESULT:      19.2      1.343      2.396
REMARK  0 active torsions:
REMARK  status: ('A' for Active; 'I' for Inactive)
ROOT
ATOM      1  C   UNL d   1     -57.793 -98.756 -43.571  0.00  0.00     0.110 A 
ATOM      2  C   UNL d   1     -58.506 -98.756 -43.156  0.00  0.00     0.110 A 
ATOM      3  C   UNL d   1     -57.790 -98.756 -44.401  0.00  0.00     0.207 A 
ATOM      4  C   UNL d   1     -59.215 -98.756 -43.570  0.00  0.00     0.207 A 
ATOM      5  C   UNL d   1     -58.506 -98.756 -44.794  0.00  0.00     0.043 A 
ATOM      6  C   UNL d   1     -59.219 -98.756 -44.379  0.00  0.00     0.043 A 
ATOM      7  O   UNL d   1     -57.084 -98.755 -44.811  0.00  0.00    -0.286 OA
ATOM      8  O   UNL d   1     -59.931 -98.756 -43.159  0.00  0.00    -0.286 OA
ATOM      9 CL   UNL d   1     -58.498 -98.756 -42.339  0.00  0.00    -0.078 Cl
ATOM     10 CL   UNL d   1     -57.078 -98.755 -43.160  0.00  0.00    -0.078 Cl
ATOM     11  C   UNL d   1     -58.502 -98.756 -45.624  0.00  0.00     0.003 A 
ATOM     12  C   UNL d   1     -59.923 -98.756 -44.813  0.00  0.00     0.003 A 
ATOM     13  C   UNL d   1     -59.215 -98.756 -46.037  0.00  0.00     0.000 A 
ATOM     14  C   UNL d   1     -59.946 -98.756 -45.627  0.00  0.00     0.000 A 
ENDROOT
TORSDOF 0
ENDMDL
MODEL 4
REMARK VINA RESULT:      19.6      1.263      2.498
REMARK  0 active torsions:
REMARK  status: ('A' for Active; 'I' for Inactive)
ROOT
ATOM      1  C   UNL d   1     -59.171 -98.802 -44.139  0.00  0.00     0.110 A 
ATOM      2  C   UNL d   1     -59.055 -98.787 -44.956  0.00  0.00     0.110 A 
ATOM      3  C   UNL d   1     -58.521 -98.802 -43.622  0.00  0.00     0.207 A 
ATOM      4  C   UNL d   1     -58.291 -98.772 -45.256  0.00  0.00     0.207 A 
ATOM      5  C   UNL d   1     -57.769 -98.787 -43.941  0.00  0.00     0.043 A 
ATOM      6  C   UNL d   1     -57.653 -98.772 -44.758  0.00  0.00     0.043 A 
ATOM      7  O   UNL d   1     -58.635 -98.817 -42.815  0.00  0.00    -0.286 OA
ATOM      8  O   UNL d   1     -58.171 -98.756 -46.072  0.00  0.00    -0.286 OA
ATOM      9 CL   UNL d   1     -59.702 -98.787 -45.455  0.00  0.00    -0.078 Cl
ATOM     10 CL   UNL d   1     -59.936 -98.817 -43.831  0.00  0.00    -0.078 Cl
ATOM     11  C   UNL d   1     -57.119 -98.787 -43.425  0.00  0.00     0.003 A 
ATOM     12  C   UNL d   1     -56.877 -98.757 -45.042  0.00  0.00     0.003 A 
ATOM     13  C   UNL d   1     -56.354 -98.772 -43.729  0.00  0.00     0.000 A 
ATOM     14  C   UNL d   1     -56.224 -98.757 -44.556  0.00  0.00     0.000 A 
ENDROOT
TORSDOF 0
ENDMDL
MODEL 5
REMARK VINA RESULT:      20.3      7.476      8.398
REMARK  0 active torsions:
REMARK  status: ('A' for Active; 'I' for Inactive)
ROOT
ATOM      1  C   UNL d   1     -54.850-101.444 -38.346  0.00  0.00     0.110 A 
ATOM      2  C   UNL d   1     -54.787-100.732 -37.934  0.00  0.00     0.110 A 
ATOM      3  C   UNL d   1     -54.904-102.164 -37.938  0.00  0.00     0.207 A 
ATOM      4  C   UNL d   1     -54.777-100.741 -37.113  0.00  0.00     0.207 A 
ATOM      5  C   UNL d   1     -54.892-102.151 -37.120  0.00  0.00     0.043 A 
ATOM      6  C   UNL d   1     -54.829-101.439 -36.708  0.00  0.00     0.043 A 
ATOM      7  O   UNL d   1     -54.966-102.868 -38.345  0.00  0.00    -0.286 OA
ATOM      8  O   UNL d   1     -54.715-100.032 -36.696  0.00  0.00    -0.286 OA
ATOM      9 CL   UNL d   1     -54.735-100.030 -38.347  0.00  0.00    -0.078 Cl
ATOM     10 CL   UNL d   1     -54.860-101.443 -39.171  0.00  0.00    -0.078 Cl
ATOM     11  C   UNL d   1     -54.946-102.871 -36.711  0.00  0.00     0.003 A 
ATOM     12  C   UNL d   1     -54.821-101.467 -35.881  0.00  0.00     0.003 A 
ATOM     13  C   UNL d   1     -54.936-102.876 -35.888  0.00  0.00     0.000 A 
ATOM     14  C   UNL d   1     -54.873-102.160 -35.457  0.00  0.00     0.000 A 
ENDROOT
TORSDOF 0
ENDMDL
