MODEL 1
REMARK VINA RESULT:      68.0      0.000      0.000
REMARK  5 active torsions:
REMARK  status: ('A' for Active; 'I' for Inactive)
REMARK    1  A    between atoms: C_2  and  C_1 
REMARK    2  A    between atoms: N_5  and  C_2 
REMARK    3  A    between atoms: C_9  and  C_4 
REMARK    4  A    between atoms: C_21  and  N_10 
REMARK    5  A    between atoms: C_18  and  C_21 
ROOT
ATOM      1  N   UNL d   1     -47.912  33.680  33.314  0.00  0.00    -0.191 NA
ATOM      2  C   UNL d   1     -48.007  33.046  33.825  0.00  0.00     0.103 C 
ATOM      3  C   UNL d   1     -48.096  32.402  34.339  0.00  0.00     0.097 C 
ENDROOT
BRANCH   3   4
ATOM      4  C   UNL d   1     -47.511  31.831  34.380  0.00  0.00     0.091 C 
BRANCH   4   5
ATOM      5  N   UNL d   1     -47.696  31.076  34.661  0.00  0.00    -0.299 N 
ATOM      6  C   UNL d   1     -47.128  30.629  35.064  0.00  0.00     0.100 A 
ATOM      7  C   UNL d   1     -47.306  29.880  35.344  0.00  0.00     0.100 A 
ATOM      8  N   UNL d   1     -48.062  29.569  35.221  0.00  0.00    -0.291 N 
ATOM      9  C   UNL d   1     -48.635  30.003  34.823  0.00  0.00     0.100 A 
ATOM     10  C   UNL d   1     -48.452  30.761  34.540  0.00  0.00     0.100 A 
BRANCH   8  11
ATOM     11  C   UNL d   1     -48.241  28.814  35.504  0.00  0.00     0.143 C 
ATOM     12  S   UNL d   1     -48.222  28.656  36.313  0.00  0.00    -0.057 SA
BRANCH  11  13
ATOM     13  C   UNL d   1     -48.442  28.209  34.968  0.00  0.00     0.126 A 
ATOM     14  O   UNL d   1     -49.209  27.933  34.820  0.00  0.00    -0.305 OA
ATOM     15  C   UNL d   1     -49.154  27.335  34.255  0.00  0.00     0.100 A 
ATOM     16  C   UNL d   1     -48.353  27.241  34.054  0.00  0.00     0.027 A 
ATOM     17  C   UNL d   1     -47.917  27.782  34.496  0.00  0.00     0.029 A 
BRANCH  15  18
ATOM     18  C   UNL d   1     -49.779  26.903  33.941  0.00  0.00     0.024 A 
ATOM     19  C   UNL d   1     -50.494  27.280  33.783  0.00  0.00     0.013 A 
ATOM     20  C   UNL d   1     -51.131  26.857  33.467  0.00  0.00     0.058 A 
ATOM     21 CL   UNL d   1     -51.851  27.234  33.308  0.00  0.00    -0.082 Cl
ATOM     22  C   UNL d   1     -51.043  26.043  33.308  0.00  0.00     0.011 A 
ATOM     23  C   UNL d   1     -50.322  25.671  33.469  0.00  0.00     0.001 A 
ATOM     24  C   UNL d   1     -49.692  26.099  33.784  0.00  0.00     0.002 A 
ENDBRANCH  15  18
ENDBRANCH  11  13
ENDBRANCH   8  11
ENDBRANCH   4   5
ENDBRANCH   3   4
TORSDOF 5
ENDMDL
MODEL 2
REMARK VINA RESULT:      69.5      1.997      5.004
REMARK  5 active torsions:
REMARK  status: ('A' for Active; 'I' for Inactive)
REMARK    1  A    between atoms: C_2  and  C_1 
REMARK    2  A    between atoms: N_5  and  C_2 
REMARK    3  A    between atoms: C_9  and  C_4 
REMARK    4  A    between atoms: C_21  and  N_10 
REMARK    5  A    between atoms: C_18  and  C_21 
ROOT
ATOM      1  N   UNL d   1     -50.861  25.172  33.306  0.00  0.00    -0.191 NA
ATOM      2  C   UNL d   1     -50.683  25.971  33.325  0.00  0.00     0.103 C 
ATOM      3  C   UNL d   1     -50.494  26.778  33.343  0.00  0.00     0.097 C 
ENDROOT
BRANCH   3   4
ATOM      4  C   UNL d   1     -49.711  27.014  33.306  0.00  0.00     0.091 C 
BRANCH   4   5
ATOM      5  N   UNL d   1     -49.399  27.493  33.903  0.00  0.00    -0.299 N 
ATOM      6  C   UNL d   1     -49.515  28.312  33.884  0.00  0.00     0.100 A 
ATOM      7  C   UNL d   1     -49.207  28.792  34.474  0.00  0.00     0.100 A 
ATOM      8  N   UNL d   1     -48.779  28.451  35.092  0.00  0.00    -0.291 N 
ATOM      9  C   UNL d   1     -48.657  27.639  35.123  0.00  0.00     0.100 A 
ATOM     10  C   UNL d   1     -48.969  27.156  34.525  0.00  0.00     0.100 A 
BRANCH   8  11
ATOM     11  C   UNL d   1     -48.470  28.934  35.686  0.00  0.00     0.143 C 
ATOM     12  S   UNL d   1     -48.642  28.784  36.478  0.00  0.00    -0.057 SA
BRANCH  11  13
ATOM     13  C   UNL d   1     -47.980  29.577  35.484  0.00  0.00     0.126 A 
ATOM     14  O   UNL d   1     -48.223  30.258  35.077  0.00  0.00    -0.305 OA
ATOM     15  C   UNL d   1     -47.565  30.747  34.995  0.00  0.00     0.100 A 
ATOM     16  C   UNL d   1     -46.915  30.370  35.351  0.00  0.00     0.027 A 
ATOM     17  C   UNL d   1     -47.176  29.649  35.651  0.00  0.00     0.029 A 
BRANCH  15  18
ATOM     18  C   UNL d   1     -47.547  31.482  34.627  0.00  0.00     0.024 A 
ATOM     19  C   UNL d   1     -48.230  31.773  34.270  0.00  0.00     0.013 A 
ATOM     20  C   UNL d   1     -48.226  32.511  33.896  0.00  0.00     0.058 A 
ATOM     21 CL   UNL d   1     -48.912  32.805  33.536  0.00  0.00    -0.082 Cl
ATOM     22  C   UNL d   1     -47.523  32.959  33.883  0.00  0.00     0.011 A 
ATOM     23  C   UNL d   1     -46.842  32.661  34.244  0.00  0.00     0.001 A 
ATOM     24  C   UNL d   1     -46.853  31.925  34.614  0.00  0.00     0.002 A 
ENDBRANCH  15  18
ENDBRANCH  11  13
ENDBRANCH   8  11
ENDBRANCH   4   5
ENDBRANCH   3   4
TORSDOF 5
ENDMDL
MODEL 3
REMARK VINA RESULT:      70.7      0.932      1.322
REMARK  5 active torsions:
REMARK  status: ('A' for Active; 'I' for Inactive)
REMARK    1  A    between atoms: C_2  and  C_1 
REMARK    2  A    between atoms: N_5  and  C_2 
REMARK    3  A    between atoms: C_9  and  C_4 
REMARK    4  A    between atoms: C_21  and  N_10 
REMARK    5  A    between atoms: C_18  and  C_21 
ROOT
ATOM      1  N   UNL d   1     -48.263  33.514  34.737  0.00  0.00    -0.191 NA
ATOM      2  C   UNL d   1     -47.960  32.760  34.627  0.00  0.00     0.103 C 
ATOM      3  C   UNL d   1     -47.654  31.997  34.523  0.00  0.00     0.097 C 
ENDROOT
BRANCH   3   4
ATOM      4  C   UNL d   1     -47.507  31.525  35.176  0.00  0.00     0.091 C 
BRANCH   4   5
ATOM      5  N   UNL d   1     -47.715  30.726  35.158  0.00  0.00    -0.299 N 
ATOM      6  C   UNL d   1     -48.317  30.463  34.654  0.00  0.00     0.100 A 
ATOM      7  C   UNL d   1     -48.527  29.671  34.632  0.00  0.00     0.100 A 
ATOM      8  N   UNL d   1     -48.133  29.131  35.119  0.00  0.00    -0.291 N 
ATOM      9  C   UNL d   1     -47.534  29.380  35.623  0.00  0.00     0.100 A 
ATOM     10  C   UNL d   1     -47.323  30.182  35.644  0.00  0.00     0.100 A 
BRANCH   8  11
ATOM     11  C   UNL d   1     -48.345  28.334  35.096  0.00  0.00     0.143 C 
ATOM     12  S   UNL d   1     -47.974  27.789  35.591  0.00  0.00    -0.057 SA
BRANCH  11  13
ATOM     13  C   UNL d   1     -48.938  28.078  34.569  0.00  0.00     0.126 A 
ATOM     14  O   UNL d   1     -49.346  27.358  34.616  0.00  0.00    -0.305 OA
ATOM     15  C   UNL d   1     -49.879  27.332  33.988  0.00  0.00     0.100 A 
ATOM     16  C   UNL d   1     -49.800  28.036  33.552  0.00  0.00     0.027 A 
ATOM     17  C   UNL d   1     -49.219  28.493  33.914  0.00  0.00     0.029 A 
BRANCH  15  18
ATOM     18  C   UNL d   1     -50.400  26.720  33.816  0.00  0.00     0.024 A 
ATOM     19  C   UNL d   1     -50.102  25.970  33.649  0.00  0.00     0.013 A 
ATOM     20  C   UNL d   1     -50.616  25.345  33.474  0.00  0.00     0.058 A 
ATOM     21 CL   UNL d   1     -50.319  24.589  33.306  0.00  0.00    -0.082 Cl
ATOM     22  C   UNL d   1     -51.438  25.480  33.470  0.00  0.00     0.011 A 
ATOM     23  C   UNL d   1     -51.729  26.236  33.639  0.00  0.00     0.001 A 
ATOM     24  C   UNL d   1     -51.212  26.854  33.812  0.00  0.00     0.002 A 
ENDBRANCH  15  18
ENDBRANCH  11  13
ENDBRANCH   8  11
ENDBRANCH   4   5
ENDBRANCH   3   4
TORSDOF 5
ENDMDL
