MODEL 1
REMARK VINA RESULT:      -7.4      0.000      0.000
REMARK  5 active torsions:
REMARK  status: ('A' for Active; 'I' for Inactive)
REMARK    1  A    between atoms: C_6  and  N_1 
REMARK    2  A    between atoms: C_5  and  C_3 
REMARK    3  A    between atoms: C_11  and  C_4 
REMARK    4  A    between atoms: N_13  and  C_6 
REMARK    5  A    between atoms: O_23  and  C_19 
ROOT
ATOM      1  N   UNL d   1     -48.846  13.071  22.291  0.00  0.00    -0.203 N 
ATOM      2  N   UNL d   1     -48.110  12.690  22.162  0.00  0.00    -0.163 NA
ATOM      3  C   UNL d   1     -48.734  13.759  22.705  0.00  0.00     0.088 A 
ATOM      4  C   UNL d   1     -47.546  13.167  22.510  0.00  0.00     0.103 A 
ATOM      5  C   UNL d   1     -47.920  13.818  22.841  0.00  0.00     0.040 A 
ENDROOT
BRANCH   3   6
ATOM      6  C   UNL d   1     -49.283  14.292  22.945  0.00  0.00     0.029 A 
ATOM      7  C   UNL d   1     -49.248  15.072  22.675  0.00  0.00     0.060 A 
ATOM      8  C   UNL d   1     -49.801  15.603  22.920  0.00  0.00     0.023 A 
ATOM      9 CL   UNL d   1     -48.640  15.293  22.155  0.00  0.00    -0.082 Cl
ATOM     10  C   UNL d   1     -50.407  15.377  23.439  0.00  0.00     0.059 A 
ATOM     11  C   UNL d   1     -50.441  14.632  23.698  0.00  0.00     0.011 A 
ATOM     12 CL   UNL d   1     -50.976  15.915  23.693  0.00  0.00    -0.082 Cl
ATOM     13  C   UNL d   1     -49.875  14.075  23.452  0.00  0.00     0.003 A 
ENDBRANCH   3   6
BRANCH   1  14
ATOM     14  C   UNL d   1     -49.583  12.764  22.021  0.00  0.00     0.222 C 
ATOM     15  S   UNL d   1     -49.995  12.203  22.484  0.00  0.00    -0.037 SA
BRANCH  14  16
ATOM     16  N   UNL d   1     -49.888  13.018  21.306  0.00  0.00    -0.214 NA
ATOM     17  C   UNL d   1     -50.470  12.576  20.909  0.00  0.00     0.122 C 
ENDBRANCH  14  16
ENDBRANCH   1  14
BRANCH   4  18
ATOM     18  C   UNL d   1     -46.760  12.989  22.505  0.00  0.00     0.019 A 
ATOM     19  C   UNL d   1     -46.463  12.432  23.037  0.00  0.00     0.004 A 
ATOM     20  C   UNL d   1     -45.665  12.238  23.047  0.00  0.00     0.024 A 
ATOM     21  C   UNL d   1     -45.147  12.618  22.502  0.00  0.00     0.094 A 
ATOM     22  C   UNL d   1     -45.444  13.174  21.971  0.00  0.00     0.024 A 
ATOM     23  C   UNL d   1     -46.252  13.362  21.970  0.00  0.00     0.004 A 
BRANCH  21  24
ATOM     24  O   UNL d   1     -44.326  12.429  22.501  0.00  0.00    -0.328 OA
ATOM     25  C   UNL d   1     -43.853  12.634  21.857  0.00  0.00     0.181 C 
ENDBRANCH  21  24
ENDBRANCH   4  18
TORSDOF 5
ENDMDL
MODEL 2
REMARK VINA RESULT:      -6.3      1.644      2.159
REMARK  5 active torsions:
REMARK  status: ('A' for Active; 'I' for Inactive)
REMARK    1  A    between atoms: C_6  and  N_1 
REMARK    2  A    between atoms: C_5  and  C_3 
REMARK    3  A    between atoms: C_11  and  C_4 
REMARK    4  A    between atoms: N_13  and  C_6 
REMARK    5  A    between atoms: O_23  and  C_19 
ROOT
ATOM      1  N   UNL d   1     -47.806  13.787  22.761  0.00  0.00    -0.203 N 
ATOM      2  N   UNL d   1     -46.977  13.827  22.638  0.00  0.00    -0.163 NA
ATOM      3  C   UNL d   1     -48.048  13.014  22.772  0.00  0.00     0.088 A 
ATOM      4  C   UNL d   1     -46.722  13.054  22.574  0.00  0.00     0.103 A 
ATOM      5  C   UNL d   1     -47.369  12.556  22.655  0.00  0.00     0.040 A 
ENDROOT
BRANCH   3   6
ATOM      6  C   UNL d   1     -48.789  12.725  22.873  0.00  0.00     0.029 A 
ATOM      7  C   UNL d   1     -49.182  12.362  22.243  0.00  0.00     0.060 A 
ATOM      8  C   UNL d   1     -49.926  12.073  22.350  0.00  0.00     0.023 A 
ATOM      9 CL   UNL d   1     -48.800  12.302  21.509  0.00  0.00    -0.082 Cl
ATOM     10  C   UNL d   1     -50.303  12.136  23.086  0.00  0.00     0.059 A 
ATOM     11  C   UNL d   1     -49.930  12.482  23.689  0.00  0.00     0.011 A 
ATOM     12 CL   UNL d   1     -51.064  11.842  23.203  0.00  0.00    -0.082 Cl
ATOM     13  C   UNL d   1     -49.162  12.783  23.590  0.00  0.00     0.003 A 
ENDBRANCH   3   6
BRANCH   1  14
ATOM     14  C   UNL d   1     -48.295  14.467  22.857  0.00  0.00     0.222 C 
ATOM     15  S   UNL d   1     -48.592  14.663  23.614  0.00  0.00    -0.037 SA
BRANCH  14  16
ATOM     16  N   UNL d   1     -48.475  14.929  22.206  0.00  0.00    -0.214 NA
ATOM     17  C   UNL d   1     -48.764  15.703  22.300  0.00  0.00     0.122 C 
ENDBRANCH  14  16
ENDBRANCH   1  14
BRANCH   4  18
ATOM     18  C   UNL d   1     -45.950  12.857  22.452  0.00  0.00     0.019 A 
ATOM     19  C   UNL d   1     -45.614  12.235  22.878  0.00  0.00     0.004 A 
ATOM     20  C   UNL d   1     -44.829  12.019  22.767  0.00  0.00     0.024 A 
ATOM     21  C   UNL d   1     -44.366  12.446  22.207  0.00  0.00     0.094 A 
ATOM     22  C   UNL d   1     -44.703  13.067  21.782  0.00  0.00     0.024 A 
ATOM     23  C   UNL d   1     -45.496  13.275  21.903  0.00  0.00     0.004 A 
BRANCH  21  24
ATOM     24  O   UNL d   1     -43.560  12.236  22.083  0.00  0.00    -0.328 OA
ATOM     25  C   UNL d   1     -43.134  12.570  21.460  0.00  0.00     0.181 C 
ENDBRANCH  21  24
ENDBRANCH   4  18
TORSDOF 5
ENDMDL
MODEL 3
REMARK VINA RESULT:      -6.1      9.227      9.848
REMARK  5 active torsions:
REMARK  status: ('A' for Active; 'I' for Inactive)
REMARK    1  A    between atoms: C_6  and  N_1 
REMARK    2  A    between atoms: C_5  and  C_3 
REMARK    3  A    between atoms: C_11  and  C_4 
REMARK    4  A    between atoms: N_13  and  C_6 
REMARK    5  A    between atoms: O_23  and  C_19 
ROOT
ATOM      1  N   UNL d   1     -38.923  14.399  18.773  0.00  0.00    -0.203 N 
ATOM      2  N   UNL d   1     -38.632  14.280  19.551  0.00  0.00    -0.163 NA
ATOM      3  C   UNL d   1     -39.577  14.877  18.791  0.00  0.00     0.088 A 
ATOM      4  C   UNL d   1     -39.130  14.701  20.043  0.00  0.00     0.103 A 
ATOM      5  C   UNL d   1     -39.705  15.065  19.586  0.00  0.00     0.040 A 
ENDROOT
BRANCH   3   6
ATOM      6  C   UNL d   1     -40.026  15.131  18.177  0.00  0.00     0.029 A 
ATOM      7  C   UNL d   1     -40.802  14.860  18.092  0.00  0.00     0.060 A 
ATOM      8  C   UNL d   1     -41.249  15.119  17.474  0.00  0.00     0.023 A 
ATOM      9 CL   UNL d   1     -41.106  14.325  18.648  0.00  0.00    -0.082 Cl
ATOM     10  C   UNL d   1     -40.940  15.653  16.921  0.00  0.00     0.059 A 
ATOM     11  C   UNL d   1     -40.198  15.913  17.001  0.00  0.00     0.011 A 
ATOM     12 CL   UNL d   1     -41.391  15.922  16.286  0.00  0.00    -0.082 Cl
ATOM     13  C   UNL d   1     -39.728  15.654  17.635  0.00  0.00     0.003 A 
ENDBRANCH   3   6
BRANCH   1  14
ATOM     14  C   UNL d   1     -38.569  14.060  18.087  0.00  0.00     0.222 C 
ATOM     15  S   UNL d   1     -37.996  14.491  17.658  0.00  0.00    -0.037 SA
BRANCH  14  16
ATOM     16  N   UNL d   1     -38.791  13.309  17.848  0.00  0.00    -0.214 NA
ATOM     17  C   UNL d   1     -38.254  12.811  17.455  0.00  0.00     0.122 C 
ENDBRANCH  14  16
ENDBRANCH   1  14
BRANCH   4  18
ATOM     18  C   UNL d   1     -39.034  14.726  20.843  0.00  0.00     0.019 A 
ATOM     19  C   UNL d   1     -39.178  14.051  21.294  0.00  0.00     0.004 A 
ATOM     20  C   UNL d   1     -39.086  14.057  22.111  0.00  0.00     0.024 A 
ATOM     21  C   UNL d   1     -38.840  14.770  22.486  0.00  0.00     0.094 A 
ATOM     22  C   UNL d   1     -38.697  15.445  22.034  0.00  0.00     0.024 A 
ATOM     23  C   UNL d   1     -38.793  15.426  21.211  0.00  0.00     0.004 A 
BRANCH  21  24
ATOM     24  O   UNL d   1     -38.742  14.792  23.322  0.00  0.00    -0.328 OA
ATOM     25  C   UNL d   1     -38.258  14.239  23.698  0.00  0.00     0.181 C 
ENDBRANCH  21  24
ENDBRANCH   4  18
TORSDOF 5
ENDMDL
MODEL 4
REMARK VINA RESULT:      -5.7      7.424      9.621
REMARK  5 active torsions:
REMARK  status: ('A' for Active; 'I' for Inactive)
REMARK    1  A    between atoms: C_6  and  N_1 
REMARK    2  A    between atoms: C_5  and  C_3 
REMARK    3  A    between atoms: C_11  and  C_4 
REMARK    4  A    between atoms: N_13  and  C_6 
REMARK    5  A    between atoms: O_23  and  C_19 
ROOT
ATOM      1  N   UNL d   1     -40.289  14.707  20.164  0.00  0.00    -0.203 N 
ATOM      2  N   UNL d   1     -40.310  14.537  19.343  0.00  0.00    -0.163 NA
ATOM      3  C   UNL d   1     -39.527  14.845  20.400  0.00  0.00     0.088 A 
ATOM      4  C   UNL d   1     -39.536  14.576  19.087  0.00  0.00     0.103 A 
ATOM      5  C   UNL d   1     -39.056  14.763  19.725  0.00  0.00     0.040 A 
ENDROOT
BRANCH   3   6
ATOM      6  C   UNL d   1     -39.256  15.026  21.133  0.00  0.00     0.029 A 
ATOM      7  C   UNL d   1     -38.792  14.484  21.549  0.00  0.00     0.060 A 
ATOM      8  C   UNL d   1     -38.523  14.671  22.284  0.00  0.00     0.023 A 
ATOM      9 CL   UNL d   1     -38.611  13.754  21.198  0.00  0.00    -0.082 Cl
ATOM     10  C   UNL d   1     -38.706  15.401  22.630  0.00  0.00     0.059 A 
ATOM     11  C   UNL d   1     -39.150  15.921  22.235  0.00  0.00     0.011 A 
ATOM     12 CL   UNL d   1     -38.434  15.599  23.382  0.00  0.00    -0.082 Cl
ATOM     13  C   UNL d   1     -39.433  15.739  21.475  0.00  0.00     0.003 A 
ENDBRANCH   3   6
BRANCH   1  14
ATOM     14  C   UNL d   1     -40.976  14.726  20.653  0.00  0.00     0.222 C 
ATOM     15  S   UNL d   1     -41.367  15.452  20.793  0.00  0.00    -0.037 SA
BRANCH  14  16
ATOM     16  N   UNL d   1     -41.253  14.032  20.986  0.00  0.00    -0.214 NA
ATOM     17  C   UNL d   1     -42.068  13.914  21.107  0.00  0.00     0.122 C 
ENDBRANCH  14  16
ENDBRANCH   1  14
BRANCH   4  18
ATOM     18  C   UNL d   1     -39.322  14.445  18.320  0.00  0.00     0.019 A 
ATOM     19  C   UNL d   1     -39.338  13.678  18.016  0.00  0.00     0.004 A 
ATOM     20  C   UNL d   1     -39.125  13.524  17.238  0.00  0.00     0.024 A 
ATOM     21  C   UNL d   1     -38.886  14.167  16.748  0.00  0.00     0.094 A 
ATOM     22  C   UNL d   1     -38.870  14.933  17.053  0.00  0.00     0.024 A 
ATOM     23  C   UNL d   1     -39.088  15.075  17.840  0.00  0.00     0.004 A 
BRANCH  21  24
ATOM     24  O   UNL d   1     -38.664  14.024  15.948  0.00  0.00    -0.328 OA
ATOM     25  C   UNL d   1     -37.945  13.657  15.776  0.00  0.00     0.181 C 
ENDBRANCH  21  24
ENDBRANCH   4  18
TORSDOF 5
ENDMDL
MODEL 5
REMARK VINA RESULT:      -5.6      9.270     10.611
REMARK  5 active torsions:
REMARK  status: ('A' for Active; 'I' for Inactive)
REMARK    1  A    between atoms: C_6  and  N_1 
REMARK    2  A    between atoms: C_5  and  C_3 
REMARK    3  A    between atoms: C_11  and  C_4 
REMARK    4  A    between atoms: N_13  and  C_6 
REMARK    5  A    between atoms: O_23  and  C_19 
ROOT
ATOM      1  N   UNL d   1     -39.778  15.161  17.938  0.00  0.00    -0.203 N 
ATOM      2  N   UNL d   1     -39.858  15.399  18.739  0.00  0.00    -0.163 NA
ATOM      3  C   UNL d   1     -39.108  14.715  17.846  0.00  0.00     0.088 A 
ATOM      4  C   UNL d   1     -39.214  15.084  19.131  0.00  0.00     0.103 A 
ATOM      5  C   UNL d   1     -38.756  14.668  18.594  0.00  0.00     0.040 A 
ENDROOT
BRANCH   3   6
ATOM      6  C   UNL d   1     -38.821  14.377  17.178  0.00  0.00     0.029 A 
ATOM      7  C   UNL d   1     -38.731  13.557  17.135  0.00  0.00     0.060 A 
ATOM      8  C   UNL d   1     -38.443  13.222  16.462  0.00  0.00     0.023 A 
ATOM      9 CL   UNL d   1     -38.940  13.092  17.790  0.00  0.00    -0.082 Cl
ATOM     10  C   UNL d   1     -38.235  13.691  15.810  0.00  0.00     0.059 A 
ATOM     11  C   UNL d   1     -38.321  14.475  15.849  0.00  0.00     0.011 A 
ATOM     12 CL   UNL d   1     -37.940  13.356  15.118  0.00  0.00    -0.082 Cl
ATOM     13  C   UNL d   1     -38.617  14.831  16.539  0.00  0.00     0.003 A 
ENDBRANCH   3   6
BRANCH   1  14
ATOM     14  C   UNL d   1     -40.329  15.367  17.334  0.00  0.00     0.222 C 
ATOM     15  S   UNL d   1     -40.114  15.922  16.747  0.00  0.00    -0.037 SA
BRANCH  14  16
ATOM     16  N   UNL d   1     -41.071  15.023  17.330  0.00  0.00    -0.214 NA
ATOM     17  C   UNL d   1     -41.699  15.368  16.908  0.00  0.00     0.122 C 
ENDBRANCH  14  16
ENDBRANCH   1  14
BRANCH   4  18
ATOM     18  C   UNL d   1     -39.089  15.190  19.920  0.00  0.00     0.019 A 
ATOM     19  C   UNL d   1     -39.460  14.693  20.464  0.00  0.00     0.004 A 
ATOM     20  C   UNL d   1     -39.345  14.785  21.273  0.00  0.00     0.024 A 
ATOM     21  C   UNL d   1     -38.838  15.402  21.543  0.00  0.00     0.094 A 
ATOM     22  C   UNL d   1     -38.468  15.899  20.999  0.00  0.00     0.024 A 
ATOM     23  C   UNL d   1     -38.592  15.795  20.185  0.00  0.00     0.004 A 
BRANCH  21  24
ATOM     24  O   UNL d   1     -38.711  15.508  22.368  0.00  0.00    -0.328 OA
ATOM     25  C   UNL d   1     -37.983  15.312  22.706  0.00  0.00     0.181 C 
ENDBRANCH  21  24
ENDBRANCH   4  18
TORSDOF 5
ENDMDL
MODEL 6
REMARK VINA RESULT:      -5.2      1.884      2.500
REMARK  5 active torsions:
REMARK  status: ('A' for Active; 'I' for Inactive)
REMARK    1  A    between atoms: C_6  and  N_1 
REMARK    2  A    between atoms: C_5  and  C_3 
REMARK    3  A    between atoms: C_11  and  C_4 
REMARK    4  A    between atoms: N_13  and  C_6 
REMARK    5  A    between atoms: O_23  and  C_19 
ROOT
ATOM      1  N   UNL d   1     -47.632  13.430  22.798  0.00  0.00    -0.203 N 
ATOM      2  N   UNL d   1     -46.861  13.208  23.046  0.00  0.00    -0.163 NA
ATOM      3  C   UNL d   1     -48.031  12.784  22.517  0.00  0.00     0.088 A 
ATOM      4  C   UNL d   1     -46.805  12.405  22.907  0.00  0.00     0.103 A 
ATOM      5  C   UNL d   1     -47.512  12.143  22.587  0.00  0.00     0.040 A 
ENDROOT
BRANCH   3   6
ATOM      6  C   UNL d   1     -48.777  12.745  22.227  0.00  0.00     0.029 A 
ATOM      7  C   UNL d   1     -49.361  12.332  22.640  0.00  0.00     0.060 A 
ATOM      8  C   UNL d   1     -50.109  12.296  22.344  0.00  0.00     0.023 A 
ATOM      9 CL   UNL d   1     -49.164  11.959  23.355  0.00  0.00    -0.082 Cl
ATOM     10  C   UNL d   1     -50.301  12.670  21.629  0.00  0.00     0.059 A 
ATOM     11  C   UNL d   1     -49.744  13.066  21.233  0.00  0.00     0.011 A 
ATOM     12 CL   UNL d   1     -51.064  12.638  21.320  0.00  0.00    -0.082 Cl
ATOM     13  C   UNL d   1     -48.969  13.109  21.529  0.00  0.00     0.003 A 
ENDBRANCH   3   6
BRANCH   1  14
ATOM     14  C   UNL d   1     -47.925  14.219  22.843  0.00  0.00     0.222 C 
ATOM     15  S   UNL d   1     -48.529  14.408  23.391  0.00  0.00    -0.037 SA
BRANCH  14  16
ATOM     16  N   UNL d   1     -47.616  14.794  22.350  0.00  0.00    -0.214 NA
ATOM     17  C   UNL d   1     -47.882  15.580  22.393  0.00  0.00     0.122 C 
ENDBRANCH  14  16
ENDBRANCH   1  14
BRANCH   4  18
ATOM     18  C   UNL d   1     -46.141  11.979  23.074  0.00  0.00     0.019 A 
ATOM     19  C   UNL d   1     -46.201  11.283  23.513  0.00  0.00     0.004 A 
ATOM     20  C   UNL d   1     -45.536  10.835  23.693  0.00  0.00     0.024 A 
ATOM     21  C   UNL d   1     -44.783  11.098  23.421  0.00  0.00     0.094 A 
ATOM     22  C   UNL d   1     -44.724  11.794  22.982  0.00  0.00     0.024 A 
ATOM     23  C   UNL d   1     -45.403  12.237  22.807  0.00  0.00     0.004 A 
BRANCH  21  24
ATOM     24  O   UNL d   1     -44.093  10.649  23.598  0.00  0.00    -0.328 OA
ATOM     25  C   UNL d   1     -43.980   9.907  23.254  0.00  0.00     0.181 C 
ENDBRANCH  21  24
ENDBRANCH   4  18
TORSDOF 5
ENDMDL
MODEL 7
REMARK VINA RESULT:      -4.4      8.515     10.266
REMARK  5 active torsions:
REMARK  status: ('A' for Active; 'I' for Inactive)
REMARK    1  A    between atoms: C_6  and  N_1 
REMARK    2  A    between atoms: C_5  and  C_3 
REMARK    3  A    between atoms: C_11  and  C_4 
REMARK    4  A    between atoms: N_13  and  C_6 
REMARK    5  A    between atoms: O_23  and  C_19 
ROOT
ATOM      1  N   UNL d   1     -38.591  14.383  19.374  0.00  0.00    -0.203 N 
ATOM      2  N   UNL d   1     -38.192  14.137  18.678  0.00  0.00    -0.163 NA
ATOM      3  C   UNL d   1     -39.316  14.690  19.185  0.00  0.00     0.088 A 
ATOM      4  C   UNL d   1     -38.698  14.304  18.059  0.00  0.00     0.103 A 
ATOM      5  C   UNL d   1     -39.382  14.639  18.361  0.00  0.00     0.040 A 
ENDROOT
BRANCH   3   6
ATOM      6  C   UNL d   1     -39.876  14.988  19.676  0.00  0.00     0.029 A 
ATOM      7  C   UNL d   1     -40.631  14.653  19.695  0.00  0.00     0.060 A 
ATOM      8  C   UNL d   1     -41.189  14.956  20.190  0.00  0.00     0.023 A 
ATOM      9 CL   UNL d   1     -40.800  14.008  19.201  0.00  0.00    -0.082 Cl
ATOM     10  C   UNL d   1     -41.015  15.601  20.682  0.00  0.00     0.059 A 
ATOM     11  C   UNL d   1     -40.294  15.922  20.665  0.00  0.00     0.011 A 
ATOM     12 CL   UNL d   1     -41.581  15.916  21.191  0.00  0.00    -0.082 Cl
ATOM     13  C   UNL d   1     -39.710  15.617  20.158  0.00  0.00     0.003 A 
ENDBRANCH   3   6
BRANCH   1  14
ATOM     14  C   UNL d   1     -38.263  14.312  20.148  0.00  0.00     0.222 C 
ATOM     15  S   UNL d   1     -37.949  14.986  20.530  0.00  0.00    -0.037 SA
BRANCH  14  16
ATOM     16  N   UNL d   1     -38.256  13.582  20.516  0.00  0.00    -0.214 NA
ATOM     17  C   UNL d   1     -38.063  13.514  21.322  0.00  0.00     0.122 C 
ENDBRANCH  14  16
ENDBRANCH   1  14
BRANCH   4  18
ATOM     18  C   UNL d   1     -38.514  14.147  17.290  0.00  0.00     0.019 A 
ATOM     19  C   UNL d   1     -38.188  14.739  16.818  0.00  0.00     0.004 A 
ATOM     20  C   UNL d   1     -37.994  14.599  16.032  0.00  0.00     0.024 A 
ATOM     21  C   UNL d   1     -38.133  13.832  15.710  0.00  0.00     0.094 A 
ATOM     22  C   UNL d   1     -38.459  13.241  16.183  0.00  0.00     0.024 A 
ATOM     23  C   UNL d   1     -38.651  13.395  16.974  0.00  0.00     0.004 A 
BRANCH  21  24
ATOM     24  O   UNL d   1     -37.940  13.674  14.906  0.00  0.00    -0.328 OA
ATOM     25  C   UNL d   1     -38.443  13.920  14.301  0.00  0.00     0.181 C 
ENDBRANCH  21  24
ENDBRANCH   4  18
TORSDOF 5
ENDMDL
