MODEL 1
REMARK VINA RESULT:      58.5      0.000      0.000
REMARK  7 active torsions:
REMARK  status: ('A' for Active; 'I' for Inactive)
REMARK    1  A    between atoms: C_2  and  P_1 
REMARK    2  A    between atoms: O_3  and  P_1 
REMARK    3  A    between atoms: C_4  and  P_1 
REMARK    4  A    between atoms: C_12  and  C_2 
REMARK    5  A    between atoms: C_13  and  O_3 
REMARK    6  A    between atoms: N_7  and  C_6 
REMARK    7  A    between atoms: C_15  and  C_13 
ROOT
ATOM      1  P   UNL d   1      60.168  49.021  51.067  0.00  0.00     0.307 P 
ATOM      2  O   UNL d   1      59.747  49.705  51.380  0.00  0.00    -0.277 OA
ENDROOT
BRANCH   1   3
ATOM      3  C   UNL d   1      60.859  49.222  51.531  0.00  0.00     0.253 C 
ATOM      4  O   UNL d   1      61.612  49.092  51.218  0.00  0.00    -0.281 OA
BRANCH   3   5
ATOM      5  C   UNL d   1      60.778  49.543  52.285  0.00  0.00     0.044 C 
ATOM      6  C   UNL d   1      60.026  49.706  52.584  0.00  0.00     0.004 C 
ATOM      7  C   UNL d   1      61.442  49.701  52.739  0.00  0.00     0.004 C 
ENDBRANCH   3   5
ENDBRANCH   1   3
BRANCH   1   8
ATOM      8  O   UNL d   1      59.471  48.840  50.615  0.00  0.00    -0.279 OA
BRANCH   8   9
ATOM      9  C   UNL d   1      58.997  49.463  50.275  0.00  0.00     0.124 C 
BRANCH   9  10
ATOM     10  C   UNL d   1      58.194  49.373  50.141  0.00  0.00     0.025 A 
ATOM     11  C   UNL d   1      57.697  49.136  50.755  0.00  0.00     0.002 A 
ATOM     12  C   UNL d   1      56.883  49.044  50.626  0.00  0.00     0.000 A 
ATOM     13  C   UNL d   1      56.569  49.190  49.878  0.00  0.00     0.000 A 
ATOM     14  C   UNL d   1      57.071  49.429  49.261  0.00  0.00     0.000 A 
ATOM     15  C   UNL d   1      57.880  49.520  49.393  0.00  0.00     0.002 A 
ENDBRANCH   9  10
ENDBRANCH   8   9
ENDBRANCH   1   8
BRANCH   1  16
ATOM     16  C   UNL d   1      60.557  48.334  50.738  0.00  0.00     0.061 A 
ATOM     17  C   UNL d   1      61.209  48.444  50.248  0.00  0.00     0.007 A 
ATOM     18  C   UNL d   1      61.595  47.797  49.924  0.00  0.00     0.018 A 
ATOM     19  C   UNL d   1      61.328  47.034  50.090  0.00  0.00     0.064 A 
ATOM     20  C   UNL d   1      60.676  46.924  50.580  0.00  0.00     0.018 A 
ATOM     21  C   UNL d   1      60.290  47.577  50.905  0.00  0.00     0.007 A 
BRANCH  19  22
ATOM     22  N   UNL d   1      61.739  46.362  49.745  0.00  0.00    -0.301 N 
ATOM     23  C   UNL d   1      61.398  45.962  49.104  0.00  0.00     0.100 C 
ATOM     24  C   UNL d   1      62.470  46.111  50.045  0.00  0.00     0.100 C 
ENDBRANCH  19  22
ENDBRANCH   1  16
TORSDOF 7
ENDMDL
MODEL 2
REMARK VINA RESULT:      60.1      1.299      3.699
REMARK  7 active torsions:
REMARK  status: ('A' for Active; 'I' for Inactive)
REMARK    1  A    between atoms: C_2  and  P_1 
REMARK    2  A    between atoms: O_3  and  P_1 
REMARK    3  A    between atoms: C_4  and  P_1 
REMARK    4  A    between atoms: C_12  and  C_2 
REMARK    5  A    between atoms: C_13  and  O_3 
REMARK    6  A    between atoms: N_7  and  C_6 
REMARK    7  A    between atoms: C_15  and  C_13 
ROOT
ATOM      1  P   UNL d   1      60.677  48.673  51.090  0.00  0.00     0.307 P 
ATOM      2  O   UNL d   1      61.440  48.432  51.410  0.00  0.00    -0.277 OA
ENDROOT
BRANCH   1   3
ATOM      3  C   UNL d   1      60.639  49.325  51.644  0.00  0.00     0.253 C 
ATOM      4  O   UNL d   1      59.917  49.702  51.780  0.00  0.00    -0.281 OA
BRANCH   3   5
ATOM      5  C   UNL d   1      61.316  49.577  52.040  0.00  0.00     0.044 C 
ATOM      6  C   UNL d   1      62.015  49.703  51.621  0.00  0.00     0.004 C 
ATOM      7  C   UNL d   1      61.296  49.703  52.850  0.00  0.00     0.004 C 
ENDBRANCH   3   5
ENDBRANCH   1   3
BRANCH   1   8
ATOM      8  O   UNL d   1      60.735  48.020  50.549  0.00  0.00    -0.279 OA
BRANCH   8   9
ATOM      9  C   UNL d   1      60.983  47.249  50.820  0.00  0.00     0.124 C 
BRANCH   9  10
ATOM     10  C   UNL d   1      61.265  46.678  50.304  0.00  0.00     0.025 A 
ATOM     11  C   UNL d   1      61.100  45.882  50.440  0.00  0.00     0.002 A 
ATOM     12  C   UNL d   1      61.383  45.299  49.921  0.00  0.00     0.000 A 
ATOM     13  C   UNL d   1      61.832  45.519  49.266  0.00  0.00     0.000 A 
ATOM     14  C   UNL d   1      61.997  46.322  49.131  0.00  0.00     0.000 A 
ATOM     15  C   UNL d   1      61.714  46.898  49.649  0.00  0.00     0.002 A 
ENDBRANCH   9  10
ENDBRANCH   8   9
ENDBRANCH   1   8
BRANCH   1  16
ATOM     16  C   UNL d   1      59.922  48.885  50.749  0.00  0.00     0.061 A 
ATOM     17  C   UNL d   1      59.909  49.302  50.040  0.00  0.00     0.007 A 
ATOM     18  C   UNL d   1      59.194  49.514  49.699  0.00  0.00     0.018 A 
ATOM     19  C   UNL d   1      58.486  49.308  50.068  0.00  0.00     0.064 A 
ATOM     20  C   UNL d   1      58.498  48.891  50.778  0.00  0.00     0.018 A 
ATOM     21  C   UNL d   1      59.219  48.679  51.119  0.00  0.00     0.007 A 
BRANCH  19  22
ATOM     22  N   UNL d   1      57.741  49.535  49.703  0.00  0.00    -0.301 N 
ATOM     23  C   UNL d   1      57.057  49.582  50.170  0.00  0.00     0.100 C 
ATOM     24  C   UNL d   1      57.700  49.706  48.893  0.00  0.00     0.100 C 
ENDBRANCH  19  22
ENDBRANCH   1  16
TORSDOF 7
ENDMDL
