MODEL 1
REMARK VINA RESULT:     -10.0      0.000      0.000
REMARK  3 active torsions:
REMARK  status: ('A' for Active; 'I' for Inactive)
REMARK    1  A    between atoms: C_9  and  C_5 
REMARK    2  A    between atoms: C_10  and  C_6 
REMARK    3  A    between atoms: O_16  and  C_13 
ROOT
ATOM      1  N   UNL d   1      53.085  32.656  53.525  0.00  0.00    -0.205 N 
ATOM      2  C   UNL d   1      52.779  32.032  53.080  0.00  0.00     0.197 A 
ATOM      3  N   UNL d   1      52.074  32.291  52.727  0.00  0.00    -0.200 NA
ATOM      4  N   UNL d   1      52.573  33.298  53.449  0.00  0.00    -0.144 NA
ATOM      5  C   UNL d   1      51.951  33.075  52.959  0.00  0.00     0.184 A 
ATOM      6  C   UNL d   1      53.791  32.403  53.881  0.00  0.00     0.092 A 
ATOM      7  S   UNL d   1      53.299  31.386  53.160  0.00  0.00    -0.046 SA
ATOM      8  C   UNL d   1      53.923  31.622  53.657  0.00  0.00     0.058 A 
ENDROOT
BRANCH   5   9
ATOM      9  C   UNL d   1      51.318  33.542  52.735  0.00  0.00     0.038 A 
ATOM     10  C   UNL d   1      50.687  33.654  53.247  0.00  0.00     0.005 A 
ATOM     11  C   UNL d   1      50.047  34.125  53.024  0.00  0.00     0.024 A 
ATOM     12  C   UNL d   1      50.040  34.483  52.287  0.00  0.00     0.094 A 
ATOM     13  C   UNL d   1      50.676  34.374  51.763  0.00  0.00     0.024 A 
ATOM     14  C   UNL d   1      51.312  33.904  51.991  0.00  0.00     0.005 A 
BRANCH  12  15
ATOM     15  O   UNL d   1      49.399  34.955  52.063  0.00  0.00    -0.328 OA
ATOM     16  C   UNL d   1      48.903  34.709  51.444  0.00  0.00     0.181 C 
ENDBRANCH  12  15
ENDBRANCH   5   9
BRANCH   6  17
ATOM     17  C   UNL d   1      54.273  32.862  54.374  0.00  0.00     0.018 A 
ATOM     18  C   UNL d   1      54.129  32.900  55.185  0.00  0.00     0.002 A 
ATOM     19  C   UNL d   1      54.610  33.358  55.672  0.00  0.00     0.000 A 
ATOM     20  C   UNL d   1      55.246  33.786  55.349  0.00  0.00     0.000 A 
ATOM     21  C   UNL d   1      55.390  33.748  54.540  0.00  0.00     0.000 A 
ATOM     22  C   UNL d   1      54.911  33.291  54.048  0.00  0.00     0.002 A 
ENDBRANCH   6  17
TORSDOF 3
ENDMDL
MODEL 2
REMARK VINA RESULT:      -9.2      1.116      2.213
REMARK  3 active torsions:
REMARK  status: ('A' for Active; 'I' for Inactive)
REMARK    1  A    between atoms: C_9  and  C_5 
REMARK    2  A    between atoms: C_10  and  C_6 
REMARK    3  A    between atoms: O_16  and  C_13 
ROOT
ATOM      1  N   UNL d   1      53.019  32.379  53.357  0.00  0.00    -0.205 N 
ATOM      2  C   UNL d   1      53.410  33.105  53.403  0.00  0.00     0.197 A 
ATOM      3  N   UNL d   1      52.870  33.700  53.194  0.00  0.00    -0.200 NA
ATOM      4  N   UNL d   1      52.242  32.523  53.121  0.00  0.00    -0.144 NA
ATOM      5  C   UNL d   1      52.150  33.335  53.021  0.00  0.00     0.184 A 
ATOM      6  C   UNL d   1      53.554  31.780  53.565  0.00  0.00     0.092 A 
ATOM      7  S   UNL d   1      54.194  32.955  53.641  0.00  0.00    -0.046 SA
ATOM      8  C   UNL d   1      54.277  32.133  53.740  0.00  0.00     0.058 A 
ENDROOT
BRANCH   5   9
ATOM      9  C   UNL d   1      51.466  33.720  52.790  0.00  0.00     0.038 A 
ATOM     10  C   UNL d   1      50.830  33.776  53.306  0.00  0.00     0.005 A 
ATOM     11  C   UNL d   1      50.139  34.164  53.075  0.00  0.00     0.024 A 
ATOM     12  C   UNL d   1      50.087  34.497  52.328  0.00  0.00     0.094 A 
ATOM     13  C   UNL d   1      50.727  34.444  51.801  0.00  0.00     0.024 A 
ATOM     14  C   UNL d   1      51.414  34.056  52.036  0.00  0.00     0.005 A 
BRANCH  12  15
ATOM     15  O   UNL d   1      49.395  34.886  52.097  0.00  0.00    -0.328 OA
ATOM     16  C   UNL d   1      48.921  34.562  51.497  0.00  0.00     0.181 C 
ENDBRANCH  12  15
ENDBRANCH   5   9
BRANCH   6  17
ATOM     17  C   UNL d   1      53.382  30.969  53.589  0.00  0.00     0.018 A 
ATOM     18  C   UNL d   1      53.227  30.552  52.896  0.00  0.00     0.002 A 
ATOM     19  C   UNL d   1      53.057  29.746  52.925  0.00  0.00     0.000 A 
ATOM     20  C   UNL d   1      53.041  29.348  53.655  0.00  0.00     0.000 A 
ATOM     21  C   UNL d   1      53.196  29.765  54.347  0.00  0.00     0.000 A 
ATOM     22  C   UNL d   1      53.366  30.571  54.323  0.00  0.00     0.002 A 
ENDBRANCH   6  17
TORSDOF 3
ENDMDL
MODEL 3
REMARK VINA RESULT:      -9.1      2.143      4.502
REMARK  3 active torsions:
REMARK  status: ('A' for Active; 'I' for Inactive)
REMARK    1  A    between atoms: C_9  and  C_5 
REMARK    2  A    between atoms: C_10  and  C_6 
REMARK    3  A    between atoms: O_16  and  C_13 
ROOT
ATOM      1  N   UNL d   1      52.430  33.382  53.163  0.00  0.00    -0.205 N 
ATOM      2  C   UNL d   1      53.195  33.503  53.448  0.00  0.00     0.197 A 
ATOM      3  N   UNL d   1      53.520  32.762  53.632  0.00  0.00    -0.200 NA
ATOM      4  N   UNL d   1      52.280  32.570  53.172  0.00  0.00    -0.144 NA
ATOM      5  C   UNL d   1      52.950  32.188  53.460  0.00  0.00     0.184 A 
ATOM      6  C   UNL d   1      52.100  34.120  52.977  0.00  0.00     0.092 A 
ATOM      7  S   UNL d   1      53.342  34.323  53.437  0.00  0.00    -0.046 SA
ATOM      8  C   UNL d   1      52.660  34.700  53.145  0.00  0.00     0.058 A 
ENDROOT
BRANCH   5   9
ATOM      9  C   UNL d   1      53.042  31.382  53.561  0.00  0.00     0.038 A 
ATOM     10  C   UNL d   1      53.367  31.088  54.255  0.00  0.00     0.005 A 
ATOM     11  C   UNL d   1      53.462  30.275  54.359  0.00  0.00     0.024 A 
ATOM     12  C   UNL d   1      53.231  29.757  53.768  0.00  0.00     0.094 A 
ATOM     13  C   UNL d   1      52.901  30.048  53.063  0.00  0.00     0.024 A 
ATOM     14  C   UNL d   1      52.809  30.860  52.964  0.00  0.00     0.005 A 
BRANCH  12  15
ATOM     15  O   UNL d   1      53.325  28.943  53.873  0.00  0.00    -0.328 OA
ATOM     16  C   UNL d   1      53.464  28.638  54.633  0.00  0.00     0.181 C 
ENDBRANCH  12  15
ENDBRANCH   5   9
BRANCH   6  17
ATOM     17  C   UNL d   1      51.338  34.244  52.674  0.00  0.00     0.018 A 
ATOM     18  C   UNL d   1      51.197  34.206  51.863  0.00  0.00     0.002 A 
ATOM     19  C   UNL d   1      50.438  34.330  51.566  0.00  0.00     0.000 A 
ATOM     20  C   UNL d   1      49.809  34.493  52.084  0.00  0.00     0.000 A 
ATOM     21  C   UNL d   1      49.949  34.531  52.894  0.00  0.00     0.000 A 
ATOM     22  C   UNL d   1      50.707  34.408  53.196  0.00  0.00     0.002 A 
ENDBRANCH   6  17
TORSDOF 3
ENDMDL
MODEL 4
REMARK VINA RESULT:      -7.8      2.424      3.895
REMARK  3 active torsions:
REMARK  status: ('A' for Active; 'I' for Inactive)
REMARK    1  A    between atoms: C_9  and  C_5 
REMARK    2  A    between atoms: C_10  and  C_6 
REMARK    3  A    between atoms: O_16  and  C_13 
ROOT
ATOM      1  N   UNL d   1      52.329  33.423  53.113  0.00  0.00    -0.205 N 
ATOM      2  C   UNL d   1      51.852  33.095  52.524  0.00  0.00     0.197 A 
ATOM      3  N   UNL d   1      51.971  32.274  52.526  0.00  0.00    -0.200 NA
ATOM      4  N   UNL d   1      52.743  32.809  53.477  0.00  0.00    -0.144 NA
ATOM      5  C   UNL d   1      52.523  32.102  53.117  0.00  0.00     0.184 A 
ATOM      6  C   UNL d   1      52.214  34.245  53.116  0.00  0.00     0.092 A 
ATOM      7  S   UNL d   1      51.437  33.718  52.160  0.00  0.00    -0.046 SA
ATOM      8  C   UNL d   1      51.665  34.428  52.530  0.00  0.00     0.058 A 
ENDROOT
BRANCH   5   9
ATOM      9  C   UNL d   1      52.799  31.356  53.306  0.00  0.00     0.038 A 
ATOM     10  C   UNL d   1      52.391  30.690  53.054  0.00  0.00     0.005 A 
ATOM     11  C   UNL d   1      52.667  29.935  53.244  0.00  0.00     0.024 A 
ATOM     12  C   UNL d   1      53.352  29.849  53.685  0.00  0.00     0.094 A 
ATOM     13  C   UNL d   1      53.770  30.520  53.943  0.00  0.00     0.024 A 
ATOM     14  C   UNL d   1      53.490  31.270  53.751  0.00  0.00     0.005 A 
BRANCH  12  15
ATOM     15  O   UNL d   1      53.629  29.094  53.875  0.00  0.00    -0.328 OA
ATOM     16  C   UNL d   1      53.467  28.771  54.623  0.00  0.00     0.181 C 
ENDBRANCH  12  15
ENDBRANCH   5   9
BRANCH   6  17
ATOM     17  C   UNL d   1      52.590  34.781  53.623  0.00  0.00     0.018 A 
ATOM     18  C   UNL d   1      53.337  35.079  53.442  0.00  0.00     0.002 A 
ATOM     19  C   UNL d   1      53.707  35.612  53.949  0.00  0.00     0.000 A 
ATOM     20  C   UNL d   1      53.329  35.854  54.649  0.00  0.00     0.000 A 
ATOM     21  C   UNL d   1      52.584  35.557  54.831  0.00  0.00     0.000 A 
ATOM     22  C   UNL d   1      52.209  35.023  54.326  0.00  0.00     0.002 A 
ENDBRANCH   6  17
TORSDOF 3
ENDMDL
