MODEL 1
REMARK VINA RESULT:      54.3      0.000      0.000
REMARK  6 active torsions:
REMARK  status: ('A' for Active; 'I' for Inactive)
REMARK    1  A    between atoms: S_11  and  C_2 
REMARK    2  A    between atoms: C_5  and  N_8 
REMARK       I    between atoms: N_8  and  C_13 
REMARK    3  A    between atoms: C_17  and  C_10 
REMARK    4  A    between atoms: C_16  and  S_11 
REMARK    5  A    between atoms: C_13  and  C_16 
REMARK    6  A    between atoms: C_18  and  C_17 
ROOT
ATOM      1  C   UNL d   1     -47.788  29.014  35.162  0.00  0.00     0.197 A 
ATOM      2  N   UNL d   1     -48.061  29.264  35.901  0.00  0.00    -0.219 NA
ATOM      3  S   UNL d   1     -47.304  29.617  34.864  0.00  0.00    -0.047 SA
ATOM      4  C   UNL d   1     -47.280  30.226  35.410  0.00  0.00     0.051 A 
ATOM      5  C   UNL d   1     -47.750  30.006  36.052  0.00  0.00     0.108 A 
ENDROOT
BRANCH   1   6
ATOM      6  N   UNL d   1     -47.962  28.302  34.790  0.00  0.00    -0.182 NA
ATOM      7  C   UNL d   1     -48.736  28.134  34.560  0.00  0.00     0.288 C 
ATOM      8  O   UNL d   1     -49.339  28.685  34.706  0.00  0.00    -0.265 OA
BRANCH   7   9
ATOM      9  C   UNL d   1     -48.919  27.422  34.187  0.00  0.00     0.101 C 
BRANCH   9  10
ATOM     10  S   UNL d   1     -49.625  27.335  33.787  0.00  0.00    -0.041 SA
BRANCH  10  11
ATOM     11  C   UNL d   1     -49.917  26.577  33.618  0.00  0.00     0.219 A 
ATOM     12  N   UNL d   1     -50.711  26.365  33.582  0.00  0.00    -0.167 N 
ATOM     13  C   UNL d   1     -50.751  25.568  33.400  0.00  0.00     0.189 A 
ATOM     14  N   UNL d   1     -51.353  26.868  33.708  0.00  0.00    -0.038 N 
ATOM     15  N   UNL d   1     -49.977  25.283  33.321  0.00  0.00    -0.126 NA
ATOM     16  C   UNL d   1     -51.442  25.119  33.308  0.00  0.00     0.044 C 
ATOM     17  N   UNL d   1     -49.467  25.909  33.457  0.00  0.00    -0.120 NA
ENDBRANCH  10  11
ENDBRANCH   9  10
ENDBRANCH   7   9
ENDBRANCH   1   6
BRANCH   4  18
ATOM     18  C   UNL d   1     -46.862  30.932  35.330  0.00  0.00     0.008 C 
BRANCH  18  19
ATOM     19  C   UNL d   1     -47.184  31.548  34.891  0.00  0.00     0.001 A 
ATOM     20  C   UNL d   1     -47.795  32.007  35.207  0.00  0.00     0.002 A 
ATOM     21  C   UNL d   1     -48.117  32.623  34.768  0.00  0.00     0.030 A 
ATOM     22  C   UNL d   1     -47.830  32.787  34.008  0.00  0.00     0.140 A 
ATOM     23  C   UNL d   1     -47.221  32.332  33.692  0.00  0.00     0.030 A 
ATOM     24  F   UNL d   1     -48.153  33.403  33.573  0.00  0.00    -0.204 F 
ATOM     25  C   UNL d   1     -46.896  31.712  34.131  0.00  0.00     0.002 A 
ENDBRANCH  18  19
ENDBRANCH   4  18
TORSDOF 6
ENDMDL
MODEL 2
REMARK VINA RESULT:      54.4      2.487      6.301
REMARK  6 active torsions:
REMARK  status: ('A' for Active; 'I' for Inactive)
REMARK    1  A    between atoms: S_11  and  C_2 
REMARK    2  A    between atoms: C_5  and  N_8 
REMARK       I    between atoms: N_8  and  C_13 
REMARK    3  A    between atoms: C_17  and  C_10 
REMARK    4  A    between atoms: C_16  and  S_11 
REMARK    5  A    between atoms: C_13  and  C_16 
REMARK    6  A    between atoms: C_18  and  C_17 
ROOT
ATOM      1  C   UNL d   1     -49.787  27.340  33.850  0.00  0.00     0.197 A 
ATOM      2  N   UNL d   1     -49.564  26.544  33.841  0.00  0.00    -0.219 NA
ATOM      3  S   UNL d   1     -50.590  27.370  33.649  0.00  0.00    -0.047 SA
ATOM      4  C   UNL d   1     -50.856  26.607  33.519  0.00  0.00     0.051 A 
ATOM      5  C   UNL d   1     -50.218  26.096  33.638  0.00  0.00     0.108 A 
ENDROOT
BRANCH   1   6
ATOM      6  N   UNL d   1     -49.305  27.982  34.025  0.00  0.00    -0.182 NA
ATOM      7  C   UNL d   1     -48.595  27.868  34.428  0.00  0.00     0.288 C 
ATOM      8  O   UNL d   1     -48.367  27.104  34.657  0.00  0.00    -0.265 OA
BRANCH   7   9
ATOM      9  C   UNL d   1     -48.106  28.507  34.607  0.00  0.00     0.101 C 
BRANCH   9  10
ATOM     10  S   UNL d   1     -48.413  29.174  34.966  0.00  0.00    -0.041 SA
BRANCH  10  11
ATOM     11  C   UNL d   1     -47.909  29.787  35.206  0.00  0.00     0.219 A 
ATOM     12  N   UNL d   1     -48.026  30.589  35.065  0.00  0.00    -0.167 N 
ATOM     13  C   UNL d   1     -47.398  30.998  35.395  0.00  0.00     0.189 A 
ATOM     14  N   UNL d   1     -48.665  30.921  34.661  0.00  0.00    -0.038 N 
ATOM     15  N   UNL d   1     -46.887  30.446  35.743  0.00  0.00    -0.126 NA
ATOM     16  C   UNL d   1     -47.288  31.819  35.386  0.00  0.00     0.044 C 
ATOM     17  N   UNL d   1     -47.206  29.702  35.624  0.00  0.00    -0.120 NA
ENDBRANCH  10  11
ENDBRANCH   9  10
ENDBRANCH   7   9
ENDBRANCH   1   6
BRANCH   4  18
ATOM     18  C   UNL d   1     -51.623  26.390  33.307  0.00  0.00     0.008 C 
BRANCH  18  19
ATOM     19  C   UNL d   1     -51.836  25.596  33.308  0.00  0.00     0.001 A 
ATOM     20  C   UNL d   1     -52.635  25.382  33.310  0.00  0.00     0.002 A 
ATOM     21  C   UNL d   1     -52.848  24.587  33.311  0.00  0.00     0.030 A 
ATOM     22  C   UNL d   1     -52.263  24.000  33.309  0.00  0.00     0.140 A 
ATOM     23  C   UNL d   1     -51.468  24.211  33.307  0.00  0.00     0.030 A 
ATOM     24  F   UNL d   1     -52.479  23.208  33.310  0.00  0.00    -0.204 F 
ATOM     25  C   UNL d   1     -51.251  25.009  33.306  0.00  0.00     0.002 A 
ENDBRANCH  18  19
ENDBRANCH   4  18
TORSDOF 6
ENDMDL
MODEL 3
REMARK VINA RESULT:      55.4      1.241      1.852
REMARK  6 active torsions:
REMARK  status: ('A' for Active; 'I' for Inactive)
REMARK    1  A    between atoms: S_11  and  C_2 
REMARK    2  A    between atoms: C_5  and  N_8 
REMARK       I    between atoms: N_8  and  C_13 
REMARK    3  A    between atoms: C_17  and  C_10 
REMARK    4  A    between atoms: C_16  and  S_11 
REMARK    5  A    between atoms: C_13  and  C_16 
REMARK    6  A    between atoms: C_18  and  C_17 
ROOT
ATOM      1  C   UNL d   1     -48.882  27.783  34.426  0.00  0.00     0.197 A 
ATOM      2  N   UNL d   1     -49.344  28.451  34.578  0.00  0.00    -0.219 NA
ATOM      3  S   UNL d   1     -48.102  27.975  34.630  0.00  0.00    -0.047 SA
ATOM      4  C   UNL d   1     -48.085  28.746  34.901  0.00  0.00     0.051 A 
ATOM      5  C   UNL d   1     -48.856  29.040  34.869  0.00  0.00     0.108 A 
ENDROOT
BRANCH   1   6
ATOM      6  N   UNL d   1     -49.143  27.063  34.129  0.00  0.00    -0.182 NA
ATOM      7  C   UNL d   1     -49.810  27.033  33.645  0.00  0.00     0.288 C 
ATOM      8  O   UNL d   1     -50.217  27.731  33.458  0.00  0.00    -0.265 OA
BRANCH   7   9
ATOM      9  C   UNL d   1     -50.079  26.314  33.344  0.00  0.00     0.101 C 
BRANCH   9  10
ATOM     10  S   UNL d   1     -50.875  26.132  33.358  0.00  0.00    -0.041 SA
BRANCH  10  11
ATOM     11  C   UNL d   1     -51.122  25.341  33.341  0.00  0.00     0.219 A 
ATOM     12  N   UNL d   1     -51.902  25.079  33.335  0.00  0.00    -0.167 N 
ATOM     13  C   UNL d   1     -51.894  24.261  33.317  0.00  0.00     0.189 A 
ATOM     14  N   UNL d   1     -52.573  25.560  33.345  0.00  0.00    -0.038 N 
ATOM     15  N   UNL d   1     -51.104  24.011  33.311  0.00  0.00    -0.126 NA
ATOM     16  C   UNL d   1     -52.557  23.764  33.306  0.00  0.00     0.044 C 
ATOM     17  N   UNL d   1     -50.632  24.680  33.326  0.00  0.00    -0.120 NA
ENDBRANCH  10  11
ENDBRANCH   9  10
ENDBRANCH   7   9
ENDBRANCH   1   6
BRANCH   4  18
ATOM     18  C   UNL d   1     -47.417  29.154  35.161  0.00  0.00     0.008 C 
BRANCH  18  19
ATOM     19  C   UNL d   1     -47.423  29.977  35.175  0.00  0.00     0.001 A 
ATOM     20  C   UNL d   1     -47.315  30.404  34.476  0.00  0.00     0.002 A 
ATOM     21  C   UNL d   1     -47.320  31.227  34.490  0.00  0.00     0.030 A 
ATOM     22  C   UNL d   1     -47.435  31.629  35.206  0.00  0.00     0.140 A 
ATOM     23  C   UNL d   1     -47.543  31.205  35.904  0.00  0.00     0.030 A 
ATOM     24  F   UNL d   1     -47.440  32.449  35.218  0.00  0.00    -0.204 F 
ATOM     25  C   UNL d   1     -47.537  30.379  35.891  0.00  0.00     0.002 A 
ENDBRANCH  18  19
ENDBRANCH   4  18
TORSDOF 6
ENDMDL
MODEL 4
REMARK VINA RESULT:      56.7      2.412      6.064
REMARK  6 active torsions:
REMARK  status: ('A' for Active; 'I' for Inactive)
REMARK    1  A    between atoms: S_11  and  C_2 
REMARK    2  A    between atoms: C_5  and  N_8 
REMARK       I    between atoms: N_8  and  C_13 
REMARK    3  A    between atoms: C_17  and  C_10 
REMARK    4  A    between atoms: C_16  and  S_11 
REMARK    5  A    between atoms: C_13  and  C_16 
REMARK    6  A    between atoms: C_18  and  C_17 
ROOT
ATOM      1  C   UNL d   1     -49.357  28.148  33.991  0.00  0.00     0.197 A 
ATOM      2  N   UNL d   1     -48.951  27.477  33.731  0.00  0.00    -0.219 NA
ATOM      3  S   UNL d   1     -50.163  28.011  33.862  0.00  0.00    -0.047 SA
ATOM      4  C   UNL d   1     -50.252  27.269  33.528  0.00  0.00     0.051 A 
ATOM      5  C   UNL d   1     -49.499  26.939  33.447  0.00  0.00     0.108 A 
ENDROOT
BRANCH   1   6
ATOM      6  N   UNL d   1     -49.025  28.825  34.318  0.00  0.00    -0.182 NA
ATOM      7  C   UNL d   1     -48.464  28.763  34.919  0.00  0.00     0.288 C 
ATOM      8  O   UNL d   1     -48.235  28.014  35.194  0.00  0.00    -0.265 OA
BRANCH   7   9
ATOM      9  C   UNL d   1     -48.127  29.437  35.251  0.00  0.00     0.101 C 
BRANCH   9  10
ATOM     10  S   UNL d   1     -47.623  29.907  34.812  0.00  0.00    -0.041 SA
BRANCH  10  11
ATOM     11  C   UNL d   1     -47.526  30.707  35.005  0.00  0.00     0.219 A 
ATOM     12  N   UNL d   1     -47.730  31.346  34.529  0.00  0.00    -0.167 N 
ATOM     13  C   UNL d   1     -47.540  32.032  34.931  0.00  0.00     0.189 A 
ATOM     14  N   UNL d   1     -48.068  31.299  33.776  0.00  0.00    -0.038 N 
ATOM     15  N   UNL d   1     -47.215  31.820  35.663  0.00  0.00    -0.126 NA
ATOM     16  C   UNL d   1     -47.651  32.807  34.659  0.00  0.00     0.044 C 
ATOM     17  N   UNL d   1     -47.208  31.002  35.704  0.00  0.00    -0.120 NA
ENDBRANCH  10  11
ENDBRANCH   9  10
ENDBRANCH   7   9
ENDBRANCH   1   6
BRANCH   4  18
ATOM     18  C   UNL d   1     -50.965  26.917  33.312  0.00  0.00     0.008 C 
BRANCH  18  19
ATOM     19  C   UNL d   1     -51.031  26.097  33.311  0.00  0.00     0.001 A 
ATOM     20  C   UNL d   1     -51.777  25.741  33.315  0.00  0.00     0.002 A 
ATOM     21  C   UNL d   1     -51.843  24.921  33.315  0.00  0.00     0.030 A 
ATOM     22  C   UNL d   1     -51.161  24.450  33.310  0.00  0.00     0.140 A 
ATOM     23  C   UNL d   1     -50.417  24.802  33.306  0.00  0.00     0.030 A 
ATOM     24  F   UNL d   1     -51.230  23.632  33.309  0.00  0.00    -0.204 F 
ATOM     25  C   UNL d   1     -50.349  25.626  33.306  0.00  0.00     0.002 A 
ENDBRANCH  18  19
ENDBRANCH   4  18
TORSDOF 6
ENDMDL
