MODEL 1
REMARK VINA RESULT:      -5.7      0.000      0.000
REMARK  1 active torsions:
REMARK  status: ('A' for Active; 'I' for Inactive)
REMARK    1  A    between atoms: C_2  and  N_1 
ROOT
ATOM      1  C   UNL d   1     -41.827-122.419 -54.624  0.00  0.00     0.127 A 
ATOM      2  C   UNL d   1     -41.814-122.093 -53.863  0.00  0.00     0.025 A 
ATOM      3  C   UNL d   1     -41.584-122.551 -53.221  0.00  0.00     0.021 A 
ATOM      4  N   UNL d   1     -41.342-122.682 -51.822  0.00  0.00    -0.242 NA
ATOM      5  C   UNL d   1     -41.366-123.337 -53.333  0.00  0.00     0.003 A 
ATOM      6  C   UNL d   1     -41.606-123.211 -54.728  0.00  0.00     0.024 A 
ATOM      7  C   UNL d   1     -41.377-123.668 -54.087  0.00  0.00     0.002 A 
ATOM      8  C   UNL d   1     -41.571-122.224 -52.464  0.00  0.00     0.099 A 
ATOM      9  C   UNL d   1     -41.124-123.468 -51.934  0.00  0.00     0.099 A 
ATOM     10  C   UNL d   1     -41.132-123.807 -52.689  0.00  0.00     0.021 A 
ENDROOT
BRANCH   1  11
ATOM     11  N   UNL d   1     -42.058-121.961 -55.270  0.00  0.00    -0.114 N 
ATOM     12  O   UNL d   1     -41.496-121.524 -55.684  0.00  0.00    -0.532 OA
ATOM     13  O   UNL d   1     -42.851-121.938 -55.505  0.00  0.00    -0.532 OA
ENDBRANCH   1  11
TORSDOF 1
ENDMDL
MODEL 2
REMARK VINA RESULT:      -4.1      2.427      3.294
REMARK  1 active torsions:
REMARK  status: ('A' for Active; 'I' for Inactive)
REMARK    1  A    between atoms: C_2  and  N_1 
ROOT
ATOM      1  C   UNL d   1     -41.539-122.691 -51.458  0.00  0.00     0.127 A 
ATOM      2  C   UNL d   1     -42.088-122.360 -50.934  0.00  0.00     0.025 A 
ATOM      3  C   UNL d   1     -42.216-122.702 -50.199  0.00  0.00     0.021 A 
ATOM      4  N   UNL d   1     -42.892-122.714 -48.943  0.00  0.00    -0.242 NA
ATOM      5  C   UNL d   1     -41.799-123.377 -49.980  0.00  0.00     0.003 A 
ATOM      6  C   UNL d   1     -41.123-123.369 -51.230  0.00  0.00     0.024 A 
ATOM      7  C   UNL d   1     -41.251-123.712 -50.495  0.00  0.00     0.002 A 
ATOM      8  C   UNL d   1     -42.764-122.371 -49.678  0.00  0.00     0.099 A 
ATOM      9  C   UNL d   1     -42.475-123.388 -48.724  0.00  0.00     0.099 A 
ATOM     10  C   UNL d   1     -41.922-123.730 -49.238  0.00  0.00     0.021 A 
ENDROOT
BRANCH   1  11
ATOM     11  N   UNL d   1     -41.408-122.348 -52.196  0.00  0.00    -0.114 N 
ATOM     12  O   UNL d   1     -41.123-121.578 -52.247  0.00  0.00    -0.532 OA
ATOM     13  O   UNL d   1     -41.563-122.775 -52.889  0.00  0.00    -0.532 OA
ENDBRANCH   1  11
TORSDOF 1
ENDMDL
MODEL 3
REMARK VINA RESULT:      -4.1      3.045      4.029
REMARK  1 active torsions:
REMARK  status: ('A' for Active; 'I' for Inactive)
REMARK    1  A    between atoms: C_2  and  N_1 
ROOT
ATOM      1  C   UNL d   1     -41.742-123.088 -49.954  0.00  0.00     0.127 A 
ATOM      2  C   UNL d   1     -41.734-122.387 -50.397  0.00  0.00     0.025 A 
ATOM      3  C   UNL d   1     -41.530-122.404 -51.192  0.00  0.00     0.021 A 
ATOM      4  N   UNL d   1     -41.319-121.722 -52.426  0.00  0.00    -0.242 NA
ATOM      5  C   UNL d   1     -41.334-123.117 -51.552  0.00  0.00     0.003 A 
ATOM      6  C   UNL d   1     -41.543-123.801 -50.325  0.00  0.00     0.024 A 
ATOM      7  C   UNL d   1     -41.339-123.817 -51.119  0.00  0.00     0.002 A 
ATOM      8  C   UNL d   1     -41.523-121.705 -51.631  0.00  0.00     0.099 A 
ATOM      9  C   UNL d   1     -41.123-122.435 -52.787  0.00  0.00     0.099 A 
ATOM     10  C   UNL d   1     -41.126-123.142 -52.357  0.00  0.00     0.021 A 
ENDROOT
BRANCH   1  11
ATOM     11  N   UNL d   1     -41.946-123.073 -49.155  0.00  0.00    -0.114 N 
ATOM     12  O   UNL d   1     -41.358-123.117 -48.581  0.00  0.00    -0.532 OA
ATOM     13  O   UNL d   1     -42.740-123.015 -48.927  0.00  0.00    -0.532 OA
ENDBRANCH   1  11
TORSDOF 1
ENDMDL
MODEL 4
REMARK VINA RESULT:      -3.9      3.627      4.755
REMARK  1 active torsions:
REMARK  status: ('A' for Active; 'I' for Inactive)
REMARK    1  A    between atoms: C_2  and  N_1 
ROOT
ATOM      1  C   UNL d   1     -42.293-123.198 -49.089  0.00  0.00     0.127 A 
ATOM      2  C   UNL d   1     -42.458-122.602 -49.640  0.00  0.00     0.025 A 
ATOM      3  C   UNL d   1     -42.072-122.592 -50.365  0.00  0.00     0.021 A 
ATOM      4  N   UNL d   1     -41.851-121.989 -51.638  0.00  0.00    -0.242 NA
ATOM      5  C   UNL d   1     -41.519-123.175 -50.546  0.00  0.00     0.003 A 
ATOM      6  C   UNL d   1     -41.736-123.780 -49.278  0.00  0.00     0.024 A 
ATOM      7  C   UNL d   1     -41.350-123.771 -50.002  0.00  0.00     0.002 A 
ATOM      8  C   UNL d   1     -42.237-121.999 -50.913  0.00  0.00     0.099 A 
ATOM      9  C   UNL d   1     -41.299-122.572 -51.819  0.00  0.00     0.099 A 
ATOM     10  C   UNL d   1     -41.124-123.173 -51.277  0.00  0.00     0.021 A 
ENDROOT
BRANCH   1  11
ATOM     11  N   UNL d   1     -42.679-123.209 -48.360  0.00  0.00    -0.114 N 
ATOM     12  O   UNL d   1     -43.287-123.748 -48.226  0.00  0.00    -0.532 OA
ATOM     13  O   UNL d   1     -42.459-122.681 -47.761  0.00  0.00    -0.532 OA
ENDBRANCH   1  11
TORSDOF 1
ENDMDL
