MODEL 1
REMARK VINA RESULT:      43.5      0.000      0.000
REMARK  6 active torsions:
REMARK  status: ('A' for Active; 'I' for Inactive)
REMARK    1  A    between atoms: C_2  and  S_1 
REMARK    2  A    between atoms: N_10  and  S_1 
REMARK    3  A    between atoms: O_16  and  C_7 
REMARK    4  A    between atoms: C_13  and  N_10 
REMARK    5  A    between atoms: N_11  and  C_17 
REMARK    6  A    between atoms: C_17  and  C_13 
ROOT
ATOM      1  S   UNL d   1     -55.128-102.129 -39.856  0.00  0.00     0.286 S 
ATOM      2  O   UNL d   1     -55.481-102.737 -40.297  0.00  0.00    -0.198 OA
ATOM      3  O   UNL d   1     -54.781-101.532 -39.423  0.00  0.00    -0.198 OA
ENDROOT
BRANCH   1   4
ATOM      4  C   UNL d   1     -55.024-101.689 -40.545  0.00  0.00     0.117 A 
ATOM      5  C   UNL d   1     -54.928-100.870 -40.502  0.00  0.00     0.027 A 
ATOM      6  C   UNL d   1     -54.824-100.430 -41.192  0.00  0.00     0.081 A 
ATOM      7 CL   UNL d   1     -54.728 -99.606 -41.150  0.00  0.00    -0.080 Cl
ATOM      8  C   UNL d   1     -54.816-100.809 -41.925  0.00  0.00     0.105 A 
ATOM      9  C   UNL d   1     -54.911-101.619 -41.964  0.00  0.00     0.037 A 
ATOM     10  C   UNL d   1     -55.015-102.059 -41.273  0.00  0.00     0.072 A 
ATOM     11 CL   UNL d   1     -55.109-102.875 -41.320  0.00  0.00    -0.082 Cl
BRANCH   8  12
ATOM     12  O   UNL d   1     -54.712-100.368 -42.616  0.00  0.00    -0.327 OA
ATOM     13  C   UNL d   1     -55.369-100.076 -43.021  0.00  0.00     0.181 C 
ENDBRANCH   8  12
ENDBRANCH   1   4
BRANCH   1  14
ATOM     14  N   UNL d   1     -55.232-102.569 -39.166  0.00  0.00    -0.155 NA
BRANCH  14  15
ATOM     15  C   UNL d   1     -55.042-102.245 -38.443  0.00  0.00     0.131 C 
BRANCH  15  16
ATOM     16  C   UNL d   1     -54.930-102.734 -37.788  0.00  0.00     0.102 C 
BRANCH  16  17
ATOM     17  N   UNL d   1     -54.964-102.418 -37.026  0.00  0.00    -0.298 N 
ATOM     18  C   UNL d   1     -54.718-101.643 -36.890  0.00  0.00     0.107 A 
ATOM     19  C   UNL d   1     -54.753-101.328 -36.128  0.00  0.00     0.142 A 
ATOM     20  O   UNL d   1     -55.034-101.788 -35.498  0.00  0.00    -0.300 OA
ATOM     21  C   UNL d   1     -55.280-102.564 -35.635  0.00  0.00     0.142 A 
ATOM     22  C   UNL d   1     -55.245-102.879 -36.401  0.00  0.00     0.107 A 
ENDBRANCH  16  17
ENDBRANCH  15  16
ENDBRANCH  14  15
ENDBRANCH   1  14
TORSDOF 6
ENDMDL
