MODEL 1
REMARK VINA RESULT:     102.5      0.000      0.000
REMARK  5 active torsions:
REMARK  status: ('A' for Active; 'I' for Inactive)
REMARK    1  A    between atoms: N_4  and  S_1 
REMARK    2  A    between atoms: C_10  and  S_1 
REMARK    3  A    between atoms: C_2  and  N_9 
REMARK    4  A    between atoms: C_13  and  C_3 
REMARK    5  A    between atoms: C_11  and  C_8 
REMARK       I    between atoms: N_9  and  C_11 
REMARK       I    between atoms: C_15  and  N_12 
ROOT
ATOM      1  N   UNL d   1     -52.911  24.482  35.804  0.00  0.00    -0.200 NA
ATOM      2  C   UNL d   1     -52.835  24.712  35.013  0.00  0.00     0.296 C 
ATOM      3  O   UNL d   1     -52.457  25.423  34.830  0.00  0.00    -0.264 OA
ENDROOT
BRANCH   1   4
ATOM      4  C   UNL d   1     -52.612  24.958  36.409  0.00  0.00     0.119 A 
ATOM      5  C   UNL d   1     -52.783  24.903  37.208  0.00  0.00     0.084 A 
ATOM      6  C   UNL d   1     -52.359  25.491  37.612  0.00  0.00     0.016 A 
ATOM      7  C   UNL d   1     -52.316  25.695  38.407  0.00  0.00     0.020 A 
ATOM      8  C   UNL d   1     -51.925  25.909  37.051  0.00  0.00     0.049 A 
ATOM      9  C   UNL d   1     -51.838  26.315  38.642  0.00  0.00     0.083 A 
ATOM     10  N   UNL d   1     -51.395  26.742  38.078  0.00  0.00    -0.272 N 
ATOM     11  C   UNL d   1     -51.442  26.535  37.285  0.00  0.00     0.089 A 
ATOM     12  C   UNL d   1     -50.908  27.376  38.323  0.00  0.00     0.265 C 
ATOM     13  O   UNL d   1     -50.473  27.795  37.762  0.00  0.00    -0.267 OA
ATOM     14  C   UNL d   1     -50.866  27.579  39.123  0.00  0.00     0.066 C 
ATOM     15  S   UNL d   1     -52.076  25.586  36.309  0.00  0.00    -0.066 SA
BRANCH   5  16
ATOM     16  C   UNL d   1     -53.294  24.353  37.560  0.00  0.00     0.299 C 
ATOM     17  O   UNL d   1     -54.008  24.599  37.877  0.00  0.00    -0.264 OA
ATOM     18  N   UNL d   1     -53.074  23.567  37.583  0.00  0.00    -0.102 N 
ENDBRANCH   5  16
ENDBRANCH   1   4
BRANCH   2  19
ATOM     19  C   UNL d   1     -53.132  24.240  34.416  0.00  0.00     0.133 A 
ATOM     20  N   UNL d   1     -52.696  23.929  33.778  0.00  0.00    -0.226 N 
ATOM     21  C   UNL d   1     -53.223  23.482  33.309  0.00  0.00     0.092 A 
ATOM     22  C   UNL d   1     -53.966  23.522  33.656  0.00  0.00     0.021 A 
ATOM     23  C   UNL d   1     -53.915  23.987  34.337  0.00  0.00     0.025 A 
BRANCH  20  24
ATOM     24  S   UNL d   1     -51.889  24.042  33.635  0.00  0.00     0.277 S 
ATOM     25  O   UNL d   1     -51.757  23.289  33.937  0.00  0.00    -0.199 OA
ATOM     26  O   UNL d   1     -52.027  24.801  33.331  0.00  0.00    -0.199 OA
BRANCH  24  27
ATOM     27  C   UNL d   1     -51.080  24.116  33.507  0.00  0.00     0.133 A 
ATOM     28  S   UNL d   1     -50.660  24.822  33.437  0.00  0.00    -0.074 SA
ATOM     29  C   UNL d   1     -49.864  24.638  33.313  0.00  0.00     0.036 A 
ATOM     30  C   UNL d   1     -49.794  23.813  33.307  0.00  0.00     0.008 A 
ATOM     31  C   UNL d   1     -50.545  23.491  33.427  0.00  0.00     0.020 A 
ENDBRANCH  24  27
ENDBRANCH  20  24
ENDBRANCH   2  19
TORSDOF 5
ENDMDL
MODEL 2
REMARK VINA RESULT:     102.6      2.216      5.098
REMARK  5 active torsions:
REMARK  status: ('A' for Active; 'I' for Inactive)
REMARK    1  A    between atoms: N_4  and  S_1 
REMARK    2  A    between atoms: C_10  and  S_1 
REMARK    3  A    between atoms: C_2  and  N_9 
REMARK    4  A    between atoms: C_13  and  C_3 
REMARK    5  A    between atoms: C_11  and  C_8 
REMARK       I    between atoms: N_9  and  C_11 
REMARK       I    between atoms: C_15  and  N_12 
ROOT
ATOM      1  N   UNL d   1     -50.827  26.305  33.422  0.00  0.00    -0.200 NA
ATOM      2  C   UNL d   1     -50.756  26.821  34.065  0.00  0.00     0.296 C 
ATOM      3  O   UNL d   1     -51.285  26.759  34.696  0.00  0.00    -0.264 OA
ENDROOT
BRANCH   1   4
ATOM      4  C   UNL d   1     -51.420  25.732  33.409  0.00  0.00     0.119 A 
ATOM      5  C   UNL d   1     -51.318  24.919  33.420  0.00  0.00     0.084 A 
ATOM      6  C   UNL d   1     -52.064  24.557  33.401  0.00  0.00     0.016 A 
ATOM      7  C   UNL d   1     -52.298  23.768  33.402  0.00  0.00     0.020 A 
ATOM      8  C   UNL d   1     -52.627  25.157  33.378  0.00  0.00     0.049 A 
ATOM      9  C   UNL d   1     -53.092  23.580  33.379  0.00  0.00     0.083 A 
ATOM     10  N   UNL d   1     -53.668  24.184  33.356  0.00  0.00    -0.272 N 
ATOM     11  C   UNL d   1     -53.430  24.970  33.356  0.00  0.00     0.089 A 
ATOM     12  C   UNL d   1     -54.480  23.987  33.333  0.00  0.00     0.265 C 
ATOM     13  O   UNL d   1     -55.044  24.587  33.310  0.00  0.00    -0.267 OA
ATOM     14  C   UNL d   1     -54.712  23.194  33.334  0.00  0.00     0.066 C 
ATOM     15  S   UNL d   1     -52.237  25.882  33.383  0.00  0.00    -0.066 SA
BRANCH   5  16
ATOM     16  C   UNL d   1     -50.591  24.519  33.446  0.00  0.00     0.299 C 
ATOM     17  O   UNL d   1     -50.560  23.713  33.306  0.00  0.00    -0.264 OA
ATOM     18  N   UNL d   1     -49.914  24.942  33.613  0.00  0.00    -0.102 N 
ENDBRANCH   5  16
ENDBRANCH   1   4
BRANCH   2  19
ATOM     19  C   UNL d   1     -50.168  27.388  34.076  0.00  0.00     0.133 A 
ATOM     20  N   UNL d   1     -49.801  27.697  34.756  0.00  0.00    -0.226 N 
ATOM     21  C   UNL d   1     -49.237  28.259  34.505  0.00  0.00     0.092 A 
ATOM     22  C   UNL d   1     -49.261  28.290  33.684  0.00  0.00     0.021 A 
ATOM     23  C   UNL d   1     -49.832  27.757  33.416  0.00  0.00     0.025 A 
BRANCH  20  24
ATOM     24  S   UNL d   1     -49.965  27.486  35.540  0.00  0.00     0.277 S 
ATOM     25  O   UNL d   1     -49.554  28.157  35.778  0.00  0.00    -0.199 OA
ATOM     26  O   UNL d   1     -50.379  26.811  35.294  0.00  0.00    -0.199 OA
BRANCH  24  27
ATOM     27  C   UNL d   1     -50.108  27.310  36.330  0.00  0.00     0.133 A 
ATOM     28  S   UNL d   1     -49.608  27.473  36.965  0.00  0.00    -0.074 SA
ATOM     29  C   UNL d   1     -49.970  27.200  37.657  0.00  0.00     0.036 A 
ATOM     30  C   UNL d   1     -50.699  26.868  37.444  0.00  0.00     0.008 A 
ATOM     31  C   UNL d   1     -50.783  26.935  36.626  0.00  0.00     0.020 A 
ENDBRANCH  24  27
ENDBRANCH  20  24
ENDBRANCH   2  19
TORSDOF 5
ENDMDL
MODEL 3
REMARK VINA RESULT:     105.4      4.219      5.425
REMARK  5 active torsions:
REMARK  status: ('A' for Active; 'I' for Inactive)
REMARK    1  A    between atoms: N_4  and  S_1 
REMARK    2  A    between atoms: C_10  and  S_1 
REMARK    3  A    between atoms: C_2  and  N_9 
REMARK    4  A    between atoms: C_13  and  C_3 
REMARK    5  A    between atoms: C_11  and  C_8 
REMARK       I    between atoms: N_9  and  C_11 
REMARK       I    between atoms: C_15  and  N_12 
ROOT
ATOM      1  N   UNL d   1     -48.456  27.603  34.258  0.00  0.00    -0.200 NA
ATOM      2  C   UNL d   1     -49.074  27.332  33.778  0.00  0.00     0.296 C 
ATOM      3  O   UNL d   1     -49.597  27.875  33.443  0.00  0.00    -0.264 OA
ENDROOT
BRANCH   1   4
ATOM      4  C   UNL d   1     -48.362  28.410  34.402  0.00  0.00     0.119 A 
ATOM      5  C   UNL d   1     -48.178  28.763  35.118  0.00  0.00     0.084 A 
ATOM      6  C   UNL d   1     -48.139  29.584  35.008  0.00  0.00     0.016 A 
ATOM      7  C   UNL d   1     -47.979  30.206  35.522  0.00  0.00     0.020 A 
ATOM      8  C   UNL d   1     -48.302  29.733  34.214  0.00  0.00     0.049 A 
ATOM      9  C   UNL d   1     -47.981  30.974  35.243  0.00  0.00     0.083 A 
ATOM     10  N   UNL d   1     -48.145  31.131  34.440  0.00  0.00    -0.272 N 
ATOM     11  C   UNL d   1     -48.305  30.506  33.930  0.00  0.00     0.089 A 
ATOM     12  C   UNL d   1     -48.146  31.919  34.160  0.00  0.00     0.265 C 
ATOM     13  O   UNL d   1     -48.309  32.068  33.366  0.00  0.00    -0.267 OA
ATOM     14  C   UNL d   1     -47.984  32.541  34.679  0.00  0.00     0.066 C 
ATOM     15  S   UNL d   1     -48.440  29.014  33.836  0.00  0.00    -0.066 SA
BRANCH   5  16
ATOM     16  C   UNL d   1     -48.051  28.369  35.837  0.00  0.00     0.299 C 
ATOM     17  O   UNL d   1     -48.675  28.237  36.350  0.00  0.00    -0.264 OA
ATOM     18  N   UNL d   1     -47.296  28.119  36.022  0.00  0.00    -0.102 N 
ENDBRANCH   5  16
ENDBRANCH   1   4
BRANCH   2  19
ATOM     19  C   UNL d   1     -49.165  26.532  33.637  0.00  0.00     0.133 A 
ATOM     20  N   UNL d   1     -49.885  26.144  33.481  0.00  0.00    -0.226 N 
ATOM     21  C   UNL d   1     -49.714  25.333  33.372  0.00  0.00     0.092 A 
ATOM     22  C   UNL d   1     -48.904  25.232  33.459  0.00  0.00     0.021 A 
ATOM     23  C   UNL d   1     -48.562  25.967  33.622  0.00  0.00     0.025 A 
BRANCH  20  24
ATOM     24  S   UNL d   1     -50.633  26.495  33.442  0.00  0.00     0.277 S 
ATOM     25  O   UNL d   1     -50.959  25.753  33.576  0.00  0.00    -0.199 OA
ATOM     26  O   UNL d   1     -50.299  27.243  33.308  0.00  0.00    -0.199 OA
BRANCH  24  27
ATOM     27  C   UNL d   1     -51.392  26.808  33.410  0.00  0.00     0.133 A 
ATOM     28  S   UNL d   1     -51.594  27.606  33.462  0.00  0.00    -0.074 SA
ATOM     29  C   UNL d   1     -52.417  27.669  33.404  0.00  0.00     0.036 A 
ATOM     30  C   UNL d   1     -52.722  26.904  33.316  0.00  0.00     0.008 A 
ATOM     31  C   UNL d   1     -52.090  26.373  33.319  0.00  0.00     0.020 A 
ENDBRANCH  24  27
ENDBRANCH  20  24
ENDBRANCH   2  19
TORSDOF 5
ENDMDL
