MODEL 1
REMARK VINA RESULT:      21.5      0.000      0.000
REMARK  4 active torsions:
REMARK  status: ('A' for Active; 'I' for Inactive)
REMARK    1  A    between atoms: S_4  and  C_1 
REMARK    2  A    between atoms: C_7  and  S_4 
REMARK       I    between atoms: C_5  and  N_6 
REMARK    3  A    between atoms: C_12  and  C_5 
REMARK    4  A    between atoms: N_6  and  C_7 
ROOT
ATOM      1  C   UNL d   1      14.014  12.124  -0.832  0.00  0.00     0.141 C 
ENDROOT
BRANCH   1   2
ATOM      2  N   UNL d   1      13.660  12.392  -1.543  0.00  0.00    -0.199 NA
ATOM      3  C   UNL d   1      14.008  12.222  -2.272  0.00  0.00     0.280 C 
ATOM      4  O   UNL d   1      14.720  11.779  -2.305  0.00  0.00    -0.265 OA
BRANCH   3   5
ATOM      5  C   UNL d   1      13.653  12.488  -2.963  0.00  0.00     0.058 A 
ATOM      6  C   UNL d   1      13.429  11.947  -3.554  0.00  0.00     0.005 A 
ATOM      7  C   UNL d   1      13.074  12.204  -4.247  0.00  0.00     0.000 A 
ATOM      8  C   UNL d   1      12.934  13.016  -4.369  0.00  0.00     0.000 A 
ATOM      9  C   UNL d   1      13.159  13.564  -3.774  0.00  0.00     0.000 A 
ATOM     10  C   UNL d   1      13.522  13.288  -3.067  0.00  0.00     0.005 A 
ENDBRANCH   3   5
ENDBRANCH   1   2
BRANCH   1  11
ATOM     11  S   UNL d   1      14.033  12.613  -0.151  0.00  0.00    -0.027 SA
BRANCH  11  12
ATOM     12  C   UNL d   1      14.578  13.261  -0.114  0.00  0.00     0.196 A 
ATOM     13  N   UNL d   1      15.385  13.100  -0.081  0.00  0.00    -0.221 NA
ATOM     14  C   UNL d   1      15.921  13.729  -0.044  0.00  0.00     0.085 A 
ATOM     15  C   UNL d   1      16.638  13.605  -0.014  0.00  0.00     0.021 C 
ATOM     16  C   UNL d   1      15.643  14.525  -0.041  0.00  0.00     0.038 A 
ATOM     17  C   UNL d   1      14.839  14.666  -0.075  0.00  0.00     0.085 A 
ATOM     18  N   UNL d   1      14.300  14.057  -0.111  0.00  0.00    -0.221 NA
ATOM     19  C   UNL d   1      14.583  15.421  -0.071  0.00  0.00     0.021 C 
ENDBRANCH  11  12
ENDBRANCH   1  11
TORSDOF 4
ENDMDL
