MODEL 1
REMARK VINA RESULT:      -0.8      0.000      0.000
REMARK  4 active torsions:
REMARK  status: ('A' for Active; 'I' for Inactive)
REMARK    1  A    between atoms: N_10  and  C_3 
REMARK    2  A    between atoms: C_12  and  C_5 
REMARK    3  A    between atoms: C_11  and  C_8 
REMARK    4  A    between atoms: C_13  and  N_10 
ROOT
ATOM      1  C   UNL d   1      30.269  17.441 -24.353  0.00  0.00     0.168 A 
ATOM      2  N   UNL d   1      30.709  18.114 -24.589  0.00  0.00    -0.184 N 
ATOM      3  C   UNL d   1      31.510  18.102 -24.494  0.00  0.00     0.217 A 
ATOM      4  N   UNL d   1      30.654  16.795 -24.035  0.00  0.00    -0.231 NA
ATOM      5  C   UNL d   1      29.465  17.431 -24.439  0.00  0.00     0.057 A 
ATOM      6  N   UNL d   1      29.521  18.735 -24.988  0.00  0.00    -0.160 NA
ATOM      7  C   UNL d   1      31.907  17.459 -24.176  0.00  0.00     0.067 A 
ATOM      8  C   UNL d   1      31.473  16.797 -23.943  0.00  0.00     0.064 A 
ATOM      9  C   UNL d   1      29.087  18.073 -24.755  0.00  0.00     0.124 A 
ENDROOT
BRANCH   5  10
ATOM     10  C   UNL d   1      29.032  16.769 -24.207  0.00  0.00     0.004 A 
ATOM     11  C   UNL d   1      28.978  16.137 -24.711  0.00  0.00     0.000 A 
ATOM     12  C   UNL d   1      28.545  15.475 -24.478  0.00  0.00     0.000 A 
ATOM     13  C   UNL d   1      28.179  15.465 -23.749  0.00  0.00     0.000 A 
ATOM     14  C   UNL d   1      28.241  16.103 -23.255  0.00  0.00     0.000 A 
ATOM     15  C   UNL d   1      28.674  16.766 -23.488  0.00  0.00     0.000 A 
ENDBRANCH   5  10
BRANCH   3  16
ATOM     16  N   UNL d   1      31.957  18.786 -24.734  0.00  0.00    -0.383 NA
BRANCH  16  17
ATOM     17  C   UNL d   1      32.404  19.463 -24.974  0.00  0.00     0.134 C 
ATOM     18  C   UNL d   1      33.241  19.392 -25.091  0.00  0.00     0.035 C 
ATOM     19  C   UNL d   1      32.010  20.210 -25.097  0.00  0.00     0.035 C 
ENDBRANCH  16  17
ENDBRANCH   3  16
BRANCH   8  20
ATOM     20  C   UNL d   1      31.872  16.120 -23.610  0.00  0.00     0.036 C 
ATOM     21  C   UNL d   1      32.169  15.512 -24.124  0.00  0.00     0.006 C 
ATOM     22  C   UNL d   1      31.969  16.058 -22.763  0.00  0.00     0.006 C 
ATOM     23  C   UNL d   1      32.264  15.454 -23.276  0.00  0.00     0.006 C 
ENDBRANCH   8  20
TORSDOF 4
ENDMDL
MODEL 2
REMARK VINA RESULT:      -0.0      0.925      3.574
REMARK  4 active torsions:
REMARK  status: ('A' for Active; 'I' for Inactive)
REMARK    1  A    between atoms: N_10  and  C_3 
REMARK    2  A    between atoms: C_12  and  C_5 
REMARK    3  A    between atoms: C_11  and  C_8 
REMARK    4  A    between atoms: C_13  and  N_10 
ROOT
ATOM      1  C   UNL d   1      30.977  17.552 -24.103  0.00  0.00     0.168 A 
ATOM      2  N   UNL d   1      30.230  17.178 -24.164  0.00  0.00    -0.184 N 
ATOM      3  C   UNL d   1      30.173  16.398 -23.965  0.00  0.00     0.217 A 
ATOM      4  N   UNL d   1      31.625  17.125 -23.846  0.00  0.00    -0.231 NA
ATOM      5  C   UNL d   1      31.057  18.333 -24.297  0.00  0.00     0.057 A 
ATOM      6  N   UNL d   1      29.677  18.383 -24.611  0.00  0.00    -0.160 NA
ATOM      7  C   UNL d   1      30.816  15.961 -23.707  0.00  0.00     0.067 A 
ATOM      8  C   UNL d   1      31.552  16.329 -23.646  0.00  0.00     0.064 A 
ATOM      9  C   UNL d   1      30.413  18.751 -24.550  0.00  0.00     0.124 A 
ENDROOT
BRANCH   5  10
ATOM     10  C   UNL d   1      31.793  18.701 -24.236  0.00  0.00     0.004 A 
ATOM     11  C   UNL d   1      32.231  18.816 -24.907  0.00  0.00     0.000 A 
ATOM     12  C   UNL d   1      32.967  19.184 -24.847  0.00  0.00     0.000 A 
ATOM     13  C   UNL d   1      33.241  19.426 -24.117  0.00  0.00     0.000 A 
ATOM     14  C   UNL d   1      32.792  19.305 -23.455  0.00  0.00     0.000 A 
ATOM     15  C   UNL d   1      32.056  18.936 -23.515  0.00  0.00     0.000 A 
ENDBRANCH   5  10
BRANCH   3  16
ATOM     16  N   UNL d   1      29.413  16.018 -24.028  0.00  0.00    -0.383 NA
BRANCH  16  17
ATOM     17  C   UNL d   1      28.657  15.643 -24.088  0.00  0.00     0.134 C 
ATOM     18  C   UNL d   1      28.344  15.453 -24.853  0.00  0.00     0.035 C 
ATOM     19  C   UNL d   1      28.216  15.460 -23.380  0.00  0.00     0.035 C 
ENDBRANCH  16  17
ENDBRANCH   3  16
BRANCH   8  20
ATOM     20  C   UNL d   1      32.231  15.888 -23.379  0.00  0.00     0.036 C 
ATOM     21  C   UNL d   1      32.747  15.523 -23.948  0.00  0.00     0.006 C 
ATOM     22  C   UNL d   1      32.388  15.815 -22.542  0.00  0.00     0.006 C 
ATOM     23  C   UNL d   1      32.900  15.453 -23.110  0.00  0.00     0.006 C 
ENDBRANCH   8  20
TORSDOF 4
ENDMDL
MODEL 3
REMARK VINA RESULT:       2.1      4.668      6.349
REMARK  4 active torsions:
REMARK  status: ('A' for Active; 'I' for Inactive)
REMARK    1  A    between atoms: N_10  and  C_3 
REMARK    2  A    between atoms: C_12  and  C_5 
REMARK    3  A    between atoms: C_11  and  C_8 
REMARK    4  A    between atoms: C_13  and  N_10 
ROOT
ATOM      1  C   UNL d   1      32.828  22.307 -21.621  0.00  0.00     0.168 A 
ATOM      2  N   UNL d   1      32.898  22.322 -22.456  0.00  0.00    -0.184 N 
ATOM      3  C   UNL d   1      33.049  21.630 -22.841  0.00  0.00     0.217 A 
ATOM      4  N   UNL d   1      32.913  21.601 -21.219  0.00  0.00    -0.231 NA
ATOM      5  C   UNL d   1      32.678  22.989 -21.215  0.00  0.00     0.057 A 
ATOM      6  N   UNL d   1      32.663  23.701 -22.439  0.00  0.00    -0.160 NA
ATOM      7  C   UNL d   1      33.136  20.916 -22.448  0.00  0.00     0.067 A 
ATOM      8  C   UNL d   1      33.067  20.901 -21.626  0.00  0.00     0.064 A 
ATOM      9  C   UNL d   1      32.595  23.687 -21.617  0.00  0.00     0.124 A 
ENDROOT
BRANCH   5  10
ATOM     10  C   UNL d   1      32.609  22.975 -20.393  0.00  0.00     0.004 A 
ATOM     11  C   UNL d   1      31.911  22.732 -20.061  0.00  0.00     0.000 A 
ATOM     12  C   UNL d   1      31.843  22.718 -19.239  0.00  0.00     0.000 A 
ATOM     13  C   UNL d   1      32.474  22.947 -18.774  0.00  0.00     0.000 A 
ATOM     14  C   UNL d   1      33.165  23.187 -19.120  0.00  0.00     0.000 A 
ATOM     15  C   UNL d   1      33.234  23.201 -19.942  0.00  0.00     0.000 A 
ENDBRANCH   5  10
BRANCH   3  16
ATOM     16  N   UNL d   1      33.120  21.645 -23.690  0.00  0.00    -0.383 NA
BRANCH  16  17
ATOM     17  C   UNL d   1      33.193  21.656 -24.533  0.00  0.00     0.134 C 
ATOM     18  C   UNL d   1      33.237  22.399 -24.939  0.00  0.00     0.035 C 
ATOM     19  C   UNL d   1      33.222  20.921 -24.967  0.00  0.00     0.035 C 
ENDBRANCH  16  17
ENDBRANCH   3  16
BRANCH   8  20
ATOM     20  C   UNL d   1      33.154  20.166 -21.202  0.00  0.00     0.036 C 
ATOM     21  C   UNL d   1      33.195  20.173 -20.352  0.00  0.00     0.006 C 
ATOM     22  C   UNL d   1      33.201  19.429 -21.633  0.00  0.00     0.006 C 
ATOM     23  C   UNL d   1      33.241  19.438 -20.788  0.00  0.00     0.006 C 
ENDBRANCH   8  20
TORSDOF 4
ENDMDL
