MODEL 1
REMARK VINA RESULT:      -6.3      0.000      0.000
REMARK  6 active torsions:
REMARK  status: ('A' for Active; 'I' for Inactive)
REMARK    1  A    between atoms: C_6  and  C_1 
REMARK    2  A    between atoms: C_7  and  C_3 
REMARK    3  A    between atoms: O_11  and  C_6 
REMARK    4  A    between atoms: O_12  and  C_7 
REMARK    5  A    between atoms: C_14  and  O_11 
REMARK    6  A    between atoms: C_15  and  O_12 
ROOT
ATOM      1  C   UNL d   1     -47.061  13.461  22.946  0.00  0.00     0.083 A 
ATOM      2  C   UNL d   1     -47.398  14.210  22.772  0.00  0.00     0.030 A 
ATOM      3  C   UNL d   1     -48.219  14.112  22.805  0.00  0.00     0.145 A 
ATOM      4  N   UNL d   1     -48.395  13.339  22.990  0.00  0.00    -0.240 NA
ATOM      5  C   UNL d   1     -47.672  12.935  23.078  0.00  0.00     0.087 A 
ATOM      6  C   UNL d   1     -46.985  14.885  22.607  0.00  0.00     0.002 C 
ATOM      7  C   UNL d   1     -47.569  12.136  23.266  0.00  0.00     0.021 C 
ENDROOT
BRANCH   1   8
ATOM      8  C   UNL d   1     -46.261  13.274  22.981  0.00  0.00     0.302 C 
ATOM      9  O   UNL d   1     -45.892  13.229  23.689  0.00  0.00    -0.259 OA
BRANCH   8  10
ATOM     10  O   UNL d   1     -45.845  13.132  22.264  0.00  0.00    -0.271 OA
BRANCH  10  11
ATOM     11  C   UNL d   1     -45.087  12.878  22.267  0.00  0.00     0.126 C 
ATOM     12  C   UNL d   1     -44.617  12.927  21.589  0.00  0.00     0.029 C 
ENDBRANCH  10  11
ENDBRANCH   8  10
ENDBRANCH   1   8
BRANCH   3  13
ATOM     13  C   UNL d   1     -48.754  14.729  22.665  0.00  0.00     0.318 C 
ATOM     14  O   UNL d   1     -48.807  15.080  21.950  0.00  0.00    -0.257 OA
BRANCH  13  15
ATOM     15  O   UNL d   1     -49.234  14.981  23.269  0.00  0.00    -0.270 OA
BRANCH  15  16
ATOM     16  C   UNL d   1     -49.854  15.499  23.130  0.00  0.00     0.126 C 
ATOM     17  C   UNL d   1     -50.418  15.637  23.698  0.00  0.00     0.029 C 
ENDBRANCH  15  16
ENDBRANCH  13  15
ENDBRANCH   3  13
TORSDOF 6
ENDMDL
MODEL 2
REMARK VINA RESULT:      -6.2      1.584      2.228
REMARK  6 active torsions:
REMARK  status: ('A' for Active; 'I' for Inactive)
REMARK    1  A    between atoms: C_6  and  C_1 
REMARK    2  A    between atoms: C_7  and  C_3 
REMARK    3  A    between atoms: O_11  and  C_6 
REMARK    4  A    between atoms: O_12  and  C_7 
REMARK    5  A    between atoms: C_14  and  O_11 
REMARK    6  A    between atoms: C_15  and  O_12 
ROOT
ATOM      1  C   UNL d   1     -47.048  13.106  23.030  0.00  0.00     0.083 A 
ATOM      2  C   UNL d   1     -47.449  12.395  23.221  0.00  0.00     0.030 A 
ATOM      3  C   UNL d   1     -48.256  12.545  23.118  0.00  0.00     0.145 A 
ATOM      4  N   UNL d   1     -48.362  13.314  22.873  0.00  0.00    -0.240 NA
ATOM      5  C   UNL d   1     -47.608  13.662  22.819  0.00  0.00     0.087 A 
ATOM      6  C   UNL d   1     -47.100  11.706  23.459  0.00  0.00     0.002 C 
ATOM      7  C   UNL d   1     -47.434  14.438  22.592  0.00  0.00     0.021 C 
ENDROOT
BRANCH   1   8
ATOM      8  C   UNL d   1     -46.235  13.237  23.047  0.00  0.00     0.302 C 
ATOM      9  O   UNL d   1     -45.896  13.555  23.697  0.00  0.00    -0.259 OA
BRANCH   8  10
ATOM     10  O   UNL d   1     -45.776  13.030  22.373  0.00  0.00    -0.271 OA
BRANCH  10  11
ATOM     11  C   UNL d   1     -44.998  13.207  22.331  0.00  0.00     0.126 C 
ATOM     12  C   UNL d   1     -44.529  12.926  21.711  0.00  0.00     0.029 C 
ENDBRANCH  10  11
ENDBRANCH   8  10
ENDBRANCH   1   8
BRANCH   3  13
ATOM     13  C   UNL d   1     -48.843  11.976  23.252  0.00  0.00     0.318 C 
ATOM     14  O   UNL d   1     -48.701  11.198  23.148  0.00  0.00    -0.257 OA
BRANCH  13  15
ATOM     15  O   UNL d   1     -49.579  12.217  23.497  0.00  0.00    -0.270 OA
BRANCH  15  16
ATOM     16  C   UNL d   1     -50.222  11.709  23.471  0.00  0.00     0.126 C 
ATOM     17  C   UNL d   1     -50.961  11.958  23.696  0.00  0.00     0.029 C 
ENDBRANCH  15  16
ENDBRANCH  13  15
ENDBRANCH   3  13
TORSDOF 6
ENDMDL
MODEL 3
REMARK VINA RESULT:      -6.1      1.190      3.780
REMARK  6 active torsions:
REMARK  status: ('A' for Active; 'I' for Inactive)
REMARK    1  A    between atoms: C_6  and  C_1 
REMARK    2  A    between atoms: C_7  and  C_3 
REMARK    3  A    between atoms: O_11  and  C_6 
REMARK    4  A    between atoms: O_12  and  C_7 
REMARK    5  A    between atoms: C_14  and  O_11 
REMARK    6  A    between atoms: C_15  and  O_12 
ROOT
ATOM      1  C   UNL d   1     -48.423  13.864  22.857  0.00  0.00     0.083 A 
ATOM      2  C   UNL d   1     -47.789  13.334  22.999  0.00  0.00     0.030 A 
ATOM      3  C   UNL d   1     -47.092  13.760  22.868  0.00  0.00     0.145 A 
ATOM      4  N   UNL d   1     -47.275  14.523  22.653  0.00  0.00    -0.240 NA
ATOM      5  C   UNL d   1     -48.106  14.586  22.646  0.00  0.00     0.087 A 
ATOM      6  C   UNL d   1     -47.862  12.560  23.221  0.00  0.00     0.002 C 
ATOM      7  C   UNL d   1     -48.552  15.257  22.460  0.00  0.00     0.021 C 
ENDROOT
BRANCH   1   8
ATOM      8  C   UNL d   1     -49.228  13.701  22.914  0.00  0.00     0.302 C 
ATOM      9  O   UNL d   1     -49.609  13.813  23.607  0.00  0.00    -0.259 OA
BRANCH   8  10
ATOM     10  O   UNL d   1     -49.635  13.416  22.235  0.00  0.00    -0.271 OA
BRANCH  10  11
ATOM     11  C   UNL d   1     -50.413  13.238  22.262  0.00  0.00     0.126 C 
ATOM     12  C   UNL d   1     -50.819  12.994  21.584  0.00  0.00     0.029 C 
ENDBRANCH  10  11
ENDBRANCH   8  10
ENDBRANCH   1   8
BRANCH   3  13
ATOM     13  C   UNL d   1     -46.338  13.430  22.952  0.00  0.00     0.318 C 
ATOM     14  O   UNL d   1     -46.054  13.212  23.666  0.00  0.00    -0.257 OA
BRANCH  13  15
ATOM     15  O   UNL d   1     -45.876  13.325  22.292  0.00  0.00    -0.270 OA
BRANCH  15  16
ATOM     16  C   UNL d   1     -45.096  13.081  22.354  0.00  0.00     0.126 C 
ATOM     17  C   UNL d   1     -44.634  12.984  21.693  0.00  0.00     0.029 C 
ENDBRANCH  15  16
ENDBRANCH  13  15
ENDBRANCH   3  13
TORSDOF 6
ENDMDL
MODEL 4
REMARK VINA RESULT:      -6.0      1.290      3.616
REMARK  6 active torsions:
REMARK  status: ('A' for Active; 'I' for Inactive)
REMARK    1  A    between atoms: C_6  and  C_1 
REMARK    2  A    between atoms: C_7  and  C_3 
REMARK    3  A    between atoms: O_11  and  C_6 
REMARK    4  A    between atoms: O_12  and  C_7 
REMARK    5  A    between atoms: C_14  and  O_11 
REMARK    6  A    between atoms: C_15  and  O_12 
ROOT
ATOM      1  C   UNL d   1     -48.463  13.039  23.107  0.00  0.00     0.083 A 
ATOM      2  C   UNL d   1     -47.815  13.537  22.918  0.00  0.00     0.030 A 
ATOM      3  C   UNL d   1     -47.130  13.093  23.054  0.00  0.00     0.145 A 
ATOM      4  N   UNL d   1     -47.333  12.350  23.315  0.00  0.00    -0.240 NA
ATOM      5  C   UNL d   1     -48.164  12.317  23.348  0.00  0.00     0.087 A 
ATOM      6  C   UNL d   1     -47.868  14.300  22.657  0.00  0.00     0.002 C 
ATOM      7  C   UNL d   1     -48.628  11.673  23.581  0.00  0.00     0.021 C 
ENDROOT
BRANCH   1   8
ATOM      8  C   UNL d   1     -49.263  13.227  23.062  0.00  0.00     0.302 C 
ATOM      9  O   UNL d   1     -49.636  13.535  23.698  0.00  0.00    -0.259 OA
BRANCH   8  10
ATOM     10  O   UNL d   1     -49.673  13.089  22.341  0.00  0.00    -0.271 OA
BRANCH  10  11
ATOM     11  C   UNL d   1     -50.445  13.278  22.260  0.00  0.00     0.126 C 
ATOM     12  C   UNL d   1     -50.828  13.209  21.531  0.00  0.00     0.029 C 
ENDBRANCH  10  11
ENDBRANCH   8  10
ENDBRANCH   1   8
BRANCH   3  13
ATOM     13  C   UNL d   1     -46.367  13.392  22.932  0.00  0.00     0.318 C 
ATOM     14  O   UNL d   1     -46.048  13.936  23.421  0.00  0.00    -0.257 OA
BRANCH  13  15
ATOM     15  O   UNL d   1     -45.933  13.123  22.299  0.00  0.00    -0.270 OA
BRANCH  15  16
ATOM     16  C   UNL d   1     -45.134  13.291  22.231  0.00  0.00     0.126 C 
ATOM     17  C   UNL d   1     -44.674  12.914  21.678  0.00  0.00     0.029 C 
ENDBRANCH  15  16
ENDBRANCH  13  15
ENDBRANCH   3  13
TORSDOF 6
ENDMDL
MODEL 5
REMARK VINA RESULT:      -6.0      1.421      4.003
REMARK  6 active torsions:
REMARK  status: ('A' for Active; 'I' for Inactive)
REMARK    1  A    between atoms: C_6  and  C_1 
REMARK    2  A    between atoms: C_7  and  C_3 
REMARK    3  A    between atoms: O_11  and  C_6 
REMARK    4  A    between atoms: O_12  and  C_7 
REMARK    5  A    between atoms: C_14  and  O_11 
REMARK    6  A    between atoms: C_15  and  O_12 
ROOT
ATOM      1  C   UNL d   1     -47.555  13.396  22.816  0.00  0.00     0.083 A 
ATOM      2  C   UNL d   1     -47.543  12.575  22.988  0.00  0.00     0.030 A 
ATOM      3  C   UNL d   1     -46.786  12.406  23.274  0.00  0.00     0.145 A 
ATOM      4  N   UNL d   1     -46.339  13.086  23.284  0.00  0.00    -0.240 NA
ATOM      5  C   UNL d   1     -46.820  13.703  22.998  0.00  0.00     0.087 A 
ATOM      6  C   UNL d   1     -48.161  12.064  22.886  0.00  0.00     0.002 C 
ATOM      7  C   UNL d   1     -46.608  14.497  22.907  0.00  0.00     0.021 C 
ENDROOT
BRANCH   1   8
ATOM      8  C   UNL d   1     -48.186  13.832  22.517  0.00  0.00     0.302 C 
ATOM      9  O   UNL d   1     -48.334  13.831  21.732  0.00  0.00    -0.259 OA
BRANCH   8  10
ATOM     10  O   UNL d   1     -48.666  14.271  23.051  0.00  0.00    -0.271 OA
BRANCH  10  11
ATOM     11  C   UNL d   1     -49.255  14.743  22.787  0.00  0.00     0.126 C 
ATOM     12  C   UNL d   1     -49.869  14.979  23.287  0.00  0.00     0.029 C 
ENDBRANCH  10  11
ENDBRANCH   8  10
ENDBRANCH   1   8
BRANCH   3  13
ATOM     13  C   UNL d   1     -46.550  11.647  23.508  0.00  0.00     0.318 C 
ATOM     14  O   UNL d   1     -47.083  11.073  23.662  0.00  0.00    -0.257 OA
BRANCH  13  15
ATOM     15  O   UNL d   1     -45.758  11.484  23.581  0.00  0.00    -0.270 OA
BRANCH  15  16
ATOM     16  C   UNL d   1     -45.492  10.717  23.697  0.00  0.00     0.126 C 
ATOM     17  C   UNL d   1     -44.710  10.526  23.593  0.00  0.00     0.029 C 
ENDBRANCH  15  16
ENDBRANCH  13  15
ENDBRANCH   3  13
TORSDOF 6
ENDMDL
MODEL 6
REMARK VINA RESULT:      -6.0      0.635      3.731
REMARK  6 active torsions:
REMARK  status: ('A' for Active; 'I' for Inactive)
REMARK    1  A    between atoms: C_6  and  C_1 
REMARK    2  A    between atoms: C_7  and  C_3 
REMARK    3  A    between atoms: O_11  and  C_6 
REMARK    4  A    between atoms: O_12  and  C_7 
REMARK    5  A    between atoms: C_14  and  O_11 
REMARK    6  A    between atoms: C_15  and  O_12 
ROOT
ATOM      1  C   UNL d   1     -48.508  13.813  22.714  0.00  0.00     0.083 A 
ATOM      2  C   UNL d   1     -47.709  14.068  22.707  0.00  0.00     0.030 A 
ATOM      3  C   UNL d   1     -47.249  13.403  22.880  0.00  0.00     0.145 A 
ATOM      4  N   UNL d   1     -47.732  12.758  22.991  0.00  0.00    -0.240 NA
ATOM      5  C   UNL d   1     -48.517  13.015  22.887  0.00  0.00     0.087 A 
ATOM      6  C   UNL d   1     -47.456  14.822  22.559  0.00  0.00     0.002 C 
ATOM      7  C   UNL d   1     -49.202  12.556  22.945  0.00  0.00     0.021 C 
ENDROOT
BRANCH   1   8
ATOM      8  C   UNL d   1     -49.177  14.273  22.573  0.00  0.00     0.302 C 
ATOM      9  O   UNL d   1     -49.519  14.268  21.851  0.00  0.00    -0.259 OA
BRANCH   8  10
ATOM     10  O   UNL d   1     -49.487  14.741  23.199  0.00  0.00    -0.271 OA
BRANCH  10  11
ATOM     11  C   UNL d   1     -50.118  15.219  23.087  0.00  0.00     0.126 C 
ATOM     12  C   UNL d   1     -50.408  15.695  23.698  0.00  0.00     0.029 C 
ENDBRANCH  10  11
ENDBRANCH   8  10
ENDBRANCH   1   8
BRANCH   3  13
ATOM     13  C   UNL d   1     -46.422  13.425  22.926  0.00  0.00     0.318 C 
ATOM     14  O   UNL d   1     -46.047  13.702  23.573  0.00  0.00    -0.257 OA
BRANCH  13  15
ATOM     15  O   UNL d   1     -45.984  13.159  22.295  0.00  0.00    -0.270 OA
BRANCH  15  16
ATOM     16  C   UNL d   1     -45.189  12.977  22.378  0.00  0.00     0.126 C 
ATOM     17  C   UNL d   1     -44.715  12.869  21.728  0.00  0.00     0.029 C 
ENDBRANCH  15  16
ENDBRANCH  13  15
ENDBRANCH   3  13
TORSDOF 6
ENDMDL
MODEL 7
REMARK VINA RESULT:      -5.5      2.239      4.323
REMARK  6 active torsions:
REMARK  status: ('A' for Active; 'I' for Inactive)
REMARK    1  A    between atoms: C_6  and  C_1 
REMARK    2  A    between atoms: C_7  and  C_3 
REMARK    3  A    between atoms: O_11  and  C_6 
REMARK    4  A    between atoms: O_12  and  C_7 
REMARK    5  A    between atoms: C_14  and  O_11 
REMARK    6  A    between atoms: C_15  and  O_12 
ROOT
ATOM      1  C   UNL d   1     -50.084  12.547  22.599  0.00  0.00     0.083 A 
ATOM      2  C   UNL d   1     -49.310  12.333  22.356  0.00  0.00     0.030 A 
ATOM      3  C   UNL d   1     -49.047  11.758  22.889  0.00  0.00     0.145 A 
ATOM      4  N   UNL d   1     -49.625  11.614  23.443  0.00  0.00    -0.240 NA
ATOM      5  C   UNL d   1     -50.271  12.107  23.262  0.00  0.00     0.087 A 
ATOM      6  C   UNL d   1     -48.914  12.639  21.721  0.00  0.00     0.002 C 
ATOM      7  C   UNL d   1     -50.989  12.157  23.670  0.00  0.00     0.021 C 
ENDROOT
BRANCH   1   8
ATOM      8  C   UNL d   1     -50.580  13.101  22.245  0.00  0.00     0.302 C 
ATOM      9  O   UNL d   1     -51.058  12.881  21.644  0.00  0.00    -0.259 OA
BRANCH   8  10
ATOM     10  O   UNL d   1     -50.571  13.893  22.528  0.00  0.00    -0.271 OA
BRANCH  10  11
ATOM     11  C   UNL d   1     -50.992  14.467  22.164  0.00  0.00     0.126 C 
ATOM     12  C   UNL d   1     -51.014  15.237  22.466  0.00  0.00     0.029 C 
ENDBRANCH  10  11
ENDBRANCH   8  10
ENDBRANCH   1   8
BRANCH   3  13
ATOM     13  C   UNL d   1     -48.301  11.401  22.837  0.00  0.00     0.318 C 
ATOM     14  O   UNL d   1     -48.168  10.778  22.356  0.00  0.00    -0.257 OA
BRANCH  13  15
ATOM     15  O   UNL d   1     -47.691  11.694  23.288  0.00  0.00    -0.270 OA
BRANCH  15  16
ATOM     16  C   UNL d   1     -47.022  11.245  23.437  0.00  0.00     0.126 C 
ATOM     17  C   UNL d   1     -46.330  11.595  23.676  0.00  0.00     0.029 C 
ENDBRANCH  15  16
ENDBRANCH  13  15
ENDBRANCH   3  13
TORSDOF 6
ENDMDL
MODEL 8
REMARK VINA RESULT:      -4.8      8.017      9.042
REMARK  6 active torsions:
REMARK  status: ('A' for Active; 'I' for Inactive)
REMARK    1  A    between atoms: C_6  and  C_1 
REMARK    2  A    between atoms: C_7  and  C_3 
REMARK    3  A    between atoms: O_11  and  C_6 
REMARK    4  A    between atoms: O_12  and  C_7 
REMARK    5  A    between atoms: C_14  and  O_11 
REMARK    6  A    between atoms: C_15  and  O_12 
ROOT
ATOM      1  C   UNL d   1     -39.922  14.302  18.858  0.00  0.00     0.083 A 
ATOM      2  C   UNL d   1     -40.003  14.550  19.656  0.00  0.00     0.030 A 
ATOM      3  C   UNL d   1     -39.306  14.331  20.042  0.00  0.00     0.145 A 
ATOM      4  N   UNL d   1     -38.806  13.962  19.517  0.00  0.00    -0.240 NA
ATOM      5  C   UNL d   1     -39.192  13.945  18.779  0.00  0.00     0.087 A 
ATOM      6  C   UNL d   1     -40.646  14.928  19.968  0.00  0.00     0.002 C 
ATOM      7  C   UNL d   1     -38.901  13.625  18.074  0.00  0.00     0.021 C 
ENDROOT
BRANCH   1   8
ATOM      8  C   UNL d   1     -40.471  14.394  18.252  0.00  0.00     0.302 C 
ATOM      9  O   UNL d   1     -40.999  13.814  18.100  0.00  0.00    -0.259 OA
BRANCH   8  10
ATOM     10  O   UNL d   1     -40.462  15.104  17.800  0.00  0.00    -0.271 OA
BRANCH  10  11
ATOM     11  C   UNL d   1     -40.994  15.231  17.218  0.00  0.00     0.126 C 
ATOM     12  C   UNL d   1     -40.972  15.921  16.763  0.00  0.00     0.029 C 
ENDBRANCH  10  11
ENDBRANCH   8  10
ENDBRANCH   1   8
BRANCH   3  13
ATOM     13  C   UNL d   1     -39.168  14.480  20.845  0.00  0.00     0.318 C 
ATOM     14  O   UNL d   1     -39.077  15.223  21.123  0.00  0.00    -0.257 OA
BRANCH  13  15
ATOM     15  O   UNL d   1     -39.126  13.854  21.362  0.00  0.00    -0.270 OA
BRANCH  15  16
ATOM     16  C   UNL d   1     -38.844  13.954  22.126  0.00  0.00     0.126 C 
ATOM     17  C   UNL d   1     -38.798  13.326  22.638  0.00  0.00     0.029 C 
ENDBRANCH  15  16
ENDBRANCH  13  15
ENDBRANCH   3  13
TORSDOF 6
ENDMDL
MODEL 9
REMARK VINA RESULT:      -4.5      7.772      8.684
REMARK  6 active torsions:
REMARK  status: ('A' for Active; 'I' for Inactive)
REMARK    1  A    between atoms: C_6  and  C_1 
REMARK    2  A    between atoms: C_7  and  C_3 
REMARK    3  A    between atoms: O_11  and  C_6 
REMARK    4  A    between atoms: O_12  and  C_7 
REMARK    5  A    between atoms: C_14  and  O_11 
REMARK    6  A    between atoms: C_15  and  O_12 
ROOT
ATOM      1  C   UNL d   1     -39.592  14.852  20.195  0.00  0.00     0.083 A 
ATOM      2  C   UNL d   1     -40.252  14.650  19.716  0.00  0.00     0.030 A 
ATOM      3  C   UNL d   1     -40.035  14.817  18.936  0.00  0.00     0.145 A 
ATOM      4  N   UNL d   1     -39.277  15.111  18.919  0.00  0.00    -0.240 NA
ATOM      5  C   UNL d   1     -39.002  15.132  19.705  0.00  0.00     0.087 A 
ATOM      6  C   UNL d   1     -40.954  14.352  19.984  0.00  0.00     0.002 C 
ATOM      7  C   UNL d   1     -38.260  15.388  19.965  0.00  0.00     0.021 C 
ENDROOT
BRANCH   1   8
ATOM      8  C   UNL d   1     -39.535  14.786  21.013  0.00  0.00     0.302 C 
ATOM      9  O   UNL d   1     -39.772  15.390  21.480  0.00  0.00    -0.259 OA
BRANCH   8  10
ATOM     10  O   UNL d   1     -39.225  14.077  21.343  0.00  0.00    -0.271 OA
BRANCH  10  11
ATOM     11  C   UNL d   1     -39.172  13.976  22.134  0.00  0.00     0.126 C 
ATOM     12  C   UNL d   1     -38.806  13.307  22.455  0.00  0.00     0.029 C 
ENDBRANCH  10  11
ENDBRANCH   8  10
ENDBRANCH   1   8
BRANCH   3  13
ATOM     13  C   UNL d   1     -40.540  14.693  18.291  0.00  0.00     0.318 C 
ATOM     14  O   UNL d   1     -40.789  13.962  18.090  0.00  0.00    -0.257 OA
BRANCH  13  15
ATOM     15  O   UNL d   1     -40.786  15.331  17.852  0.00  0.00    -0.270 OA
BRANCH  15  16
ATOM     16  C   UNL d   1     -41.067  15.237  17.088  0.00  0.00     0.126 C 
ATOM     17  C   UNL d   1     -41.376  15.866  16.676  0.00  0.00     0.029 C 
ENDBRANCH  15  16
ENDBRANCH  13  15
ENDBRANCH   3  13
TORSDOF 6
ENDMDL
