MODEL 1
REMARK VINA RESULT:     -11.2      0.000      0.000
REMARK  3 active torsions:
REMARK  status: ('A' for Active; 'I' for Inactive)
REMARK    1  A    between atoms: C_13  and  N_3 
REMARK    2  A    between atoms: C_10  and  C_6 
REMARK    3  A    between atoms: C_11  and  C_8 
ROOT
ATOM      1  C   UNL d   1      52.227  33.451  53.186  0.00  0.00     0.167 A 
ATOM      2  C   UNL d   1      52.870  33.616  53.684  0.00  0.00     0.056 A 
ATOM      3  N   UNL d   1      51.796  34.152  53.073  0.00  0.00    -0.212 N 
ATOM      4  N   UNL d   1      52.175  34.760  53.506  0.00  0.00    -0.164 NA
ATOM      5  N   UNL d   1      52.118  32.686  52.900  0.00  0.00    -0.206 NA
ATOM      6  C   UNL d   1      53.395  33.018  53.891  0.00  0.00     0.015 A 
ATOM      7  C   UNL d   1      52.839  34.428  53.884  0.00  0.00     0.104 A 
ATOM      8  C   UNL d   1      53.288  32.256  53.608  0.00  0.00     0.059 A 
ATOM      9  C   UNL d   1      52.650  32.092  53.113  0.00  0.00     0.187 A 
ATOM     10  N   UNL d   1      52.540  31.330  52.828  0.00  0.00    -0.127 N 
ATOM     11  C   UNL d   1      53.369  34.826  54.366  0.00  0.00     0.023 C 
ENDROOT
BRANCH   3  12
ATOM     12  C   UNL d   1      51.113  34.234  52.614  0.00  0.00     0.085 A 
ATOM     13  C   UNL d   1      51.172  34.286  51.795  0.00  0.00     0.019 A 
ATOM     14  C   UNL d   1      50.494  34.367  51.343  0.00  0.00     0.002 A 
ATOM     15  C   UNL d   1      49.752  34.397  51.700  0.00  0.00     0.000 A 
ATOM     16  C   UNL d   1      49.690  34.345  52.527  0.00  0.00     0.002 A 
ATOM     17  C   UNL d   1      49.069  34.479  51.241  0.00  0.00     0.000 C 
ATOM     18  C   UNL d   1      50.373  34.263  52.980  0.00  0.00     0.019 A 
ENDBRANCH   3  12
BRANCH   6  19
ATOM     19  C   UNL d   1      54.032  33.190  54.387  0.00  0.00     0.030 A 
ATOM     20  S   UNL d   1      54.038  33.146  55.210  0.00  0.00    -0.086 SA
ATOM     21  C   UNL d   1      54.788  33.366  55.476  0.00  0.00     0.035 A 
ATOM     22  C   UNL d   1      55.245  33.547  54.813  0.00  0.00     0.007 A 
ATOM     23  C   UNL d   1      54.789  33.442  54.142  0.00  0.00     0.007 A 
ENDBRANCH   6  19
BRANCH   8  24
ATOM     24  C   UNL d   1      53.815  31.657  53.816  0.00  0.00     0.125 C 
ATOM     25  N   UNL d   1      53.641  30.876  53.625  0.00  0.00    -0.146 N 
ENDBRANCH   8  24
TORSDOF 3
ENDMDL
MODEL 2
REMARK VINA RESULT:      -8.6      1.341      3.652
REMARK  3 active torsions:
REMARK  status: ('A' for Active; 'I' for Inactive)
REMARK    1  A    between atoms: C_13  and  N_3 
REMARK    2  A    between atoms: C_10  and  C_6 
REMARK    3  A    between atoms: C_11  and  C_8 
ROOT
ATOM      1  C   UNL d   1      52.849  32.488  53.791  0.00  0.00     0.167 A 
ATOM      2  C   UNL d   1      53.108  33.253  53.984  0.00  0.00     0.056 A 
ATOM      3  N   UNL d   1      53.424  31.945  54.045  0.00  0.00    -0.212 N 
ATOM      4  N   UNL d   1      54.047  32.377  54.400  0.00  0.00    -0.164 NA
ATOM      5  N   UNL d   1      52.126  32.386  53.409  0.00  0.00    -0.206 NA
ATOM      6  C   UNL d   1      52.643  33.905  53.795  0.00  0.00     0.015 A 
ATOM      7  C   UNL d   1      53.851  33.186  54.362  0.00  0.00     0.104 A 
ATOM      8  C   UNL d   1      51.923  33.805  53.416  0.00  0.00     0.059 A 
ATOM      9  C   UNL d   1      51.666  33.045  53.224  0.00  0.00     0.187 A 
ATOM     10  N   UNL d   1      50.945  32.942  52.844  0.00  0.00    -0.127 N 
ATOM     11  C   UNL d   1      54.305  33.806  54.645  0.00  0.00     0.023 C 
ENDROOT
BRANCH   3  12
ATOM     12  C   UNL d   1      53.387  31.124  53.961  0.00  0.00     0.085 A 
ATOM     13  C   UNL d   1      53.567  30.774  53.238  0.00  0.00     0.019 A 
ATOM     14  C   UNL d   1      53.529  29.961  53.158  0.00  0.00     0.002 A 
ATOM     15  C   UNL d   1      53.312  29.486  53.796  0.00  0.00     0.000 A 
ATOM     16  C   UNL d   1      53.130  29.836  54.528  0.00  0.00     0.002 A 
ATOM     17  C   UNL d   1      53.275  28.664  53.713  0.00  0.00     0.000 C 
ATOM     18  C   UNL d   1      53.168  30.654  54.606  0.00  0.00     0.019 A 
ENDBRANCH   3  12
BRANCH   6  19
ATOM     19  C   UNL d   1      52.906  34.662  53.990  0.00  0.00     0.030 A 
ATOM     20  S   UNL d   1      52.767  35.062  54.697  0.00  0.00    -0.086 SA
ATOM     21  C   UNL d   1      53.133  35.802  54.653  0.00  0.00     0.035 A 
ATOM     22  C   UNL d   1      53.499  35.856  53.915  0.00  0.00     0.007 A 
ATOM     23  C   UNL d   1      53.365  35.161  53.504  0.00  0.00     0.007 A 
ENDBRANCH   6  19
BRANCH   8  24
ATOM     24  C   UNL d   1      51.458  34.459  53.227  0.00  0.00     0.125 C 
ATOM     25  N   UNL d   1      50.732  34.350  52.855  0.00  0.00    -0.146 N 
ENDBRANCH   8  24
TORSDOF 3
ENDMDL
MODEL 3
REMARK VINA RESULT:      -8.3      1.780      4.150
REMARK  3 active torsions:
REMARK  status: ('A' for Active; 'I' for Inactive)
REMARK    1  A    between atoms: C_13  and  N_3 
REMARK    2  A    between atoms: C_10  and  C_6 
REMARK    3  A    between atoms: C_11  and  C_8 
ROOT
ATOM      1  C   UNL d   1      53.294  31.850  54.047  0.00  0.00     0.167 A 
ATOM      2  C   UNL d   1      52.944  32.492  53.656  0.00  0.00     0.056 A 
ATOM      3  N   UNL d   1      53.004  31.148  53.712  0.00  0.00    -0.212 N 
ATOM      4  N   UNL d   1      52.466  31.357  53.104  0.00  0.00    -0.164 NA
ATOM      5  N   UNL d   1      53.832  31.987  54.657  0.00  0.00    -0.206 NA
ATOM      6  C   UNL d   1      53.132  33.262  53.877  0.00  0.00     0.015 A 
ATOM      7  C   UNL d   1      52.429  32.188  53.071  0.00  0.00     0.104 A 
ATOM      8  C   UNL d   1      53.666  33.401  54.483  0.00  0.00     0.059 A 
ATOM      9  C   UNL d   1      54.015  32.762  54.872  0.00  0.00     0.187 A 
ATOM     10  N   UNL d   1      54.551  32.898  55.480  0.00  0.00    -0.127 N 
ATOM     11  C   UNL d   1      51.970  32.630  52.555  0.00  0.00     0.023 C 
ENDROOT
BRANCH   3  12
ATOM     12  C   UNL d   1      53.210  30.380  53.937  0.00  0.00     0.085 A 
ATOM     13  C   UNL d   1      53.800  29.975  53.531  0.00  0.00     0.019 A 
ATOM     14  C   UNL d   1      54.001  29.215  53.757  0.00  0.00     0.002 A 
ATOM     15  C   UNL d   1      53.618  28.849  54.388  0.00  0.00     0.000 A 
ATOM     16  C   UNL d   1      53.022  29.255  54.800  0.00  0.00     0.002 A 
ATOM     17  C   UNL d   1      53.824  28.081  54.614  0.00  0.00     0.000 C 
ATOM     18  C   UNL d   1      52.821  30.020  54.572  0.00  0.00     0.019 A 
ENDBRANCH   3  12
BRANCH   6  19
ATOM     19  C   UNL d   1      52.779  33.895  53.483  0.00  0.00     0.030 A 
ATOM     20  S   UNL d   1      52.074  34.269  53.689  0.00  0.00    -0.086 SA
ATOM     21  C   UNL d   1      51.931  34.873  53.144  0.00  0.00     0.035 A 
ATOM     22  C   UNL d   1      52.552  34.870  52.600  0.00  0.00     0.007 A 
ATOM     23  C   UNL d   1      53.076  34.274  52.801  0.00  0.00     0.007 A 
ENDBRANCH   6  19
BRANCH   8  24
ATOM     24  C   UNL d   1      53.855  34.172  54.704  0.00  0.00     0.125 C 
ATOM     25  N   UNL d   1      54.509  34.311  55.183  0.00  0.00    -0.146 N 
ENDBRANCH   8  24
TORSDOF 3
ENDMDL
