MODEL 1
REMARK VINA RESULT:      30.0      0.000      0.000
REMARK  6 active torsions:
REMARK  status: ('A' for Active; 'I' for Inactive)
REMARK    1  A    between atoms: C_2  and  S_1 
REMARK    2  A    between atoms: N_3  and  S_1 
REMARK    3  A    between atoms: C_10  and  N_3 
REMARK    4  A    between atoms: C_16  and  C_11 
REMARK    5  A    between atoms: C_17  and  C_16 
REMARK    6  A    between atoms: C_18  and  C_17 
ROOT
ATOM      1  C   UNL d   1     -50.795  25.082  33.523  0.00  0.00     0.094 A 
ATOM      2  C   UNL d   1     -50.333  26.609  33.877  0.00  0.00     0.000 A 
ATOM      3  C   UNL d   1     -51.361  25.645  33.739  0.00  0.00     0.020 A 
ATOM      4  C   UNL d   1     -50.003  25.292  33.487  0.00  0.00     0.020 A 
ATOM      5  C   UNL d   1     -49.777  26.040  33.660  0.00  0.00     0.002 A 
ATOM      6  C   UNL d   1     -51.134  26.393  33.913  0.00  0.00     0.002 A 
ENDROOT
BRANCH   1   7
ATOM      7  N   UNL d   1     -51.040  24.275  33.336  0.00  0.00    -0.158 NA
BRANCH   7   8
ATOM      8  S   UNL d   1     -51.831  24.063  33.416  0.00  0.00     0.291 S 
ATOM      9  O   UNL d   1     -52.014  24.886  33.306  0.00  0.00    -0.198 OA
ATOM     10  O   UNL d   1     -51.587  23.256  33.519  0.00  0.00    -0.198 OA
BRANCH   8  11
ATOM     11  C   UNL d   1     -52.621  23.862  33.494  0.00  0.00     0.135 A 
ATOM     12  S   UNL d   1     -53.054  23.192  33.314  0.00  0.00    -0.073 SA
ATOM     13  C   UNL d   1     -53.845  23.318  33.522  0.00  0.00     0.036 A 
ATOM     14  C   UNL d   1     -53.904  24.044  33.823  0.00  0.00     0.008 A 
ATOM     15  C   UNL d   1     -53.157  24.400  33.816  0.00  0.00     0.020 A 
ENDBRANCH   8  11
ENDBRANCH   7   8
ENDBRANCH   1   7
BRANCH   2  16
ATOM     16  C   UNL d   1     -50.088  27.416  34.064  0.00  0.00     0.000 C 
BRANCH  16  17
ATOM     17  C   UNL d   1     -49.352  27.553  34.413  0.00  0.00     0.000 C 
BRANCH  17  18
ATOM     18  C   UNL d   1     -49.102  28.327  34.556  0.00  0.00     0.000 C 
ATOM     19  C   UNL d   1     -48.519  28.476  35.112  0.00  0.00     0.000 C 
ENDBRANCH  17  18
ENDBRANCH  16  17
ENDBRANCH   2  16
TORSDOF 6
ENDMDL
