MODEL 1
REMARK VINA RESULT:      -8.6      0.000      0.000
REMARK  6 active torsions:
REMARK  status: ('A' for Active; 'I' for Inactive)
REMARK       I    between atoms: N_2  and  C_1 
REMARK    1  A    between atoms: C_3  and  C_1 
REMARK    2  A    between atoms: C_5  and  N_2 
REMARK    3  A    between atoms: C_6  and  C_3 
REMARK    4  A    between atoms: C_8  and  C_5 
REMARK    5  A    between atoms: O_7  and  C_6 
REMARK    6  A    between atoms: C_9  and  O_7 
ROOT
ATOM      1  C   UNL d   1      53.682  33.620  54.342  0.00  0.00     0.330 C 
ATOM      2  N   UNL d   1      53.266  34.187  53.923  0.00  0.00    -0.362 NA
ATOM      3  O   UNL d   1      53.716  33.658  55.157  0.00  0.00    -0.251 OA
ENDROOT
BRANCH   1   4
ATOM      4  C   UNL d   1      54.061  33.020  53.943  0.00  0.00     0.103 C 
BRANCH   4   5
ATOM      5  C   UNL d   1      53.838  32.233  54.088  0.00  0.00     0.129 C 
BRANCH   5   6
ATOM      6  O   UNL d   1      54.033  31.640  53.535  0.00  0.00    -0.305 OA
BRANCH   6   7
ATOM      7  C   UNL d   1      53.601  30.935  53.511  0.00  0.00     0.100 A 
ATOM      8  C   UNL d   1      53.776  30.335  54.023  0.00  0.00     0.025 A 
ATOM      9  C   UNL d   1      53.344  29.619  54.006  0.00  0.00     0.002 A 
ATOM     10  C   UNL d   1      52.733  29.541  53.451  0.00  0.00     0.000 A 
ATOM     11  C   UNL d   1      52.557  30.141  52.939  0.00  0.00     0.002 A 
ATOM     12  C   UNL d   1      52.986  30.843  52.961  0.00  0.00     0.025 A 
ENDBRANCH   6   7
ENDBRANCH   5   6
ENDBRANCH   4   5
ENDBRANCH   1   4
BRANCH   2  13
ATOM     13  C   UNL d   1      52.853  34.748  53.487  0.00  0.00     0.165 C 
BRANCH  13  14
ATOM     14  C   UNL d   1      52.143  34.563  53.119  0.00  0.00     0.032 A 
ATOM     15  C   UNL d   1      52.130  34.403  52.309  0.00  0.00     0.003 A 
ATOM     16  C   UNL d   1      51.409  34.216  51.935  0.00  0.00     0.000 A 
ATOM     17  C   UNL d   1      50.709  34.190  52.375  0.00  0.00     0.000 A 
ATOM     18  C   UNL d   1      50.729  34.350  53.179  0.00  0.00     0.000 A 
ATOM     19  C   UNL d   1      51.450  34.537  53.553  0.00  0.00     0.003 A 
ENDBRANCH  13  14
ENDBRANCH   2  13
TORSDOF 6
ENDMDL
MODEL 2
REMARK VINA RESULT:      -8.0      0.834      3.951
REMARK  6 active torsions:
REMARK  status: ('A' for Active; 'I' for Inactive)
REMARK       I    between atoms: N_2  and  C_1 
REMARK    1  A    between atoms: C_3  and  C_1 
REMARK    2  A    between atoms: C_5  and  N_2 
REMARK    3  A    between atoms: C_6  and  C_3 
REMARK    4  A    between atoms: C_8  and  C_5 
REMARK    5  A    between atoms: O_7  and  C_6 
REMARK    6  A    between atoms: C_9  and  O_7 
ROOT
ATOM      1  C   UNL d   1      53.777  32.870  54.337  0.00  0.00     0.330 C 
ATOM      2  N   UNL d   1      53.971  32.191  53.924  0.00  0.00    -0.362 NA
ATOM      3  O   UNL d   1      53.775  32.866  55.153  0.00  0.00    -0.251 OA
ENDROOT
BRANCH   1   4
ATOM      4  C   UNL d   1      53.587  33.549  53.930  0.00  0.00     0.103 C 
BRANCH   4   5
ATOM      5  C   UNL d   1      52.795  33.798  53.903  0.00  0.00     0.129 C 
BRANCH   5   6
ATOM      6  O   UNL d   1      52.566  34.393  53.365  0.00  0.00    -0.305 OA
BRANCH   6   7
ATOM      7  C   UNL d   1      51.819  34.368  53.011  0.00  0.00     0.100 A 
ATOM      8  C   UNL d   1      51.156  34.498  53.454  0.00  0.00     0.025 A 
ATOM      9  C   UNL d   1      50.396  34.474  53.103  0.00  0.00     0.002 A 
ATOM     10  C   UNL d   1      50.343  34.315  52.291  0.00  0.00     0.000 A 
ATOM     11  C   UNL d   1      51.006  34.186  51.847  0.00  0.00     0.002 A 
ATOM     12  C   UNL d   1      51.749  34.210  52.198  0.00  0.00     0.025 A 
ENDBRANCH   6   7
ENDBRANCH   5   6
ENDBRANCH   4   5
ENDBRANCH   1   4
BRANCH   2  13
ATOM     13  C   UNL d   1      54.163  31.516  53.495  0.00  0.00     0.165 C 
BRANCH  13  14
ATOM     14  C   UNL d   1      53.665  30.865  53.479  0.00  0.00     0.032 A 
ATOM     15  C   UNL d   1      53.067  30.819  52.912  0.00  0.00     0.003 A 
ATOM     16  C   UNL d   1      52.561  30.158  52.896  0.00  0.00     0.000 A 
ATOM     17  C   UNL d   1      52.658  29.549  53.447  0.00  0.00     0.000 A 
ATOM     18  C   UNL d   1      53.254  29.600  54.008  0.00  0.00     0.000 A 
ATOM     19  C   UNL d   1      53.760  30.262  54.024  0.00  0.00     0.003 A 
ENDBRANCH  13  14
ENDBRANCH   2  13
TORSDOF 6
ENDMDL
MODEL 3
REMARK VINA RESULT:      -7.7      1.308      2.542
REMARK  6 active torsions:
REMARK  status: ('A' for Active; 'I' for Inactive)
REMARK       I    between atoms: N_2  and  C_1 
REMARK    1  A    between atoms: C_3  and  C_1 
REMARK    2  A    between atoms: C_5  and  N_2 
REMARK    3  A    between atoms: C_6  and  C_3 
REMARK    4  A    between atoms: C_8  and  C_5 
REMARK    5  A    between atoms: O_7  and  C_6 
REMARK    6  A    between atoms: C_9  and  O_7 
ROOT
ATOM      1  C   UNL d   1      52.039  33.389  53.306  0.00  0.00     0.330 C 
ATOM      2  N   UNL d   1      52.569  33.899  53.664  0.00  0.00    -0.362 NA
ATOM      3  O   UNL d   1      51.241  33.450  53.467  0.00  0.00    -0.251 OA
ENDROOT
BRANCH   1   4
ATOM      4  C   UNL d   1      52.311  32.822  52.790  0.00  0.00     0.103 C 
BRANCH   4   5
ATOM      5  C   UNL d   1      52.187  32.019  52.967  0.00  0.00     0.129 C 
BRANCH   5   6
ATOM      6  O   UNL d   1      52.658  31.438  52.598  0.00  0.00    -0.305 OA
BRANCH   6   7
ATOM      7  C   UNL d   1      52.863  30.748  53.007  0.00  0.00     0.100 A 
ATOM      8  C   UNL d   1      52.308  30.176  53.137  0.00  0.00     0.025 A 
ATOM      9  C   UNL d   1      52.507  29.475  53.550  0.00  0.00     0.002 A 
ATOM     10  C   UNL d   1      53.285  29.384  53.820  0.00  0.00     0.000 A 
ATOM     11  C   UNL d   1      53.840  29.957  53.690  0.00  0.00     0.002 A 
ATOM     12  C   UNL d   1      53.639  30.644  53.283  0.00  0.00     0.025 A 
ENDBRANCH   6   7
ENDBRANCH   5   6
ENDBRANCH   4   5
ENDBRANCH   1   4
BRANCH   2  13
ATOM     13  C   UNL d   1      53.115  34.404  54.016  0.00  0.00     0.165 C 
BRANCH  13  14
ATOM     14  C   UNL d   1      53.745  34.112  54.454  0.00  0.00     0.032 A 
ATOM     15  C   UNL d   1      54.497  34.076  54.117  0.00  0.00     0.003 A 
ATOM     16  C   UNL d   1      55.136  33.780  54.561  0.00  0.00     0.000 A 
ATOM     17  C   UNL d   1      55.017  33.523  55.338  0.00  0.00     0.000 A 
ATOM     18  C   UNL d   1      54.266  33.562  55.667  0.00  0.00     0.000 A 
ATOM     19  C   UNL d   1      53.627  33.858  55.223  0.00  0.00     0.003 A 
ENDBRANCH  13  14
ENDBRANCH   2  13
TORSDOF 6
ENDMDL
MODEL 4
REMARK VINA RESULT:      -7.7      2.123      4.932
REMARK  6 active torsions:
REMARK  status: ('A' for Active; 'I' for Inactive)
REMARK       I    between atoms: N_2  and  C_1 
REMARK    1  A    between atoms: C_3  and  C_1 
REMARK    2  A    between atoms: C_5  and  N_2 
REMARK    3  A    between atoms: C_6  and  C_3 
REMARK    4  A    between atoms: C_8  and  C_5 
REMARK    5  A    between atoms: O_7  and  C_6 
REMARK    6  A    between atoms: C_9  and  O_7 
ROOT
ATOM      1  C   UNL d   1      51.719  33.986  52.817  0.00  0.00     0.330 C 
ATOM      2  N   UNL d   1      52.201  33.384  53.088  0.00  0.00    -0.362 NA
ATOM      3  O   UNL d   1      51.995  34.512  52.258  0.00  0.00    -0.251 OA
ENDROOT
BRANCH   1   4
ATOM      4  C   UNL d   1      50.962  34.058  53.109  0.00  0.00     0.103 C 
BRANCH   4   5
ATOM      5  C   UNL d   1      50.385  34.442  52.650  0.00  0.00     0.129 C 
BRANCH   5   6
ATOM      6  O   UNL d   1      49.612  34.532  52.949  0.00  0.00    -0.305 OA
BRANCH   6   7
ATOM      7  C   UNL d   1      49.025  34.886  52.486  0.00  0.00     0.100 A 
ATOM      8  C   UNL d   1      48.880  34.613  51.740  0.00  0.00     0.025 A 
ATOM      9  C   UNL d   1      48.288  34.965  51.264  0.00  0.00     0.002 A 
ATOM     10  C   UNL d   1      47.856  35.600  51.578  0.00  0.00     0.000 A 
ATOM     11  C   UNL d   1      48.002  35.873  52.324  0.00  0.00     0.002 A 
ATOM     12  C   UNL d   1      48.585  35.523  52.787  0.00  0.00     0.025 A 
ENDBRANCH   6   7
ENDBRANCH   5   6
ENDBRANCH   4   5
ENDBRANCH   1   4
BRANCH   2  13
ATOM     13  C   UNL d   1      52.674  32.772  53.370  0.00  0.00     0.165 C 
BRANCH  13  14
ATOM     14  C   UNL d   1      53.375  32.925  53.768  0.00  0.00     0.032 A 
ATOM     15  C   UNL d   1      54.096  32.851  53.373  0.00  0.00     0.003 A 
ATOM     16  C   UNL d   1      54.807  33.005  53.778  0.00  0.00     0.000 A 
ATOM     17  C   UNL d   1      54.791  33.233  54.573  0.00  0.00     0.000 A 
ATOM     18  C   UNL d   1      54.071  33.305  54.959  0.00  0.00     0.000 A 
ATOM     19  C   UNL d   1      53.359  33.150  54.555  0.00  0.00     0.003 A 
ENDBRANCH  13  14
ENDBRANCH   2  13
TORSDOF 6
ENDMDL
MODEL 5
REMARK VINA RESULT:      -7.0      1.992      3.312
REMARK  6 active torsions:
REMARK  status: ('A' for Active; 'I' for Inactive)
REMARK       I    between atoms: N_2  and  C_1 
REMARK    1  A    between atoms: C_3  and  C_1 
REMARK    2  A    between atoms: C_5  and  N_2 
REMARK    3  A    between atoms: C_6  and  C_3 
REMARK    4  A    between atoms: C_8  and  C_5 
REMARK    5  A    between atoms: O_7  and  C_6 
REMARK    6  A    between atoms: C_9  and  O_7 
ROOT
ATOM      1  C   UNL d   1      51.297  34.428  52.626  0.00  0.00     0.330 C 
ATOM      2  N   UNL d   1      50.492  34.286  52.661  0.00  0.00    -0.362 NA
ATOM      3  O   UNL d   1      51.689  34.387  51.911  0.00  0.00    -0.251 OA
ENDROOT
BRANCH   1   4
ATOM      4  C   UNL d   1      51.704  34.610  53.307  0.00  0.00     0.103 C 
BRANCH   4   5
ATOM      5  C   UNL d   1      52.366  34.154  53.519  0.00  0.00     0.129 C 
BRANCH   5   6
ATOM      6  O   UNL d   1      52.617  34.135  54.314  0.00  0.00    -0.305 OA
BRANCH   6   7
ATOM      7  C   UNL d   1      53.337  33.779  54.514  0.00  0.00     0.100 A 
ATOM      8  C   UNL d   1      53.941  34.227  54.808  0.00  0.00     0.025 A 
ATOM      9  C   UNL d   1      54.673  33.876  55.013  0.00  0.00     0.002 A 
ATOM     10  C   UNL d   1      54.760  33.058  54.907  0.00  0.00     0.000 A 
ATOM     11  C   UNL d   1      54.156  32.610  54.612  0.00  0.00     0.002 A 
ATOM     12  C   UNL d   1      53.439  32.961  54.412  0.00  0.00     0.025 A 
ENDBRANCH   6   7
ENDBRANCH   5   6
ENDBRANCH   4   5
ENDBRANCH   1   4
BRANCH   2  13
ATOM     13  C   UNL d   1      49.684  34.146  52.713  0.00  0.00     0.165 C 
BRANCH  13  14
ATOM     14  C   UNL d   1      49.139  34.664  52.382  0.00  0.00     0.032 A 
ATOM     15  C   UNL d   1      48.910  34.571  51.595  0.00  0.00     0.003 A 
ATOM     16  C   UNL d   1      48.358  35.096  51.260  0.00  0.00     0.000 A 
ATOM     17  C   UNL d   1      48.041  35.709  51.715  0.00  0.00     0.000 A 
ATOM     18  C   UNL d   1      48.273  35.796  52.497  0.00  0.00     0.000 A 
ATOM     19  C   UNL d   1      48.825  35.271  52.832  0.00  0.00     0.003 A 
ENDBRANCH  13  14
ENDBRANCH   2  13
TORSDOF 6
ENDMDL
MODEL 6
REMARK VINA RESULT:      -6.9      1.308      2.884
REMARK  6 active torsions:
REMARK  status: ('A' for Active; 'I' for Inactive)
REMARK       I    between atoms: N_2  and  C_1 
REMARK    1  A    between atoms: C_3  and  C_1 
REMARK    2  A    between atoms: C_5  and  N_2 
REMARK    3  A    between atoms: C_6  and  C_3 
REMARK    4  A    between atoms: C_8  and  C_5 
REMARK    5  A    between atoms: O_7  and  C_6 
REMARK    6  A    between atoms: C_9  and  O_7 
ROOT
ATOM      1  C   UNL d   1      52.608  31.408  52.932  0.00  0.00     0.330 C 
ATOM      2  N   UNL d   1      51.931  31.868  52.903  0.00  0.00    -0.362 NA
ATOM      3  O   UNL d   1      52.865  31.017  52.264  0.00  0.00    -0.251 OA
ENDROOT
BRANCH   1   4
ATOM      4  C   UNL d   1      53.022  31.344  53.630  0.00  0.00     0.103 C 
BRANCH   4   5
ATOM      5  C   UNL d   1      53.745  31.747  53.711  0.00  0.00     0.129 C 
BRANCH   5   6
ATOM      6  O   UNL d   1      54.071  31.863  54.470  0.00  0.00    -0.305 OA
BRANCH   6   7
ATOM      7  C   UNL d   1      54.420  32.586  54.667  0.00  0.00     0.100 A 
ATOM      8  C   UNL d   1      54.915  32.952  54.143  0.00  0.00     0.025 A 
ATOM      9  C   UNL d   1      55.273  33.684  54.334  0.00  0.00     0.002 A 
ATOM     10  C   UNL d   1      55.108  34.022  55.073  0.00  0.00     0.000 A 
ATOM     11  C   UNL d   1      54.613  33.656  55.597  0.00  0.00     0.002 A 
ATOM     12  C   UNL d   1      54.264  32.937  55.403  0.00  0.00     0.025 A 
ENDBRANCH   6   7
ENDBRANCH   5   6
ENDBRANCH   4   5
ENDBRANCH   1   4
BRANCH   2  13
ATOM     13  C   UNL d   1      51.254  32.333  52.891  0.00  0.00     0.165 C 
BRANCH  13  14
ATOM     14  C   UNL d   1      51.299  33.153  52.901  0.00  0.00     0.032 A 
ATOM     15  C   UNL d   1      51.072  33.568  53.577  0.00  0.00     0.003 A 
ATOM     16  C   UNL d   1      51.118  34.400  53.587  0.00  0.00     0.000 A 
ATOM     17  C   UNL d   1      51.391  34.807  52.921  0.00  0.00     0.000 A 
ATOM     18  C   UNL d   1      51.616  34.388  52.253  0.00  0.00     0.000 A 
ATOM     19  C   UNL d   1      51.569  33.557  52.243  0.00  0.00     0.003 A 
ENDBRANCH  13  14
ENDBRANCH   2  13
TORSDOF 6
ENDMDL
MODEL 7
REMARK VINA RESULT:      -6.6      1.896      2.596
REMARK  6 active torsions:
REMARK  status: ('A' for Active; 'I' for Inactive)
REMARK       I    between atoms: N_2  and  C_1 
REMARK    1  A    between atoms: C_3  and  C_1 
REMARK    2  A    between atoms: C_5  and  N_2 
REMARK    3  A    between atoms: C_6  and  C_3 
REMARK    4  A    between atoms: C_8  and  C_5 
REMARK    5  A    between atoms: O_7  and  C_6 
REMARK    6  A    between atoms: C_9  and  O_7 
ROOT
ATOM      1  C   UNL d   1      50.842  33.551  53.055  0.00  0.00     0.330 C 
ATOM      2  N   UNL d   1      50.505  34.232  52.753  0.00  0.00    -0.362 NA
ATOM      3  O   UNL d   1      50.454  33.125  53.633  0.00  0.00    -0.251 OA
ENDROOT
BRANCH   1   4
ATOM      4  C   UNL d   1      51.564  33.301  52.777  0.00  0.00     0.103 C 
BRANCH   4   5
ATOM      5  C   UNL d   1      51.900  32.606  53.086  0.00  0.00     0.129 C 
BRANCH   5   6
ATOM      6  O   UNL d   1      52.556  32.259  52.705  0.00  0.00    -0.305 OA
BRANCH   6   7
ATOM      7  C   UNL d   1      52.908  31.580  53.019  0.00  0.00     0.100 A 
ATOM      8  C   UNL d   1      52.622  30.850  52.825  0.00  0.00     0.025 A 
ATOM      9  C   UNL d   1      52.972  30.157  53.138  0.00  0.00     0.002 A 
ATOM     10  C   UNL d   1      53.618  30.240  53.651  0.00  0.00     0.000 A 
ATOM     11  C   UNL d   1      53.905  30.970  53.845  0.00  0.00     0.002 A 
ATOM     12  C   UNL d   1      53.556  31.647  53.534  0.00  0.00     0.025 A 
ENDBRANCH   6   7
ENDBRANCH   5   6
ENDBRANCH   4   5
ENDBRANCH   1   4
BRANCH   2  13
ATOM     13  C   UNL d   1      50.180  34.919  52.439  0.00  0.00     0.165 C 
BRANCH  13  14
ATOM     14  C   UNL d   1      49.445  34.914  52.071  0.00  0.00     0.032 A 
ATOM     15  C   UNL d   1      48.789  35.224  52.463  0.00  0.00     0.003 A 
ATOM     16  C   UNL d   1      48.044  35.219  52.091  0.00  0.00     0.000 A 
ATOM     17  C   UNL d   1      47.963  34.904  51.330  0.00  0.00     0.000 A 
ATOM     18  C   UNL d   1      48.620  34.598  50.947  0.00  0.00     0.000 A 
ATOM     19  C   UNL d   1      49.365  34.603  51.319  0.00  0.00     0.003 A 
ENDBRANCH  13  14
ENDBRANCH   2  13
TORSDOF 6
ENDMDL
MODEL 8
REMARK VINA RESULT:      -5.6      1.495      4.701
REMARK  6 active torsions:
REMARK  status: ('A' for Active; 'I' for Inactive)
REMARK       I    between atoms: N_2  and  C_1 
REMARK    1  A    between atoms: C_3  and  C_1 
REMARK    2  A    between atoms: C_5  and  N_2 
REMARK    3  A    between atoms: C_6  and  C_3 
REMARK    4  A    between atoms: C_8  and  C_5 
REMARK    5  A    between atoms: O_7  and  C_6 
REMARK    6  A    between atoms: C_9  and  O_7 
ROOT
ATOM      1  C   UNL d   1      52.689  31.288  52.876  0.00  0.00     0.330 C 
ATOM      2  N   UNL d   1      53.249  30.893  53.323  0.00  0.00    -0.362 NA
ATOM      3  O   UNL d   1      52.591  31.104  52.087  0.00  0.00    -0.251 OA
ENDROOT
BRANCH   1   4
ATOM      4  C   UNL d   1      52.231  31.865  53.223  0.00  0.00     0.103 C 
BRANCH   4   5
ATOM      5  C   UNL d   1      52.469  32.659  53.170  0.00  0.00     0.129 C 
BRANCH   5   6
ATOM      6  O   UNL d   1      52.044  33.247  53.581  0.00  0.00    -0.305 OA
BRANCH   6   7
ATOM      7  C   UNL d   1      52.405  33.966  53.771  0.00  0.00     0.100 A 
ATOM      8  C   UNL d   1      52.332  34.599  53.274  0.00  0.00     0.025 A 
ATOM      9  C   UNL d   1      52.694  35.331  53.459  0.00  0.00     0.002 A 
ATOM     10  C   UNL d   1      53.129  35.389  54.163  0.00  0.00     0.000 A 
ATOM     11  C   UNL d   1      53.202  34.755  54.659  0.00  0.00     0.002 A 
ATOM     12  C   UNL d   1      52.844  34.039  54.472  0.00  0.00     0.025 A 
ENDBRANCH   6   7
ENDBRANCH   5   6
ENDBRANCH   4   5
ENDBRANCH   1   4
BRANCH   2  13
ATOM     13  C   UNL d   1      53.808  30.506  53.785  0.00  0.00     0.165 C 
BRANCH  13  14
ATOM     14  C   UNL d   1      53.610  29.844  54.228  0.00  0.00     0.032 A 
ATOM     15  C   UNL d   1      53.668  29.093  53.892  0.00  0.00     0.003 A 
ATOM     16  C   UNL d   1      53.466  28.421  54.341  0.00  0.00     0.000 A 
ATOM     17  C   UNL d   1      53.209  28.507  55.122  0.00  0.00     0.000 A 
ATOM     18  C   UNL d   1      53.154  29.257  55.450  0.00  0.00     0.000 A 
ATOM     19  C   UNL d   1      53.355  29.929  55.001  0.00  0.00     0.003 A 
ENDBRANCH  13  14
ENDBRANCH   2  13
TORSDOF 6
ENDMDL
