MODEL 1
REMARK VINA RESULT:      -4.5      0.000      0.000
REMARK  4 active torsions:
REMARK  status: ('A' for Active; 'I' for Inactive)
REMARK    1  A    between atoms: C_6  and  N_1 
REMARK    2  A    between atoms: C_9  and  C_2 
REMARK    3  A    between atoms: O_14  and  C_10 
REMARK    4  A    between atoms: C_15  and  O_14 
ROOT
ATOM      1  C   UNL d   1      56.128   0.084  32.647  0.00  0.00     0.086 A 
ATOM      2  C   UNL d   1      56.308  -0.702  32.483  0.00  0.00     0.021 A 
ATOM      3  C   UNL d   1      56.386   0.680  32.144  0.00  0.00     0.021 A 
ATOM      4  C   UNL d   1      57.008  -0.300  31.305  0.00  0.00     0.100 A 
ATOM      5  C   UNL d   1      56.826   0.488  31.472  0.00  0.00     0.026 A 
ATOM      6  C   UNL d   1      56.748  -0.894  31.812  0.00  0.00     0.026 A 
ENDROOT
BRANCH   1   7
ATOM      7  N   UNL d   1      55.688   0.276  33.318  0.00  0.00    -0.191 N 
ATOM      8  C   UNL d   1      55.986   0.549  34.035  0.00  0.00     0.200 A 
ATOM      9  N   UNL d   1      55.351   0.671  34.552  0.00  0.00    -0.107 NA
ATOM     10  N   UNL d   1      54.668   0.476  34.160  0.00  0.00    -0.022 NA
ATOM     11  N   UNL d   1      54.871   0.230  33.394  0.00  0.00    -0.039 NA
BRANCH   8  12
ATOM     12  C   UNL d   1      56.789   0.682  34.215  0.00  0.00     0.109 C 
ATOM     13 CL   UNL d   1      57.200   0.682  34.936  0.00  0.00    -0.078 Cl
ENDBRANCH   8  12
ENDBRANCH   1   7
BRANCH   4  14
ATOM     14  O   UNL d   1      57.446  -0.491  30.638  0.00  0.00    -0.305 OA
BRANCH  14  15
ATOM     15  C   UNL d   1      58.122  -0.060  30.450  0.00  0.00     0.123 C 
ATOM     16  C   UNL d   1      58.696  -0.385  29.946  0.00  0.00     0.029 C 
ENDBRANCH  14  15
ENDBRANCH   4  14
TORSDOF 4
ENDMDL
MODEL 2
REMARK VINA RESULT:      -3.9      3.091      4.140
REMARK  4 active torsions:
REMARK  status: ('A' for Active; 'I' for Inactive)
REMARK    1  A    between atoms: C_6  and  N_1 
REMARK    2  A    between atoms: C_9  and  C_2 
REMARK    3  A    between atoms: O_14  and  C_10 
REMARK    4  A    between atoms: C_15  and  O_14 
ROOT
ATOM      1  C   UNL d   1      57.752   0.079  30.466  0.00  0.00     0.086 A 
ATOM      2  C   UNL d   1      57.701  -0.703  30.718  0.00  0.00     0.021 A 
ATOM      3  C   UNL d   1      57.436   0.682  30.926  0.00  0.00     0.021 A 
ATOM      4  C   UNL d   1      57.013  -0.282  31.896  0.00  0.00     0.100 A 
ATOM      5  C   UNL d   1      57.065   0.501  31.641  0.00  0.00     0.026 A 
ATOM      6  C   UNL d   1      57.331  -0.884  31.433  0.00  0.00     0.026 A 
ENDROOT
BRANCH   1   7
ATOM      7  N   UNL d   1      58.122   0.260  29.751  0.00  0.00    -0.191 N 
ATOM      8  C   UNL d   1      58.922   0.417  29.643  0.00  0.00     0.200 A 
ATOM      9  N   UNL d   1      59.052   0.571  28.839  0.00  0.00    -0.107 NA
ATOM     10  N   UNL d   1      58.339   0.508  28.455  0.00  0.00    -0.022 NA
ATOM     11  N   UNL d   1      57.760   0.316  29.016  0.00  0.00    -0.039 NA
BRANCH   8  12
ATOM     12  C   UNL d   1      59.508   0.424  30.236  0.00  0.00     0.109 C 
ATOM     13 CL   UNL d   1      60.304   0.659  30.224  0.00  0.00    -0.078 Cl
ENDBRANCH   8  12
ENDBRANCH   1   7
BRANCH   4  14
ATOM     14  O   UNL d   1      56.645  -0.462  32.608  0.00  0.00    -0.305 OA
BRANCH  14  15
ATOM     15  C   UNL d   1      55.906  -0.827  32.610  0.00  0.00     0.123 C 
ATOM     16  C   UNL d   1      55.498  -0.937  33.324  0.00  0.00     0.029 C 
ENDBRANCH  14  15
ENDBRANCH   4  14
TORSDOF 4
ENDMDL
MODEL 3
REMARK VINA RESULT:      -2.6      3.569      4.793
REMARK  4 active torsions:
REMARK  status: ('A' for Active; 'I' for Inactive)
REMARK    1  A    between atoms: C_6  and  N_1 
REMARK    2  A    between atoms: C_9  and  C_2 
REMARK    3  A    between atoms: O_14  and  C_10 
REMARK    4  A    between atoms: C_15  and  O_14 
ROOT
ATOM      1  C   UNL d   1      58.542   0.261  30.000  0.00  0.00     0.086 A 
ATOM      2  C   UNL d   1      57.749   0.391  29.821  0.00  0.00     0.021 A 
ATOM      3  C   UNL d   1      58.796   0.271  30.781  0.00  0.00     0.021 A 
ATOM      4  C   UNL d   1      57.457   0.542  31.210  0.00  0.00     0.100 A 
ATOM      5  C   UNL d   1      58.253   0.412  31.387  0.00  0.00     0.026 A 
ATOM      6  C   UNL d   1      57.206   0.531  30.427  0.00  0.00     0.026 A 
ENDROOT
BRANCH   1   7
ATOM      7  N   UNL d   1      59.085   0.121  29.394  0.00  0.00    -0.191 N 
ATOM      8  C   UNL d   1      59.243  -0.605  29.040  0.00  0.00     0.200 A 
ATOM      9  N   UNL d   1      59.823  -0.492  28.461  0.00  0.00    -0.107 NA
ATOM     10  N   UNL d   1      60.023   0.295  28.457  0.00  0.00    -0.022 NA
ATOM     11  N   UNL d   1      59.568   0.679  29.034  0.00  0.00    -0.039 NA
BRANCH   8  12
ATOM     12  C   UNL d   1      58.883  -1.333  29.228  0.00  0.00     0.109 C 
ATOM     13 CL   UNL d   1      59.008  -2.102  28.940  0.00  0.00    -0.078 Cl
ENDBRANCH   8  12
ENDBRANCH   1   7
BRANCH   4  14
ATOM     14  O   UNL d   1      56.917   0.682  31.813  0.00  0.00    -0.305 OA
BRANCH  14  15
ATOM     15  C   UNL d   1      56.509   0.053  32.156  0.00  0.00     0.123 C 
ATOM     16  C   UNL d   1      55.894   0.201  32.694  0.00  0.00     0.029 C 
ENDBRANCH  14  15
ENDBRANCH   4  14
TORSDOF 4
ENDMDL
