MODEL 1
REMARK VINA RESULT:       7.0      0.000      0.000
REMARK  5 active torsions:
REMARK  status: ('A' for Active; 'I' for Inactive)
REMARK    1  A    between atoms: N_11  and  C_4 
REMARK    2  A    between atoms: C_18  and  N_15 
REMARK    3  A    between atoms: C_21  and  C_18 
REMARK    4  A    between atoms: O_28  and  C_23 
REMARK    5  A    between atoms: C_31  and  O_28 
ROOT
ATOM      1  N   UNL d   1     -42.098-123.113 -50.279  0.00  0.00    -0.195 N 
ATOM      2  C   UNL d   1     -42.498-122.811 -49.645  0.00  0.00     0.168 A 
ATOM      3  C   UNL d   1     -42.291-123.008 -48.901  0.00  0.00     0.073 A 
ATOM      4  C   UNL d   1     -42.318-122.905 -51.015  0.00  0.00     0.153 A 
ATOM      5  N   UNL d   1     -41.279-123.812 -49.428  0.00  0.00    -0.143 NA
ATOM      6  C   UNL d   1     -41.680-123.510 -48.795  0.00  0.00     0.185 A 
ATOM      7  N   UNL d   1     -43.110-122.309 -49.764  0.00  0.00    -0.227 NA
ATOM      8  C   UNL d   1     -42.687-122.709 -48.274  0.00  0.00     0.007 A 
ATOM      9  N   UNL d   1     -41.458-123.719 -48.047  0.00  0.00    -0.225 NA
ATOM     10  C   UNL d   1     -42.923-122.408 -51.137  0.00  0.00     0.057 A 
ATOM     11  C   UNL d   1     -42.479-122.907 -47.530  0.00  0.00     0.019 A 
ATOM     12  C   UNL d   1     -43.324-122.106 -50.504  0.00  0.00     0.086 A 
ATOM     13  C   UNL d   1     -41.859-123.416 -47.413  0.00  0.00     0.083 A 
ATOM     14  C   UNL d   1     -43.301-122.205 -48.395  0.00  0.00     0.000 C 
ATOM     15  C   UNL d   1     -43.959-121.584 -50.631  0.00  0.00     0.021 C 
ATOM     16  C   UNL d   1     -41.647-123.617 -46.676  0.00  0.00     0.021 C 
ENDROOT
BRANCH   4  17
ATOM     17  N   UNL d   1     -41.900-123.221 -51.664  0.00  0.00    -0.286 N 
ATOM     18  C   UNL d   1     -42.355-122.812 -52.220  0.00  0.00     0.101 A 
ATOM     19  C   UNL d   1     -42.193-122.905 -53.023  0.00  0.00     0.100 A 
ATOM     20  N   UNL d   1     -41.576-123.408 -53.271  0.00  0.00    -0.300 N 
ATOM     21  C   UNL d   1     -41.123-123.817 -52.700  0.00  0.00     0.100 A 
ATOM     22  C   UNL d   1     -41.289-123.721 -51.891  0.00  0.00     0.101 A 
BRANCH  20  23
ATOM     23  C   UNL d   1     -41.408-123.506 -54.083  0.00  0.00     0.080 C 
BRANCH  23  24
ATOM     24  C   UNL d   1     -41.635-122.919 -54.623  0.00  0.00     0.018 A 
ATOM     25  C   UNL d   1     -42.270-123.047 -55.144  0.00  0.00     0.004 A 
ATOM     26  C   UNL d   1     -42.500-122.454 -55.690  0.00  0.00     0.025 A 
ATOM     27  C   UNL d   1     -42.088-121.728 -55.711  0.00  0.00     0.100 A 
ATOM     28  C   UNL d   1     -41.443-121.595 -55.183  0.00  0.00     0.025 A 
ATOM     29  C   UNL d   1     -41.227-122.194 -54.646  0.00  0.00     0.004 A 
BRANCH  27  30
ATOM     30  O   UNL d   1     -42.309-121.137 -56.247  0.00  0.00    -0.305 OA
BRANCH  30  31
ATOM     31  C   UNL d   1     -41.761-120.863 -56.815  0.00  0.00     0.123 C 
ATOM     32  C   UNL d   1     -42.036-120.534 -57.535  0.00  0.00     0.029 C 
ENDBRANCH  30  31
ENDBRANCH  27  30
ENDBRANCH  23  24
ENDBRANCH  20  23
ENDBRANCH   4  17
TORSDOF 5
ENDMDL
