MODEL 1
REMARK VINA RESULT:      46.8      0.000      0.000
REMARK  5 active torsions:
REMARK  status: ('A' for Active; 'I' for Inactive)
REMARK    1  A    between atoms: C_8  and  S_1 
REMARK    2  A    between atoms: N_10  and  S_1 
REMARK    3  A    between atoms: C_6  and  C_17 
REMARK    4  A    between atoms: C_18  and  N_10 
REMARK    5  A    between atoms: O_24  and  C_19 
ROOT
ATOM      1  C   UNL d   1      45.834 -16.729  44.372  0.00  0.00     0.021 A 
ATOM      2  C   UNL d   1      46.243 -17.966  43.767  0.00  0.00     0.094 A 
ATOM      3  C   UNL d   1      46.240 -17.141  43.775  0.00  0.00     0.021 A 
ATOM      4  C   UNL d   1      45.436 -17.151  44.954  0.00  0.00     0.002 A 
ATOM      5  C   UNL d   1      45.433 -17.969  44.954  0.00  0.00     0.002 A 
ATOM      6  C   UNL d   1      45.839 -18.381  44.358  0.00  0.00     0.020 A 
ENDROOT
BRANCH   2   7
ATOM      7  N   UNL d   1      46.644 -18.372  43.178  0.00  0.00    -0.158 NA
BRANCH   7   8
ATOM      8  S   UNL d   1      46.375 -18.338  42.403  0.00  0.00     0.285 S 
ATOM      9  O   UNL d   1      46.559 -17.530  42.392  0.00  0.00    -0.198 OA
ATOM     10  O   UNL d   1      46.189 -19.146  42.408  0.00  0.00    -0.198 OA
BRANCH   8  11
ATOM     11  C   UNL d   1      46.104 -18.293  41.615  0.00  0.00     0.108 A 
ATOM     12  C   UNL d   1      45.325 -18.446  41.449  0.00  0.00     0.045 A 
ATOM     13  C   UNL d   1      45.042 -18.406  40.678  0.00  0.00     0.163 A 
ATOM     14  F   UNL d   1      44.259 -18.560  40.512  0.00  0.00    -0.202 F 
ATOM     15  C   UNL d   1      45.569 -18.205  40.069  0.00  0.00     0.121 A 
ATOM     16  C   UNL d   1      46.360 -18.050  40.237  0.00  0.00     0.027 A 
ATOM     17  C   UNL d   1      46.644 -18.091  41.020  0.00  0.00     0.015 A 
BRANCH  15  18
ATOM     18  O   UNL d   1      45.305 -18.162  39.306  0.00  0.00    -0.326 OA
ATOM     19  C   UNL d   1      45.093 -17.449  38.983  0.00  0.00     0.181 C 
ENDBRANCH  15  18
ENDBRANCH   8  11
ENDBRANCH   7   8
ENDBRANCH   2   7
BRANCH   1  20
ATOM     20  C   UNL d   1      45.839 -15.905  44.368  0.00  0.00     0.102 A 
ATOM     21  N   UNL d   1      45.121 -15.503  44.491  0.00  0.00    -0.162 NA
ATOM     22  N   UNL d   1      45.118 -14.668  44.489  0.00  0.00    -0.189 N 
ATOM     23  C   UNL d   1      44.513 -14.131  44.592  0.00  0.00     0.224 A 
ATOM     24  C   UNL d   1      45.823 -14.244  44.366  0.00  0.00     0.187 A 
ATOM     25  N   UNL d   1      44.825 -13.383  44.536  0.00  0.00    -0.124 NA
ATOM     26  N   UNL d   1      45.631 -13.462  44.397  0.00  0.00    -0.127 NA
ATOM     27  C   UNL d   1      46.533 -14.669  44.245  0.00  0.00     0.042 A 
ATOM     28  C   UNL d   1      46.535 -15.498  44.247  0.00  0.00     0.024 A 
ENDBRANCH   1  20
TORSDOF 5
ENDMDL
MODEL 2
REMARK VINA RESULT:      47.8      3.052      4.420
REMARK  5 active torsions:
REMARK  status: ('A' for Active; 'I' for Inactive)
REMARK    1  A    between atoms: C_8  and  S_1 
REMARK    2  A    between atoms: N_10  and  S_1 
REMARK    3  A    between atoms: C_6  and  C_17 
REMARK    4  A    between atoms: C_18  and  N_10 
REMARK    5  A    between atoms: O_24  and  C_19 
ROOT
ATOM      1  C   UNL d   1      46.129 -18.640  41.199  0.00  0.00     0.021 A 
ATOM      2  C   UNL d   1      45.395 -18.056  40.112  0.00  0.00     0.094 A 
ATOM      3  C   UNL d   1      45.499 -18.173  40.921  0.00  0.00     0.021 A 
ATOM      4  C   UNL d   1      46.646 -18.983  40.660  0.00  0.00     0.002 A 
ATOM      5  C   UNL d   1      46.550 -18.871  39.855  0.00  0.00     0.002 A 
ATOM      6  C   UNL d   1      45.921 -18.405  39.578  0.00  0.00     0.020 A 
ENDROOT
BRANCH   2   7
ATOM      7  N   UNL d   1      44.774 -17.595  39.838  0.00  0.00    -0.158 NA
BRANCH   7   8
ATOM      8  S   UNL d   1      44.870 -17.143  39.160  0.00  0.00     0.285 S 
ATOM      9  O   UNL d   1      44.064 -16.955  39.190  0.00  0.00    -0.198 OA
ATOM     10  O   UNL d   1      45.678 -17.327  39.124  0.00  0.00    -0.198 OA
BRANCH   8  11
ATOM     11  C   UNL d   1      44.957 -16.680  38.471  0.00  0.00     0.108 A 
ATOM     12  C   UNL d   1      44.409 -16.738  37.876  0.00  0.00     0.045 A 
ATOM     13  C   UNL d   1      44.480 -16.289  37.190  0.00  0.00     0.163 A 
ATOM     14  F   UNL d   1      43.928 -16.348  36.593  0.00  0.00    -0.202 F 
ATOM     15  C   UNL d   1      45.126 -15.773  37.116  0.00  0.00     0.121 A 
ATOM     16  C   UNL d   1      45.683 -15.714  37.720  0.00  0.00     0.027 A 
ATOM     17  C   UNL d   1      45.608 -16.170  38.413  0.00  0.00     0.015 A 
BRANCH  15  18
ATOM     18  O   UNL d   1      45.209 -15.326  36.448  0.00  0.00    -0.326 OA
ATOM     19  C   UNL d   1      45.749 -14.721  36.422  0.00  0.00     0.181 C 
ENDBRANCH  15  18
ENDBRANCH   8  11
ENDBRANCH   7   8
ENDBRANCH   2   7
BRANCH   1  20
ATOM     20  C   UNL d   1      46.222 -18.750  42.011  0.00  0.00     0.102 A 
ATOM     21  N   UNL d   1      46.278 -19.527  42.302  0.00  0.00    -0.162 NA
ATOM     22  N   UNL d   1      46.372 -19.647  43.123  0.00  0.00    -0.189 N 
ATOM     23  C   UNL d   1      46.442 -20.329  43.564  0.00  0.00     0.224 A 
ATOM     24  C   UNL d   1      46.410 -18.997  43.642  0.00  0.00     0.187 A 
ATOM     25  N   UNL d   1      46.522 -20.120  44.345  0.00  0.00    -0.124 NA
ATOM     26  N   UNL d   1      46.502 -19.300  44.384  0.00  0.00    -0.127 NA
ATOM     27  C   UNL d   1      46.352 -18.225  43.327  0.00  0.00     0.042 A 
ATOM     28  C   UNL d   1      46.258 -18.108  42.511  0.00  0.00     0.024 A 
ENDBRANCH   1  20
TORSDOF 5
ENDMDL
