MODEL 1
REMARK VINA RESULT:      -2.7      0.000      0.000
REMARK  2 active torsions:
REMARK  status: ('A' for Active; 'I' for Inactive)
REMARK    1  A    between atoms: C_6  and  C_2 
REMARK    2  A    between atoms: O_13  and  C_10 
ROOT
ATOM      1  C   UNL d   1      32.843  21.905 -20.998  0.00  0.00     0.026 A 
ATOM      2  C   UNL d   1      32.691  21.120 -20.778  0.00  0.00     0.004 A 
ATOM      3  C   UNL d   1      33.116  22.058 -21.752  0.00  0.00     0.004 A 
ATOM      4  C   UNL d   1      33.088  20.675 -22.062  0.00  0.00     0.094 A 
ATOM      5  C   UNL d   1      32.810  20.503 -21.300  0.00  0.00     0.024 A 
ATOM      6  C   UNL d   1      33.241  21.434 -22.294  0.00  0.00     0.024 A 
ENDROOT
BRANCH   1   7
ATOM      7  C   UNL d   1      32.721  22.522 -20.464  0.00  0.00     0.135 A 
ATOM      8  S   UNL d   1      33.179  22.691 -19.803  0.00  0.00    -0.024 SA
ATOM      9  C   UNL d   1      32.864  23.344 -19.433  0.00  0.00     0.236 A 
ATOM     10  N   UNL d   1      32.201  23.595 -19.858  0.00  0.00    -0.119 NA
ATOM     11  N   UNL d   1      33.156  23.699 -18.747  0.00  0.00    -0.118 N 
ATOM     12  N   UNL d   1      32.112  23.082 -20.502  0.00  0.00    -0.139 NA
ENDBRANCH   1   7
BRANCH   4  13
ATOM     13  O   UNL d   1      33.207  20.054 -22.587  0.00  0.00    -0.328 OA
ATOM     14  C   UNL d   1      33.120  19.275 -22.337  0.00  0.00     0.181 C 
ENDBRANCH   4  13
TORSDOF 2
ENDMDL
MODEL 2
REMARK VINA RESULT:      -2.6      6.011      7.142
REMARK  2 active torsions:
REMARK  status: ('A' for Active; 'I' for Inactive)
REMARK    1  A    between atoms: C_6  and  C_2 
REMARK    2  A    between atoms: O_13  and  C_10 
ROOT
ATOM      1  C   UNL d   1      30.581  16.567 -24.105  0.00  0.00     0.026 A 
ATOM      2  C   UNL d   1      31.192  16.207 -23.673  0.00  0.00     0.004 A 
ATOM      3  C   UNL d   1      30.697  17.318 -24.404  0.00  0.00     0.004 A 
ATOM      4  C   UNL d   1      32.004  17.353 -23.854  0.00  0.00     0.094 A 
ATOM      5  C   UNL d   1      31.901  16.592 -23.544  0.00  0.00     0.024 A 
ATOM      6  C   UNL d   1      31.420  17.719 -24.277  0.00  0.00     0.024 A 
ENDROOT
BRANCH   1   7
ATOM      7  C   UNL d   1      29.868  16.172 -24.232  0.00  0.00     0.135 A 
ATOM      8  S   UNL d   1      29.242  16.118 -23.701  0.00  0.00    -0.024 SA
ATOM      9  C   UNL d   1      28.649  15.680 -24.047  0.00  0.00     0.236 A 
ATOM     10  N   UNL d   1      28.895  15.453 -24.803  0.00  0.00    -0.119 NA
ATOM     11  N   UNL d   1      27.923  15.494 -23.704  0.00  0.00    -0.118 N 
ATOM     12  N   UNL d   1      29.656  15.760 -24.918  0.00  0.00    -0.139 NA
ENDBRANCH   1   7
BRANCH   4  13
ATOM     13  O   UNL d   1      32.718  17.739 -23.723  0.00  0.00    -0.328 OA
ATOM     14  C   UNL d   1      32.792  18.281 -23.109  0.00  0.00     0.181 C 
ENDBRANCH   4  13
TORSDOF 2
ENDMDL
MODEL 3
REMARK VINA RESULT:      -2.5      2.657      3.753
REMARK  2 active torsions:
REMARK  status: ('A' for Active; 'I' for Inactive)
REMARK    1  A    between atoms: C_6  and  C_2 
REMARK    2  A    between atoms: O_13  and  C_10 
ROOT
ATOM      1  C   UNL d   1      32.868  20.992 -21.703  0.00  0.00     0.026 A 
ATOM      2  C   UNL d   1      33.089  21.657 -22.147  0.00  0.00     0.004 A 
ATOM      3  C   UNL d   1      32.545  21.102 -20.961  0.00  0.00     0.004 A 
ATOM      4  C   UNL d   1      32.661  22.508 -21.100  0.00  0.00     0.094 A 
ATOM      5  C   UNL d   1      32.989  22.414 -21.854  0.00  0.00     0.024 A 
ATOM      6  C   UNL d   1      32.439  21.872 -20.653  0.00  0.00     0.024 A 
ENDROOT
BRANCH   1   7
ATOM      7  C   UNL d   1      32.972  20.232 -22.006  0.00  0.00     0.135 A 
ATOM      8  S   UNL d   1      32.858  20.000 -22.786  0.00  0.00    -0.024 SA
ATOM      9  C   UNL d   1      33.021  19.204 -22.844  0.00  0.00     0.236 A 
ATOM     10  N   UNL d   1      33.241  18.925 -22.097  0.00  0.00    -0.119 NA
ATOM     11  N   UNL d   1      32.976  18.749 -23.531  0.00  0.00    -0.118 N 
ATOM     12  N   UNL d   1      33.210  19.566 -21.574  0.00  0.00    -0.139 NA
ENDBRANCH   1   7
BRANCH   4  13
ATOM     13  O   UNL d   1      32.561  23.270 -20.806  0.00  0.00    -0.328 OA
ATOM     14  C   UNL d   1      31.883  23.700 -20.988  0.00  0.00     0.181 C 
ENDBRANCH   4  13
TORSDOF 2
ENDMDL
MODEL 4
REMARK VINA RESULT:      -2.5      2.229      3.535
REMARK  2 active torsions:
REMARK  status: ('A' for Active; 'I' for Inactive)
REMARK    1  A    between atoms: C_6  and  C_2 
REMARK    2  A    between atoms: O_13  and  C_10 
ROOT
ATOM      1  C   UNL d   1      32.933  22.074 -20.620  0.00  0.00     0.026 A 
ATOM      2  C   UNL d   1      32.522  22.784 -20.745  0.00  0.00     0.004 A 
ATOM      3  C   UNL d   1      33.241  21.920 -19.879  0.00  0.00     0.004 A 
ATOM      4  C   UNL d   1      32.740  23.156 -19.396  0.00  0.00     0.094 A 
ATOM      5  C   UNL d   1      32.422  23.326 -20.142  0.00  0.00     0.024 A 
ATOM      6  C   UNL d   1      33.143  22.470 -19.256  0.00  0.00     0.024 A 
ENDROOT
BRANCH   1   7
ATOM      7  C   UNL d   1      33.030  21.531 -21.233  0.00  0.00     0.135 A 
ATOM      8  S   UNL d   1      33.000  20.712 -21.167  0.00  0.00    -0.024 SA
ATOM      9  C   UNL d   1      33.124  20.390 -21.905  0.00  0.00     0.236 A 
ATOM     10  N   UNL d   1      33.234  21.005 -22.446  0.00  0.00    -0.119 NA
ATOM     11  N   UNL d   1      33.138  19.585 -22.084  0.00  0.00    -0.118 N 
ATOM     12  N   UNL d   1      33.176  21.717 -22.027  0.00  0.00    -0.139 NA
ENDBRANCH   1   7
BRANCH   4  13
ATOM     13  O   UNL d   1      32.639  23.702 -18.790  0.00  0.00    -0.328 OA
ATOM     14  C   UNL d   1      33.047  23.618 -18.081  0.00  0.00     0.181 C 
ENDBRANCH   4  13
TORSDOF 2
ENDMDL
MODEL 5
REMARK VINA RESULT:      -2.3      1.099      1.597
REMARK  2 active torsions:
REMARK  status: ('A' for Active; 'I' for Inactive)
REMARK    1  A    between atoms: C_6  and  C_2 
REMARK    2  A    between atoms: O_13  and  C_10 
ROOT
ATOM      1  C   UNL d   1      32.814  20.604 -21.872  0.00  0.00     0.026 A 
ATOM      2  C   UNL d   1      32.951  19.825 -21.623  0.00  0.00     0.004 A 
ATOM      3  C   UNL d   1      32.823  20.771 -22.672  0.00  0.00     0.004 A 
ATOM      4  C   UNL d   1      33.098  19.412 -22.970  0.00  0.00     0.094 A 
ATOM      5  C   UNL d   1      33.093  19.227 -22.162  0.00  0.00     0.024 A 
ATOM      6  C   UNL d   1      32.967  20.166 -23.231  0.00  0.00     0.024 A 
ENDROOT
BRANCH   1   7
ATOM      7  C   UNL d   1      32.672  21.202 -21.322  0.00  0.00     0.135 A 
ATOM      8  S   UNL d   1      33.237  21.691 -20.979  0.00  0.00    -0.024 SA
ATOM      9  C   UNL d   1      32.859  22.202 -20.470  0.00  0.00     0.236 A 
ATOM     10  N   UNL d   1      32.048  22.039 -20.486  0.00  0.00    -0.119 NA
ATOM     11  N   UNL d   1      33.222  22.785 -20.012  0.00  0.00    -0.118 N 
ATOM     12  N   UNL d   1      31.932  21.416 -21.018  0.00  0.00    -0.139 NA
ENDBRANCH   1   7
BRANCH   4  13
ATOM     13  O   UNL d   1      33.241  18.810 -23.511  0.00  0.00    -0.328 OA
ATOM     14  C   UNL d   1      32.814  18.108 -23.474  0.00  0.00     0.181 C 
ENDBRANCH   4  13
TORSDOF 2
ENDMDL
MODEL 6
REMARK VINA RESULT:      -2.2      3.364      4.649
REMARK  2 active torsions:
REMARK  status: ('A' for Active; 'I' for Inactive)
REMARK    1  A    between atoms: C_6  and  C_2 
REMARK    2  A    between atoms: O_13  and  C_10 
ROOT
ATOM      1  C   UNL d   1      32.659  18.111 -23.553  0.00  0.00     0.026 A 
ATOM      2  C   UNL d   1      33.019  17.426 -23.252  0.00  0.00     0.004 A 
ATOM      3  C   UNL d   1      32.097  18.037 -24.140  0.00  0.00     0.004 A 
ATOM      4  C   UNL d   1      32.248  16.627 -24.131  0.00  0.00     0.094 A 
ATOM      5  C   UNL d   1      32.820  16.685 -23.534  0.00  0.00     0.024 A 
ATOM      6  C   UNL d   1      31.887  17.283 -24.435  0.00  0.00     0.024 A 
ENDROOT
BRANCH   1   7
ATOM      7  C   UNL d   1      32.866  18.855 -23.263  0.00  0.00     0.135 A 
ATOM      8  S   UNL d   1      32.898  19.077 -22.472  0.00  0.00    -0.024 SA
ATOM      9  C   UNL d   1      33.126  19.858 -22.434  0.00  0.00     0.236 A 
ATOM     10  N   UNL d   1      33.240  20.138 -23.203  0.00  0.00    -0.119 NA
ATOM     11  N   UNL d   1      33.226  20.299 -21.743  0.00  0.00    -0.118 N 
ATOM     12  N   UNL d   1      33.078  19.513 -23.721  0.00  0.00    -0.139 NA
ENDBRANCH   1   7
BRANCH   4  13
ATOM     13  O   UNL d   1      32.048  15.881 -24.413  0.00  0.00    -0.328 OA
ATOM     14  C   UNL d   1      31.363  15.508 -24.154  0.00  0.00     0.181 C 
ENDBRANCH   4  13
TORSDOF 2
ENDMDL
MODEL 7
REMARK VINA RESULT:      -2.2      4.356      5.648
REMARK  2 active torsions:
REMARK  status: ('A' for Active; 'I' for Inactive)
REMARK    1  A    between atoms: C_6  and  C_2 
REMARK    2  A    between atoms: O_13  and  C_10 
ROOT
ATOM      1  C   UNL d   1      32.847  18.197 -23.421  0.00  0.00     0.026 A 
ATOM      2  C   UNL d   1      32.748  18.941 -23.776  0.00  0.00     0.004 A 
ATOM      3  C   UNL d   1      33.077  18.161 -22.638  0.00  0.00     0.004 A 
ATOM      4  C   UNL d   1      33.111  19.576 -22.564  0.00  0.00     0.094 A 
ATOM      5  C   UNL d   1      32.877  19.630 -23.357  0.00  0.00     0.024 A 
ATOM      6  C   UNL d   1      33.211  18.861 -22.202  0.00  0.00     0.024 A 
ENDROOT
BRANCH   1   7
ATOM      7  C   UNL d   1      32.714  17.506 -23.851  0.00  0.00     0.135 A 
ATOM      8  S   UNL d   1      32.065  17.006 -23.780  0.00  0.00    -0.024 SA
ATOM      9  C   UNL d   1      32.156  16.391 -24.306  0.00  0.00     0.236 A 
ATOM     10  N   UNL d   1      32.866  16.497 -24.716  0.00  0.00    -0.119 NA
ATOM     11  N   UNL d   1      31.629  15.766 -24.413  0.00  0.00    -0.118 N 
ATOM     12  N   UNL d   1      33.215  17.192 -24.432  0.00  0.00    -0.139 NA
ENDBRANCH   1   7
BRANCH   4  13
ATOM     13  O   UNL d   1      33.240  20.270 -22.143  0.00  0.00    -0.328 OA
ATOM     14  C   UNL d   1      32.848  20.406 -21.433  0.00  0.00     0.181 C 
ENDBRANCH   4  13
TORSDOF 2
ENDMDL
MODEL 8
REMARK VINA RESULT:      -2.1      1.555      2.074
REMARK  2 active torsions:
REMARK  status: ('A' for Active; 'I' for Inactive)
REMARK    1  A    between atoms: C_6  and  C_2 
REMARK    2  A    between atoms: O_13  and  C_10 
ROOT
ATOM      1  C   UNL d   1      32.840  22.817 -19.577  0.00  0.00     0.026 A 
ATOM      2  C   UNL d   1      33.039  22.037 -19.780  0.00  0.00     0.004 A 
ATOM      3  C   UNL d   1      32.695  23.355 -20.174  0.00  0.00     0.004 A 
ATOM      4  C   UNL d   1      32.939  22.361 -21.155  0.00  0.00     0.094 A 
ATOM      5  C   UNL d   1      33.090  21.803 -20.562  0.00  0.00     0.024 A 
ATOM      6  C   UNL d   1      32.745  23.125 -20.976  0.00  0.00     0.024 A 
ENDROOT
BRANCH   1   7
ATOM      7  C   UNL d   1      32.790  23.046 -18.786  0.00  0.00     0.135 A 
ATOM      8  S   UNL d   1      33.177  22.692 -18.153  0.00  0.00    -0.024 SA
ATOM      9  C   UNL d   1      32.974  23.091 -17.473  0.00  0.00     0.236 A 
ATOM     10  N   UNL d   1      32.454  23.702 -17.671  0.00  0.00    -0.119 NA
ATOM     11  N   UNL d   1      33.240  22.915 -16.712  0.00  0.00    -0.118 N 
ATOM     12  N   UNL d   1      32.340  23.674 -18.490  0.00  0.00    -0.139 NA
ENDBRANCH   1   7
BRANCH   4  13
ATOM     13  O   UNL d   1      32.991  22.125 -21.941  0.00  0.00    -0.328 OA
ATOM     14  C   UNL d   1      33.001  22.684 -22.544  0.00  0.00     0.181 C 
ENDBRANCH   4  13
TORSDOF 2
ENDMDL
MODEL 9
REMARK VINA RESULT:      -2.1      2.764      3.559
REMARK  2 active torsions:
REMARK  status: ('A' for Active; 'I' for Inactive)
REMARK    1  A    between atoms: C_6  and  C_2 
REMARK    2  A    between atoms: O_13  and  C_10 
ROOT
ATOM      1  C   UNL d   1      32.647  23.185 -21.521  0.00  0.00     0.026 A 
ATOM      2  C   UNL d   1      32.014  22.815 -21.133  0.00  0.00     0.004 A 
ATOM      3  C   UNL d   1      33.177  23.625 -21.081  0.00  0.00     0.004 A 
ATOM      4  C   UNL d   1      32.460  23.335 -19.893  0.00  0.00     0.094 A 
ATOM      5  C   UNL d   1      31.914  22.884 -20.325  0.00  0.00     0.024 A 
ATOM      6  C   UNL d   1      33.082  23.702 -20.254  0.00  0.00     0.024 A 
ENDROOT
BRANCH   1   7
ATOM      7  C   UNL d   1      32.742  23.110 -22.337  0.00  0.00     0.135 A 
ATOM      8  S   UNL d   1      32.433  23.613 -22.909  0.00  0.00    -0.024 SA
ATOM      9  C   UNL d   1      32.659  23.336 -23.642  0.00  0.00     0.236 A 
ATOM     10  N   UNL d   1      33.114  22.654 -23.538  0.00  0.00    -0.119 NA
ATOM     11  N   UNL d   1      32.466  23.678 -24.367  0.00  0.00    -0.118 N 
ATOM     12  N   UNL d   1      33.166  22.513 -22.723  0.00  0.00    -0.139 NA
ENDBRANCH   1   7
BRANCH   4  13
ATOM     13  O   UNL d   1      32.358  23.404 -19.080  0.00  0.00    -0.328 OA
ATOM     14  C   UNL d   1      32.958  23.178 -18.565  0.00  0.00     0.181 C 
ENDBRANCH   4  13
TORSDOF 2
ENDMDL
