MODEL 1
REMARK VINA RESULT:      44.4      0.000      0.000
REMARK  2 active torsions:
REMARK  status: ('A' for Active; 'I' for Inactive)
REMARK    1  A    between atoms: N_5  and  C_1 
REMARK       I    between atoms: C_4  and  N_5 
REMARK    2  A    between atoms: C_7  and  C_4 
ROOT
ATOM      1  C   UNL d   1      60.231  49.366  51.307  0.00  0.00     0.060 A 
ATOM      2  C   UNL d   1      58.878  49.426  50.801  0.00  0.00     0.123 A 
ATOM      3  C   UNL d   1      59.410  49.314  51.420  0.00  0.00     0.032 A 
ATOM      4  C   UNL d   1      59.164  49.595  50.038  0.00  0.00     0.123 A 
ATOM      5  O   UNL d   1      58.073  49.373  50.919  0.00  0.00    -0.301 OA
ATOM      6  O   UNL d   1      58.652  49.708  49.417  0.00  0.00    -0.301 OA
ATOM      7  C   UNL d   1      60.515  49.534  50.552  0.00  0.00     0.007 A 
ATOM      8  C   UNL d   1      59.975  49.649  49.913  0.00  0.00     0.027 A 
ATOM      9  C   UNL d   1      57.529  49.483  50.309  0.00  0.00     0.149 A 
ATOM     10  C   UNL d   1      57.813  49.653  49.542  0.00  0.00     0.149 A 
ENDROOT
BRANCH   1  11
ATOM     11  C   UNL d   1      60.748  49.253  51.929  0.00  0.00     0.281 C 
ATOM     12  N   UNL d   1      61.310  48.648  51.851  0.00  0.00    -0.187 NA
ATOM     13  O   UNL d   1      60.770  49.708  52.676  0.00  0.00    -0.265 OA
BRANCH  12  14
ATOM     14  C   UNL d   1      61.326  48.180  51.143  0.00  0.00     0.194 A 
ATOM     15  N   UNL d   1      61.462  48.452  50.374  0.00  0.00    -0.107 NA
ATOM     16  O   UNL d   1      61.427  47.808  49.858  0.00  0.00    -0.210 OA
ATOM     17  C   UNL d   1      61.268  47.122  50.307  0.00  0.00     0.128 A 
ATOM     18  C   UNL d   1      61.207  47.366  51.106  0.00  0.00     0.068 A 
ATOM     19  C   UNL d   1      61.189  46.359  50.011  0.00  0.00     0.029 C 
ENDBRANCH  12  14
ENDBRANCH   1  11
TORSDOF 2
ENDMDL
