MODEL 1
REMARK VINA RESULT:      14.9      0.000      0.000
REMARK  3 active torsions:
REMARK  status: ('A' for Active; 'I' for Inactive)
REMARK    1  A    between atoms: S_15  and  C_4 
REMARK    2  A    between atoms: C_9  and  C_16 
REMARK    3  A    between atoms: C_16  and  S_15 
ROOT
ATOM      1  C   UNL d   1      46.431 -18.495  42.960  0.00  0.00     0.141 A 
ATOM      2  C   UNL d   1      46.493 -19.313  42.871  0.00  0.00     0.110 A 
ATOM      3  O   UNL d   1      46.441 -18.154  42.210  0.00  0.00    -0.303 OA
ATOM      4  C   UNL d   1      46.374 -18.165  43.715  0.00  0.00     0.137 A 
ATOM      5  N   UNL d   1      46.379 -18.654  44.380  0.00  0.00    -0.218 NA
ATOM      6  C   UNL d   1      46.541 -19.478  42.063  0.00  0.00     0.043 A 
ATOM      7  N   UNL d   1      46.498 -19.800  43.536  0.00  0.00    -0.225 NA
ATOM      8  C   UNL d   1      46.509 -18.762  41.655  0.00  0.00     0.102 A 
ATOM      9  C   UNL d   1      46.441 -19.472  44.290  0.00  0.00     0.163 A 
ATOM     10  C   UNL d   1      46.610 -20.187  41.649  0.00  0.00     0.004 A 
ATOM     11  C   UNL d   1      46.545 -18.757  40.831  0.00  0.00     0.025 A 
ATOM     12  C   UNL d   1      46.446 -19.960  44.954  0.00  0.00     0.042 C 
ATOM     13  C   UNL d   1      46.646 -20.181  40.825  0.00  0.00     0.000 A 
ATOM     14  C   UNL d   1      46.614 -19.465  40.416  0.00  0.00     0.002 A 
ENDROOT
BRANCH   4  15
ATOM     15  S   UNL d   1      46.312 -17.347  43.805  0.00  0.00    -0.062 SA
BRANCH  15  16
ATOM     16  C   UNL d   1      45.827 -17.033  44.394  0.00  0.00     0.076 C 
BRANCH  16  17
ATOM     17  C   UNL d   1      45.738 -16.216  44.462  0.00  0.00     0.169 A 
ATOM     18  N   UNL d   1      46.297 -15.692  44.768  0.00  0.00    -0.225 NA
ATOM     19  C   UNL d   1      45.980 -14.932  44.732  0.00  0.00     0.101 A 
ATOM     20  C   UNL d   1      46.280 -14.196  44.955  0.00  0.00     0.021 A 
ATOM     21  C   UNL d   1      45.224 -14.985  44.403  0.00  0.00     0.101 A 
ATOM     22  C   UNL d   1      45.826 -13.515  44.850  0.00  0.00     0.002 A 
ATOM     23  C   UNL d   1      45.072 -13.569  44.522  0.00  0.00     0.002 A 
ATOM     24  C   UNL d   1      44.770 -14.303  44.298  0.00  0.00     0.021 A 
ATOM     25  N   UNL d   1      45.075 -15.779  44.237  0.00  0.00    -0.225 NA
ENDBRANCH  16  17
ENDBRANCH  15  16
ENDBRANCH   4  15
TORSDOF 3
ENDMDL
