MODEL 1
REMARK VINA RESULT:      -9.5      0.000      0.000
REMARK  6 active torsions:
REMARK  status: ('A' for Active; 'I' for Inactive)
REMARK    1  A    between atoms: N_3  and  S_1 
REMARK    2  A    between atoms: C_7  and  S_1 
REMARK    3  A    between atoms: C_2  and  N_3 
REMARK    4  A    between atoms: N_9  and  C_5 
REMARK    5  A    between atoms: C_22  and  N_9 
REMARK    6  A    between atoms: C_21  and  C_22 
ROOT
ATOM      1  C   UNL d   1      52.838  32.548  53.271  0.00  0.00     0.211 A 
ATOM      2  N   UNL d   1      53.547  32.422  53.664  0.00  0.00    -0.222 NA
ATOM      3  C   UNL d   1      52.412  33.245  53.394  0.00  0.00     0.200 A 
ATOM      4  N   UNL d   1      52.709  33.819  53.920  0.00  0.00    -0.223 NA
ATOM      5  C   UNL d   1      53.836  32.987  54.179  0.00  0.00     0.101 A 
ATOM      6  C   UNL d   1      53.423  33.686  54.313  0.00  0.00     0.101 A 
ATOM      7  C   UNL d   1      53.719  34.252  54.834  0.00  0.00     0.021 A 
ATOM      8  C   UNL d   1      54.553  32.851  54.572  0.00  0.00     0.021 A 
ATOM      9  C   UNL d   1      54.430  34.116  55.221  0.00  0.00     0.002 A 
ATOM     10  C   UNL d   1      54.846  33.420  55.093  0.00  0.00     0.002 A 
ENDROOT
BRANCH   1  11
ATOM     11  N   UNL d   1      52.547  31.981  52.753  0.00  0.00    -0.136 NA
BRANCH  11  12
ATOM     12  S   UNL d   1      52.879  31.153  52.810  0.00  0.00     0.287 S 
ATOM     13  O   UNL d   1      53.541  30.937  52.253  0.00  0.00    -0.198 OA
ATOM     14  O   UNL d   1      53.316  31.529  52.201  0.00  0.00    -0.198 OA
BRANCH  12  15
ATOM     15  C   UNL d   1      52.701  30.505  53.289  0.00  0.00     0.105 A 
ATOM     16  C   UNL d   1      53.309  30.070  53.648  0.00  0.00     0.013 A 
ATOM     17  C   UNL d   1      53.131  29.415  54.133  0.00  0.00     0.001 A 
ATOM     18  C   UNL d   1      53.736  28.989  54.485  0.00  0.00     0.000 C 
ATOM     19  C   UNL d   1      52.337  29.199  54.253  0.00  0.00     0.000 A 
ATOM     20  C   UNL d   1      51.732  29.636  53.892  0.00  0.00     0.001 A 
ATOM     21  C   UNL d   1      51.910  30.284  53.414  0.00  0.00     0.013 A 
ENDBRANCH  12  15
ENDBRANCH  11  12
ENDBRANCH   1  11
BRANCH   3  22
ATOM     22  N   UNL d   1      51.694  33.379  53.001  0.00  0.00    -0.223 NA
BRANCH  22  23
ATOM     23  C   UNL d   1      51.297  34.106  53.085  0.00  0.00     0.101 C 
BRANCH  23  24
ATOM     24  C   UNL d   1      50.634  34.269  52.622  0.00  0.00     0.021 A 
ATOM     25  C   UNL d   1      50.465  34.137  51.821  0.00  0.00     0.028 A 
ATOM     26  C   UNL d   1      49.729  34.370  51.513  0.00  0.00     0.119 A 
ATOM     27  O   UNL d   1      49.409  34.312  50.754  0.00  0.00    -0.300 OA
ATOM     28  C   UNL d   1      49.175  34.730  52.004  0.00  0.00     0.119 A 
ATOM     29  C   UNL d   1      48.652  34.638  50.774  0.00  0.00     0.304 A 
ATOM     30  O   UNL d   1      48.504  34.897  51.541  0.00  0.00    -0.300 OA
ATOM     31  C   UNL d   1      49.346  34.860  52.798  0.00  0.00     0.026 A 
ATOM     32  C   UNL d   1      50.072  34.632  53.110  0.00  0.00     0.004 A 
ENDBRANCH  23  24
ENDBRANCH  22  23
ENDBRANCH   3  22
TORSDOF 6
ENDMDL
MODEL 2
REMARK VINA RESULT:      -8.3      0.970      3.093
REMARK  6 active torsions:
REMARK  status: ('A' for Active; 'I' for Inactive)
REMARK    1  A    between atoms: N_3  and  S_1 
REMARK    2  A    between atoms: C_7  and  S_1 
REMARK    3  A    between atoms: C_2  and  N_3 
REMARK    4  A    between atoms: N_9  and  C_5 
REMARK    5  A    between atoms: C_22  and  N_9 
REMARK    6  A    between atoms: C_21  and  C_22 
ROOT
ATOM      1  C   UNL d   1      53.282  32.187  53.077  0.00  0.00     0.211 A 
ATOM      2  N   UNL d   1      53.717  31.530  53.304  0.00  0.00    -0.222 NA
ATOM      3  C   UNL d   1      52.470  32.123  52.943  0.00  0.00     0.200 A 
ATOM      4  N   UNL d   1      52.095  31.385  53.042  0.00  0.00    -0.223 NA
ATOM      5  C   UNL d   1      53.347  30.808  53.401  0.00  0.00     0.101 A 
ATOM      6  C   UNL d   1      52.538  30.727  53.272  0.00  0.00     0.101 A 
ATOM      7  C   UNL d   1      52.171  29.996  53.371  0.00  0.00     0.021 A 
ATOM      8  C   UNL d   1      53.794  30.149  53.631  0.00  0.00     0.021 A 
ATOM      9  C   UNL d   1      52.616  29.345  53.599  0.00  0.00     0.002 A 
ATOM     10  C   UNL d   1      53.423  29.419  53.729  0.00  0.00     0.002 A 
ENDROOT
BRANCH   1  11
ATOM     11  N   UNL d   1      53.653  32.913  52.980  0.00  0.00    -0.136 NA
BRANCH  11  12
ATOM     12  S   UNL d   1      54.300  33.133  53.555  0.00  0.00     0.287 S 
ATOM     13  O   UNL d   1      55.141  32.957  53.315  0.00  0.00    -0.198 OA
ATOM     14  O   UNL d   1      54.691  32.795  52.895  0.00  0.00    -0.198 OA
BRANCH  12  15
ATOM     15  C   UNL d   1      54.296  33.482  54.303  0.00  0.00     0.105 A 
ATOM     16  C   UNL d   1      53.856  34.171  54.442  0.00  0.00     0.013 A 
ATOM     17  C   UNL d   1      53.851  34.526  55.197  0.00  0.00     0.001 A 
ATOM     18  C   UNL d   1      53.415  35.206  55.328  0.00  0.00     0.000 C 
ATOM     19  C   UNL d   1      54.293  34.182  55.812  0.00  0.00     0.000 A 
ATOM     20  C   UNL d   1      54.731  33.494  55.670  0.00  0.00     0.001 A 
ATOM     21  C   UNL d   1      54.735  33.144  54.922  0.00  0.00     0.013 A 
ENDBRANCH  12  15
ENDBRANCH  11  12
ENDBRANCH   1  11
BRANCH   3  22
ATOM     22  N   UNL d   1      52.023  32.783  52.713  0.00  0.00    -0.223 NA
BRANCH  22  23
ATOM     23  C   UNL d   1      51.313  32.970  53.106  0.00  0.00     0.101 C 
BRANCH  23  24
ATOM     24  C   UNL d   1      50.766  33.475  52.750  0.00  0.00     0.021 A 
ATOM     25  C   UNL d   1      50.485  33.537  51.972  0.00  0.00     0.028 A 
ATOM     26  C   UNL d   1      49.921  34.118  51.784  0.00  0.00     0.119 A 
ATOM     27  O   UNL d   1      49.547  34.310  51.074  0.00  0.00    -0.300 OA
ATOM     28  C   UNL d   1      49.646  34.627  52.371  0.00  0.00     0.119 A 
ATOM     29  C   UNL d   1      49.036  34.940  51.221  0.00  0.00     0.304 A 
ATOM     30  O   UNL d   1      49.094  35.139  52.017  0.00  0.00    -0.300 OA
ATOM     31  C   UNL d   1      49.927  34.562  53.142  0.00  0.00     0.026 A 
ATOM     32  C   UNL d   1      50.485  33.990  53.334  0.00  0.00     0.004 A 
ENDBRANCH  23  24
ENDBRANCH  22  23
ENDBRANCH   3  22
TORSDOF 6
ENDMDL
