MODEL 1
REMARK VINA RESULT:      -3.3      0.000      0.000
REMARK  9 active torsions:
REMARK  status: ('A' for Active; 'I' for Inactive)
REMARK    1  A    between atoms: C_7  and  C_1 
REMARK    2  A    between atoms: C_9  and  N_2 
REMARK    3  A    between atoms: C_14  and  C_7 
REMARK    4  A    between atoms: C_8  and  C_9 
REMARK       I    between atoms: N_11  and  C_8 
REMARK    5  A    between atoms: C_10  and  N_11 
REMARK    6  A    between atoms: O_30  and  C_19 
REMARK    7  A    between atoms: O_31  and  C_20 
REMARK    8  A    between atoms: C_32  and  C_25 
REMARK    9  A    between atoms: C_33  and  C_29 
ROOT
ATOM      1  C   UNL d   1     -40.248  14.973  20.865  0.00  0.00     0.095 A 
ATOM      2  N   UNL d   1     -41.094  14.184  20.031  0.00  0.00    -0.300 N 
ATOM      3  C   UNL d   1     -39.906  15.315  20.167  0.00  0.00     0.202 A 
ATOM      4  C   UNL d   1     -40.842  14.407  20.797  0.00  0.00     0.087 A 
ATOM      5  C   UNL d   1     -40.177  15.073  19.412  0.00  0.00     0.055 A 
ATOM      6  C   UNL d   1     -40.770  14.509  19.330  0.00  0.00     0.067 A 
ATOM      7  C   UNL d   1     -41.023  14.284  18.577  0.00  0.00     0.018 A 
ATOM      8  C   UNL d   1     -39.844  15.408  18.712  0.00  0.00     0.005 A 
ATOM      9  O   UNL d   1     -39.321  15.873  20.235  0.00  0.00    -0.286 OA
ATOM     10  C   UNL d   1     -40.106  15.174  17.966  0.00  0.00     0.000 A 
ATOM     11  C   UNL d   1     -40.690  14.617  17.899  0.00  0.00     0.002 A 
ENDROOT
BRANCH   2  12
ATOM     12  C   UNL d   1     -41.688  13.618  19.962  0.00  0.00     0.144 C 
BRANCH  12  13
ATOM     13  C   UNL d   1     -42.189  13.470  20.596  0.00  0.00     0.297 C 
ATOM     14  N   UNL d   1     -42.736  12.856  20.554  0.00  0.00    -0.207 NA
ATOM     15  O   UNL d   1     -42.145  13.935  21.271  0.00  0.00    -0.264 OA
BRANCH  14  16
ATOM     16  C   UNL d   1     -43.240  12.709  21.194  0.00  0.00     0.089 A 
ATOM     17  C   UNL d   1     -43.940  13.120  21.260  0.00  0.00     0.043 A 
ATOM     18  C   UNL d   1     -44.441  12.979  21.888  0.00  0.00     0.098 A 
ATOM     19  C   UNL d   1     -44.237  12.413  22.467  0.00  0.00     0.049 A 
ATOM     20  C   UNL d   1     -43.529  12.000  22.396  0.00  0.00     0.098 A 
ATOM     21  C   UNL d   1     -43.025  12.147  21.756  0.00  0.00     0.043 A 
BRANCH  18  22
ATOM     22  O   UNL d   1     -45.145  13.391  21.957  0.00  0.00    -0.328 OA
ATOM     23  C   UNL d   1     -45.855  12.979  22.006  0.00  0.00     0.181 C 
ENDBRANCH  18  22
BRANCH  20  24
ATOM     24  O   UNL d   1     -43.324  11.449  22.953  0.00  0.00    -0.328 OA
ATOM     25  C   UNL d   1     -43.744  10.745  23.011  0.00  0.00     0.181 C 
ENDBRANCH  20  24
ENDBRANCH  14  16
ENDBRANCH  12  13
ENDBRANCH   2  12
BRANCH   1  26
ATOM     26  C   UNL d   1     -39.986  15.206  21.616  0.00  0.00     0.200 C 
ATOM     27  O   UNL d   1     -40.240  15.922  21.934  0.00  0.00    -0.286 OA
BRANCH  26  28
ATOM     28  C   UNL d   1     -39.472  14.724  22.045  0.00  0.00     0.039 A 
ATOM     29  C   UNL d   1     -39.767  14.208  22.627  0.00  0.00     0.003 A 
ATOM     30  C   UNL d   1     -39.251  13.720  23.063  0.00  0.00     0.000 A 
ATOM     31  C   UNL d   1     -38.442  13.748  22.916  0.00  0.00     0.000 A 
ATOM     32  C   UNL d   1     -38.162  14.273  22.327  0.00  0.00     0.000 A 
ATOM     33  C   UNL d   1     -38.678  14.762  21.891  0.00  0.00     0.003 A 
BRANCH  31  34
ATOM     34  C   UNL d   1     -37.940  13.260  23.353  0.00  0.00     0.000 C 
ATOM     35  C   UNL d   1     -38.236  12.539  23.619  0.00  0.00     0.000 C 
ENDBRANCH  31  34
ENDBRANCH  26  28
ENDBRANCH   1  26
BRANCH  10  36
ATOM     36  C   UNL d   1     -39.771  15.509  17.292  0.00  0.00     0.000 C 
ATOM     37  C   UNL d   1     -40.257  15.761  16.667  0.00  0.00     0.000 C 
ENDBRANCH  10  36
TORSDOF 9
ENDMDL
MODEL 2
REMARK VINA RESULT:      -3.0      1.159      3.889
REMARK  9 active torsions:
REMARK  status: ('A' for Active; 'I' for Inactive)
REMARK    1  A    between atoms: C_7  and  C_1 
REMARK    2  A    between atoms: C_9  and  N_2 
REMARK    3  A    between atoms: C_14  and  C_7 
REMARK    4  A    between atoms: C_8  and  C_9 
REMARK       I    between atoms: N_11  and  C_8 
REMARK    5  A    between atoms: C_10  and  N_11 
REMARK    6  A    between atoms: O_30  and  C_19 
REMARK    7  A    between atoms: O_31  and  C_20 
REMARK    8  A    between atoms: C_32  and  C_25 
REMARK    9  A    between atoms: C_33  and  C_29 
ROOT
ATOM      1  C   UNL d   1     -39.634  13.987  19.383  0.00  0.00     0.095 A 
ATOM      2  N   UNL d   1     -40.491  14.458  20.422  0.00  0.00    -0.300 N 
ATOM      3  C   UNL d   1     -38.982  14.028  19.925  0.00  0.00     0.202 A 
ATOM      4  C   UNL d   1     -40.389  14.202  19.632  0.00  0.00     0.087 A 
ATOM      5  C   UNL d   1     -39.111  14.289  20.711  0.00  0.00     0.055 A 
ATOM      6  C   UNL d   1     -39.861  14.506  20.971  0.00  0.00     0.067 A 
ATOM      7  C   UNL d   1     -39.967  14.760  21.750  0.00  0.00     0.018 A 
ATOM      8  C   UNL d   1     -38.469  14.334  21.257  0.00  0.00     0.005 A 
ATOM      9  O   UNL d   1     -38.238  13.816  19.680  0.00  0.00    -0.286 OA
ATOM     10  C   UNL d   1     -38.590  14.589  22.032  0.00  0.00     0.000 A 
ATOM     11  C   UNL d   1     -39.333  14.801  22.276  0.00  0.00     0.002 A 
ENDROOT
BRANCH   2  12
ATOM     12  C   UNL d   1     -41.245  14.673  20.671  0.00  0.00     0.144 C 
BRANCH  12  13
ATOM     13  C   UNL d   1     -41.826  14.100  20.766  0.00  0.00     0.297 C 
ATOM     14  N   UNL d   1     -42.231  14.039  21.479  0.00  0.00    -0.207 NA
ATOM     15  O   UNL d   1     -42.001  13.588  20.148  0.00  0.00    -0.264 OA
BRANCH  14  16
ATOM     16  C   UNL d   1     -42.816  13.460  21.572  0.00  0.00     0.089 A 
ATOM     17  C   UNL d   1     -42.607  12.707  21.802  0.00  0.00     0.043 A 
ATOM     18  C   UNL d   1     -43.179  12.133  21.895  0.00  0.00     0.098 A 
ATOM     19  C   UNL d   1     -43.981  12.316  21.755  0.00  0.00     0.049 A 
ATOM     20  C   UNL d   1     -44.188  13.076  21.523  0.00  0.00     0.098 A 
ATOM     21  C   UNL d   1     -43.603  13.656  21.430  0.00  0.00     0.043 A 
BRANCH  18  22
ATOM     22  O   UNL d   1     -42.971  11.376  22.126  0.00  0.00    -0.328 OA
ATOM     23  C   UNL d   1     -42.919  11.194  22.927  0.00  0.00     0.181 C 
ENDBRANCH  18  22
BRANCH  20  24
ATOM     24  O   UNL d   1     -44.964  13.262  21.385  0.00  0.00    -0.328 OA
ATOM     25  C   UNL d   1     -45.526  13.147  21.973  0.00  0.00     0.181 C 
ENDBRANCH  20  24
ENDBRANCH  14  16
ENDBRANCH  12  13
ENDBRANCH   2  12
BRANCH   1  26
ATOM     26  C   UNL d   1     -39.515  13.730  18.604  0.00  0.00     0.200 C 
ATOM     27  O   UNL d   1     -39.427  12.927  18.447  0.00  0.00    -0.286 OA
BRANCH  26  28
ATOM     28  C   UNL d   1     -39.483  14.277  17.987  0.00  0.00     0.039 A 
ATOM     29  C   UNL d   1     -40.150  14.409  17.508  0.00  0.00     0.003 A 
ATOM     30  C   UNL d   1     -40.122  14.960  16.883  0.00  0.00     0.000 A 
ATOM     31  C   UNL d   1     -39.427  15.378  16.740  0.00  0.00     0.000 A 
ATOM     32  C   UNL d   1     -38.765  15.232  17.231  0.00  0.00     0.000 A 
ATOM     33  C   UNL d   1     -38.793  14.681  17.856  0.00  0.00     0.003 A 
BRANCH  31  34
ATOM     34  C   UNL d   1     -39.410  15.922  16.119  0.00  0.00     0.000 C 
ATOM     35  C   UNL d   1     -38.755  15.918  15.620  0.00  0.00     0.000 C 
ENDBRANCH  31  34
ENDBRANCH  26  28
ENDBRANCH   1  26
BRANCH  10  36
ATOM     36  C   UNL d   1     -37.954  14.628  22.553  0.00  0.00     0.000 C 
ATOM     37  C   UNL d   1     -38.019  15.064  23.258  0.00  0.00     0.000 C 
ENDBRANCH  10  36
TORSDOF 9
ENDMDL
MODEL 3
REMARK VINA RESULT:      -2.2      1.501      6.699
REMARK  9 active torsions:
REMARK  status: ('A' for Active; 'I' for Inactive)
REMARK    1  A    between atoms: C_7  and  C_1 
REMARK    2  A    between atoms: C_9  and  N_2 
REMARK    3  A    between atoms: C_14  and  C_7 
REMARK    4  A    between atoms: C_8  and  C_9 
REMARK       I    between atoms: N_11  and  C_8 
REMARK    5  A    between atoms: C_10  and  N_11 
REMARK    6  A    between atoms: O_30  and  C_19 
REMARK    7  A    between atoms: O_31  and  C_20 
REMARK    8  A    between atoms: C_32  and  C_25 
REMARK    9  A    between atoms: C_33  and  C_29 
ROOT
ATOM      1  C   UNL d   1     -45.404  13.190  22.496  0.00  0.00     0.095 A 
ATOM      2  N   UNL d   1     -44.257  12.726  21.786  0.00  0.00    -0.300 N 
ATOM      3  C   UNL d   1     -45.358  12.499  22.988  0.00  0.00     0.202 A 
ATOM      4  C   UNL d   1     -44.854  13.303  21.895  0.00  0.00     0.087 A 
ATOM      5  C   UNL d   1     -44.750  11.937  22.858  0.00  0.00     0.055 A 
ATOM      6  C   UNL d   1     -44.194  12.039  22.260  0.00  0.00     0.067 A 
ATOM      7  C   UNL d   1     -43.603  11.473  22.148  0.00  0.00     0.018 A 
ATOM      8  C   UNL d   1     -44.696  11.248  23.341  0.00  0.00     0.005 A 
ATOM      9  O   UNL d   1     -45.900  12.387  23.581  0.00  0.00    -0.286 OA
ATOM     10  C   UNL d   1     -44.099  10.691  23.218  0.00  0.00     0.000 A 
ATOM     11  C   UNL d   1     -43.558  10.803  22.626  0.00  0.00     0.002 A 
ENDROOT
BRANCH   2  12
ATOM     12  C   UNL d   1     -43.707  12.840  21.184  0.00  0.00     0.144 C 
BRANCH  12  13
ATOM     13  C   UNL d   1     -43.090  13.372  21.287  0.00  0.00     0.297 C 
ATOM     14  N   UNL d   1     -42.419  13.321  20.813  0.00  0.00    -0.207 NA
ATOM     15  O   UNL d   1     -43.143  13.955  21.864  0.00  0.00    -0.264 OA
BRANCH  14  16
ATOM     16  C   UNL d   1     -41.798  13.859  20.920  0.00  0.00     0.089 A 
ATOM     17  C   UNL d   1     -41.164  13.658  21.390  0.00  0.00     0.043 A 
ATOM     18  C   UNL d   1     -40.550  14.183  21.498  0.00  0.00     0.098 A 
ATOM     19  C   UNL d   1     -40.569  14.931  21.126  0.00  0.00     0.049 A 
ATOM     20  C   UNL d   1     -41.211  15.130  20.652  0.00  0.00     0.098 A 
ATOM     21  C   UNL d   1     -41.832  14.592  20.546  0.00  0.00     0.043 A 
BRANCH  18  22
ATOM     22  O   UNL d   1     -39.912  13.983  21.970  0.00  0.00    -0.328 OA
ATOM     23  C   UNL d   1     -39.184  13.819  21.623  0.00  0.00     0.181 C 
ENDBRANCH  18  22
BRANCH  20  24
ATOM     24  O   UNL d   1     -41.237  15.853  20.288  0.00  0.00    -0.328 OA
ATOM     25  C   UNL d   1     -41.035  15.922  19.494  0.00  0.00     0.181 C 
ENDBRANCH  20  24
ENDBRANCH  14  16
ENDBRANCH  12  13
ENDBRANCH   2  12
BRANCH   1  26
ATOM     26  C   UNL d   1     -46.002  13.750  22.619  0.00  0.00     0.200 C 
ATOM     27  O   UNL d   1     -45.828  14.456  23.004  0.00  0.00    -0.286 OA
BRANCH  26  28
ATOM     28  C   UNL d   1     -46.771  13.602  22.357  0.00  0.00     0.039 A 
ATOM     29  C   UNL d   1     -46.908  13.362  21.572  0.00  0.00     0.003 A 
ATOM     30  C   UNL d   1     -47.682  13.211  21.303  0.00  0.00     0.000 A 
ATOM     31  C   UNL d   1     -48.317  13.302  21.819  0.00  0.00     0.000 A 
ATOM     32  C   UNL d   1     -48.161  13.545  22.605  0.00  0.00     0.000 A 
ATOM     33  C   UNL d   1     -47.387  13.695  22.874  0.00  0.00     0.003 A 
BRANCH  31  34
ATOM     34  C   UNL d   1     -49.081  13.151  21.543  0.00  0.00     0.000 C 
ATOM     35  C   UNL d   1     -49.327  12.366  21.499  0.00  0.00     0.000 C 
ENDBRANCH  31  34
ENDBRANCH  26  28
ENDBRANCH   1  26
BRANCH  10  36
ATOM     36  C   UNL d   1     -44.059  10.023  23.698  0.00  0.00     0.000 C 
ATOM     37  C   UNL d   1     -43.922   9.275  23.361  0.00  0.00     0.000 C 
ENDBRANCH  10  36
TORSDOF 9
ENDMDL
MODEL 4
REMARK VINA RESULT:      -1.8      3.448      6.957
REMARK  9 active torsions:
REMARK  status: ('A' for Active; 'I' for Inactive)
REMARK    1  A    between atoms: C_7  and  C_1 
REMARK    2  A    between atoms: C_9  and  N_2 
REMARK    3  A    between atoms: C_14  and  C_7 
REMARK    4  A    between atoms: C_8  and  C_9 
REMARK       I    between atoms: N_11  and  C_8 
REMARK    5  A    between atoms: C_10  and  N_11 
REMARK    6  A    between atoms: O_30  and  C_19 
REMARK    7  A    between atoms: O_31  and  C_20 
REMARK    8  A    between atoms: C_32  and  C_25 
REMARK    9  A    between atoms: C_33  and  C_29 
ROOT
ATOM      1  C   UNL d   1     -45.670  12.091  22.883  0.00  0.00     0.095 A 
ATOM      2  N   UNL d   1     -45.602  13.482  22.575  0.00  0.00    -0.300 N 
ATOM      3  C   UNL d   1     -44.944  11.978  22.458  0.00  0.00     0.202 A 
ATOM      4  C   UNL d   1     -46.000  12.843  22.941  0.00  0.00     0.087 A 
ATOM      5  C   UNL d   1     -44.566  12.635  22.100  0.00  0.00     0.055 A 
ATOM      6  C   UNL d   1     -44.886  13.392  22.151  0.00  0.00     0.067 A 
ATOM      7  C   UNL d   1     -44.498  14.026  21.791  0.00  0.00     0.018 A 
ATOM      8  C   UNL d   1     -43.845  12.533  21.675  0.00  0.00     0.005 A 
ATOM      9  O   UNL d   1     -44.619  11.237  22.400  0.00  0.00    -0.286 OA
ATOM     10  C   UNL d   1     -43.468  13.177  21.321  0.00  0.00     0.000 A 
ATOM     11  C   UNL d   1     -43.792  13.917  21.378  0.00  0.00     0.002 A 
ENDROOT
BRANCH   2  12
ATOM     12  C   UNL d   1     -45.932  14.234  22.633  0.00  0.00     0.144 C 
BRANCH  12  13
ATOM     13  C   UNL d   1     -46.743  14.321  22.725  0.00  0.00     0.297 C 
ATOM     14  N   UNL d   1     -47.193  14.646  22.117  0.00  0.00    -0.207 NA
ATOM     15  O   UNL d   1     -47.105  14.084  23.423  0.00  0.00    -0.264 OA
BRANCH  14  16
ATOM     16  C   UNL d   1     -48.012  14.733  22.212  0.00  0.00     0.089 A 
ATOM     17  C   UNL d   1     -48.515  14.508  21.613  0.00  0.00     0.043 A 
ATOM     18  C   UNL d   1     -49.321  14.591  21.701  0.00  0.00     0.098 A 
ATOM     19  C   UNL d   1     -49.634  14.908  22.407  0.00  0.00     0.049 A 
ATOM     20  C   UNL d   1     -49.123  15.134  23.009  0.00  0.00     0.098 A 
ATOM     21  C   UNL d   1     -48.304  15.048  22.914  0.00  0.00     0.043 A 
BRANCH  18  22
ATOM     22  O   UNL d   1     -49.829  14.365  21.100  0.00  0.00    -0.328 OA
ATOM     23  C   UNL d   1     -50.543  13.999  21.285  0.00  0.00     0.181 C 
ENDBRANCH  18  22
BRANCH  20  24
ATOM     24  O   UNL d   1     -49.418  15.443  23.698  0.00  0.00    -0.328 OA
ATOM     25  C   UNL d   1     -50.086  15.921  23.682  0.00  0.00     0.181 C 
ENDBRANCH  20  24
ENDBRANCH  14  16
ENDBRANCH  12  13
ENDBRANCH   2  12
BRANCH   1  26
ATOM     26  C   UNL d   1     -46.049  11.446  23.240  0.00  0.00     0.200 C 
ATOM     27  O   UNL d   1     -45.614  10.915  23.693  0.00  0.00    -0.286 OA
BRANCH  26  28
ATOM     28  C   UNL d   1     -46.861  11.335  23.141  0.00  0.00     0.039 A 
ATOM     29  C   UNL d   1     -47.152  10.921  22.481  0.00  0.00     0.003 A 
ATOM     30  C   UNL d   1     -47.971  10.807  22.378  0.00  0.00     0.000 A 
ATOM     31  C   UNL d   1     -48.497  11.107  22.935  0.00  0.00     0.000 A 
ATOM     32  C   UNL d   1     -48.188  11.521  23.593  0.00  0.00     0.000 A 
ATOM     33  C   UNL d   1     -47.369  11.635  23.697  0.00  0.00     0.003 A 
BRANCH  31  34
ATOM     34  C   UNL d   1     -49.307  10.988  22.824  0.00  0.00     0.000 C 
ATOM     35  C   UNL d   1     -49.829  11.426  23.285  0.00  0.00     0.000 C 
ENDBRANCH  31  34
ENDBRANCH  26  28
ENDBRANCH   1  26
BRANCH  10  36
ATOM     36  C   UNL d   1     -42.764  13.062  20.909  0.00  0.00     0.000 C 
ATOM     37  C   UNL d   1     -42.045  13.324  21.234  0.00  0.00     0.000 C 
ENDBRANCH  10  36
TORSDOF 9
ENDMDL
