MODEL 1
REMARK VINA RESULT:      47.4      0.000      0.000
REMARK  7 active torsions:
REMARK  status: ('A' for Active; 'I' for Inactive)
REMARK    1  A    between atoms: S_9  and  C_2 
REMARK    2  A    between atoms: C_6  and  C_8 
REMARK       I    between atoms: N_7  and  C_6 
REMARK    3  A    between atoms: C_11  and  N_7 
REMARK    4  A    between atoms: C_8  and  C_12 
REMARK    5  A    between atoms: C_12  and  S_9 
REMARK    6  A    between atoms: O_18  and  C_13 
REMARK    7  A    between atoms: C_20  and  O_18 
ROOT
ATOM      1  C   UNL d   1     -48.323  28.678  35.579  0.00  0.00     0.280 C 
ATOM      2  N   UNL d   1     -47.994  29.341  35.944  0.00  0.00    -0.208 NA
ATOM      3  O   UNL d   1     -48.485  27.999  36.025  0.00  0.00    -0.265 OA
ENDROOT
BRANCH   1   4
ATOM      4  C   UNL d   1     -48.490  28.690  34.770  0.00  0.00     0.070 C 
BRANCH   4   5
ATOM      5  C   UNL d   1     -48.815  28.026  34.405  0.00  0.00     0.042 C 
BRANCH   5   6
ATOM      6  S   UNL d   1     -49.404  28.116  33.820  0.00  0.00    -0.059 SA
BRANCH   6   7
ATOM      7  C   UNL d   1     -49.913  27.490  33.646  0.00  0.00     0.164 A 
ATOM      8  S   UNL d   1     -50.735  27.437  33.607  0.00  0.00    -0.039 SA
ATOM      9  C   UNL d   1     -50.935  26.668  33.407  0.00  0.00     0.134 A 
ATOM     10  N   UNL d   1     -50.239  26.229  33.319  0.00  0.00    -0.140 NA
ATOM     11  C   UNL d   1     -51.711  26.375  33.308  0.00  0.00     0.030 C 
ATOM     12  N   UNL d   1     -49.603  26.746  33.469  0.00  0.00    -0.134 NA
ENDBRANCH   6   7
ENDBRANCH   5   6
ENDBRANCH   4   5
ENDBRANCH   1   4
BRANCH   2  13
ATOM     13  C   UNL d   1     -47.828  30.029  35.498  0.00  0.00     0.085 A 
ATOM     14  C   UNL d   1     -48.341  30.257  34.892  0.00  0.00     0.021 A 
ATOM     15  C   UNL d   1     -48.183  30.933  34.448  0.00  0.00     0.026 A 
ATOM     16  C   UNL d   1     -47.510  31.383  34.611  0.00  0.00     0.100 A 
ATOM     17  C   UNL d   1     -46.997  31.156  35.217  0.00  0.00     0.026 A 
ATOM     18  C   UNL d   1     -47.156  30.477  35.661  0.00  0.00     0.021 A 
BRANCH  16  19
ATOM     19  O   UNL d   1     -47.352  32.074  34.156  0.00  0.00    -0.305 OA
BRANCH  19  20
ATOM     20  C   UNL d   1     -47.950  32.629  34.023  0.00  0.00     0.123 C 
ATOM     21  C   UNL d   1     -47.845  33.217  33.454  0.00  0.00     0.029 C 
ENDBRANCH  19  20
ENDBRANCH  16  19
ENDBRANCH   2  13
TORSDOF 7
ENDMDL
