MODEL 1
REMARK VINA RESULT:      53.0      0.000      0.000
REMARK  3 active torsions:
REMARK  status: ('A' for Active; 'I' for Inactive)
REMARK    1  A    between atoms: N_2  and  S_1 
REMARK    2  A    between atoms: C_3  and  S_1 
REMARK    3  A    between atoms: C_10  and  C_9 
ROOT
ATOM      1  C   UNL d   1      13.374  13.301  -4.114  0.00  0.00     0.104 A 
ATOM      2  C   UNL d   1      13.999  14.825  -3.952  0.00  0.00     0.000 A 
ATOM      3  C   UNL d   1      14.171  13.439  -4.265  0.00  0.00     0.013 A 
ATOM      4  C   UNL d   1      12.884  13.926  -3.881  0.00  0.00     0.013 A 
ATOM      5  C   UNL d   1      13.197  14.689  -3.800  0.00  0.00     0.001 A 
ATOM      6  C   UNL d   1      14.484  14.202  -4.184  0.00  0.00     0.001 A 
ENDROOT
BRANCH   1   7
ATOM      7  S   UNL d   1      13.070  12.540  -4.196  0.00  0.00     0.271 S 
ATOM      8  O   UNL d   1      12.798  12.720  -4.944  0.00  0.00    -0.200 OA
ATOM      9  O   UNL d   1      12.770  11.779  -4.271  0.00  0.00    -0.200 OA
BRANCH   7  10
ATOM     10  N   UNL d   1      13.342  12.348  -3.441  0.00  0.00    -0.226 N 
ATOM     11  C   UNL d   1      12.811  12.369  -2.802  0.00  0.00     0.111 A 
ATOM     12  C   UNL d   1      13.081  12.178  -2.047  0.00  0.00     0.100 A 
ATOM     13  N   UNL d   1      13.868  11.971  -1.937  0.00  0.00    -0.299 N 
ATOM     14  C   UNL d   1      14.393  11.949  -2.565  0.00  0.00     0.100 A 
ATOM     15  C   UNL d   1      14.134  11.779  -1.171  0.00  0.00     0.100 C 
ATOM     16  C   UNL d   1      14.127  12.140  -3.321  0.00  0.00     0.111 A 
ENDBRANCH   7  10
ENDBRANCH   1   7
BRANCH   2  17
ATOM     17  C   UNL d   1      14.316  15.578  -3.874  0.00  0.00     0.000 A 
ATOM     18  C   UNL d   1      14.349  16.088  -4.520  0.00  0.00     0.001 A 
ATOM     19  C   UNL d   1      14.669  16.843  -4.434  0.00  0.00     0.011 A 
ATOM     20  C   UNL d   1      14.956  17.089  -3.702  0.00  0.00     0.058 A 
ATOM     21  C   UNL d   1      14.920  16.570  -3.049  0.00  0.00     0.011 A 
ATOM     22 CL   UNL d   1      15.273  17.837  -3.617  0.00  0.00    -0.082 Cl
ATOM     23  C   UNL d   1      14.602  15.824  -3.142  0.00  0.00     0.001 A 
ENDBRANCH   2  17
TORSDOF 3
ENDMDL
