MODEL 1
REMARK VINA RESULT:      -7.7      0.000      0.000
REMARK  4 active torsions:
REMARK  status: ('A' for Active; 'I' for Inactive)
REMARK    1  A    between atoms: C_10  and  N_4 
REMARK    2  A    between atoms: C_11  and  C_10 
REMARK       I    between atoms: N_15  and  C_11 
REMARK    3  A    between atoms: C_12  and  C_20 
REMARK    4  A    between atoms: C_20  and  N_15 
ROOT
ATOM      1  C   UNL d   1     -48.475  13.994  22.590  0.00  0.00     0.174 A 
ATOM      2  C   UNL d   1     -48.830  13.257  22.522  0.00  0.00     0.112 A 
ATOM      3  C   UNL d   1     -47.696  14.061  22.846  0.00  0.00     0.290 A 
ATOM      4  N   UNL d   1     -47.270  13.382  23.037  0.00  0.00    -0.249 N 
ATOM      5  O   UNL d   1     -49.031  14.564  22.363  0.00  0.00    -0.301 OA
ATOM      6  N   UNL d   1     -48.405  12.578  22.713  0.00  0.00    -0.223 NA
ATOM      7  C   UNL d   1     -49.603  13.366  22.255  0.00  0.00     0.043 A 
ATOM      8  C   UNL d   1     -47.623  12.637  22.971  0.00  0.00     0.185 A 
ATOM      9  C   UNL d   1     -49.726  14.178  22.157  0.00  0.00     0.102 A 
ATOM     10  O   UNL d   1     -47.339  14.800  22.914  0.00  0.00    -0.264 OA
ATOM     11  C   UNL d   1     -50.207  12.832  22.090  0.00  0.00     0.004 A 
ATOM     12  C   UNL d   1     -50.459  14.449  21.892  0.00  0.00     0.025 A 
ATOM     13  C   UNL d   1     -50.945  13.104  21.823  0.00  0.00     0.000 A 
ATOM     14  C   UNL d   1     -51.064  13.916  21.726  0.00  0.00     0.002 A 
ENDROOT
BRANCH   4  15
ATOM     15  C   UNL d   1     -46.485  13.436  23.296  0.00  0.00     0.147 C 
BRANCH  15  16
ATOM     16  C   UNL d   1     -45.954  12.823  23.154  0.00  0.00     0.297 C 
ATOM     17  N   UNL d   1     -45.353  12.938  22.617  0.00  0.00    -0.203 NA
ATOM     18  O   UNL d   1     -46.030  12.103  23.549  0.00  0.00    -0.264 OA
BRANCH  17  19
ATOM     19  C   UNL d   1     -44.815  12.331  22.467  0.00  0.00     0.127 C 
BRANCH  19  20
ATOM     20  C   UNL d   1     -44.143  12.487  22.012  0.00  0.00     0.119 A 
ATOM     21  O   UNL d   1     -43.382  12.190  22.133  0.00  0.00    -0.304 OA
ATOM     22  C   UNL d   1     -42.883  12.496  21.540  0.00  0.00     0.123 A 
ATOM     23  C   UNL d   1     -43.341  12.985  21.049  0.00  0.00     0.029 A 
ATOM     24  C   UNL d   1     -44.117  12.983  21.336  0.00  0.00     0.028 A 
ENDBRANCH  19  20
ENDBRANCH  17  19
ENDBRANCH  15  16
ENDBRANCH   4  15
TORSDOF 4
ENDMDL
MODEL 2
REMARK VINA RESULT:      -6.6      1.158      5.305
REMARK  4 active torsions:
REMARK  status: ('A' for Active; 'I' for Inactive)
REMARK    1  A    between atoms: C_10  and  N_4 
REMARK    2  A    between atoms: C_11  and  C_10 
REMARK       I    between atoms: N_15  and  C_11 
REMARK    3  A    between atoms: C_12  and  C_20 
REMARK    4  A    between atoms: C_20  and  N_15 
ROOT
ATOM      1  C   UNL d   1     -45.555  12.324  22.832  0.00  0.00     0.174 A 
ATOM      2  C   UNL d   1     -45.359  12.936  22.321  0.00  0.00     0.112 A 
ATOM      3  C   UNL d   1     -46.297  12.294  23.186  0.00  0.00     0.290 A 
ATOM      4  N   UNL d   1     -46.847  12.886  23.026  0.00  0.00    -0.249 N 
ATOM      5  O   UNL d   1     -44.899  11.820  22.884  0.00  0.00    -0.301 OA
ATOM      6  N   UNL d   1     -45.910  13.527  22.161  0.00  0.00    -0.223 NA
ATOM      7  C   UNL d   1     -44.587  12.816  22.056  0.00  0.00     0.043 A 
ATOM      8  C   UNL d   1     -46.656  13.505  22.512  0.00  0.00     0.185 A 
ATOM      9  C   UNL d   1     -44.303  12.123  22.407  0.00  0.00     0.102 A 
ATOM     10  O   UNL d   1     -46.492  11.680  23.698  0.00  0.00    -0.264 OA
ATOM     11  C   UNL d   1     -44.109  13.247  21.543  0.00  0.00     0.004 A 
ATOM     12  C   UNL d   1     -43.537  11.866  22.239  0.00  0.00     0.025 A 
ATOM     13  C   UNL d   1     -43.339  12.990  21.374  0.00  0.00     0.000 A 
ATOM     14  C   UNL d   1     -43.058  12.297  21.726  0.00  0.00     0.002 A 
ENDROOT
BRANCH   4  15
ATOM     15  C   UNL d   1     -47.598  12.868  23.376  0.00  0.00     0.147 C 
BRANCH  15  16
ATOM     16  C   UNL d   1     -48.261  13.117  22.957  0.00  0.00     0.297 C 
ATOM     17  N   UNL d   1     -48.741  13.690  23.283  0.00  0.00    -0.203 NA
ATOM     18  O   UNL d   1     -48.437  12.793  22.220  0.00  0.00    -0.264 OA
BRANCH  17  19
ATOM     19  C   UNL d   1     -49.408  13.947  22.872  0.00  0.00     0.127 C 
BRANCH  19  20
ATOM     20  C   UNL d   1     -49.824  14.607  23.144  0.00  0.00     0.119 A 
ATOM     21  O   UNL d   1     -49.578  15.395  23.120  0.00  0.00    -0.304 OA
ATOM     22  C   UNL d   1     -50.175  15.869  23.456  0.00  0.00     0.123 A 
ATOM     23  C   UNL d   1     -50.795  15.368  23.690  0.00  0.00     0.029 A 
ATOM     24  C   UNL d   1     -50.584  14.591  23.500  0.00  0.00     0.028 A 
ENDBRANCH  19  20
ENDBRANCH  17  19
ENDBRANCH  15  16
ENDBRANCH   4  15
TORSDOF 4
ENDMDL
MODEL 3
REMARK VINA RESULT:      -6.3      7.744      9.670
REMARK  4 active torsions:
REMARK  status: ('A' for Active; 'I' for Inactive)
REMARK    1  A    between atoms: C_10  and  N_4 
REMARK    2  A    between atoms: C_11  and  C_10 
REMARK       I    between atoms: N_15  and  C_11 
REMARK    3  A    between atoms: C_12  and  C_20 
REMARK    4  A    between atoms: C_20  and  N_15 
ROOT
ATOM      1  C   UNL d   1     -39.428  14.371  17.312  0.00  0.00     0.174 A 
ATOM      2  C   UNL d   1     -39.254  15.167  17.219  0.00  0.00     0.112 A 
ATOM      3  C   UNL d   1     -39.874  14.112  17.954  0.00  0.00     0.290 A 
ATOM      4  N   UNL d   1     -40.146  14.658  18.507  0.00  0.00    -0.249 N 
ATOM      5  O   UNL d   1     -39.085  13.961  16.679  0.00  0.00    -0.301 OA
ATOM      6  N   UNL d   1     -39.526  15.713  17.771  0.00  0.00    -0.223 NA
ATOM      7  C   UNL d   1     -38.804  15.255  16.532  0.00  0.00     0.043 A 
ATOM      8  C   UNL d   1     -39.974  15.462  18.418  0.00  0.00     0.185 A 
ATOM      9  C   UNL d   1     -38.700  14.505  16.199  0.00  0.00     0.102 A 
ATOM     10  O   UNL d   1     -40.048  13.313  18.047  0.00  0.00    -0.264 OA
ATOM     11  C   UNL d   1     -38.478  15.919  16.171  0.00  0.00     0.004 A 
ATOM     12  C   UNL d   1     -38.268  14.427  15.501  0.00  0.00     0.025 A 
ATOM     13  C   UNL d   1     -38.043  15.841  15.469  0.00  0.00     0.000 A 
ATOM     14  C   UNL d   1     -37.941  15.091  15.138  0.00  0.00     0.002 A 
ENDROOT
BRANCH   4  15
ATOM     15  C   UNL d   1     -40.596  14.411  19.157  0.00  0.00     0.147 C 
BRANCH  15  16
ATOM     16  C   UNL d   1     -40.522  14.788  19.885  0.00  0.00     0.297 C 
ATOM     17  N   UNL d   1     -40.096  14.425  20.477  0.00  0.00    -0.203 NA
ATOM     18  O   UNL d   1     -40.873  15.523  20.013  0.00  0.00    -0.264 OA
BRANCH  17  19
ATOM     19  C   UNL d   1     -40.016  14.794  21.209  0.00  0.00     0.127 C 
BRANCH  19  20
ATOM     20  C   UNL d   1     -39.553  14.439  21.795  0.00  0.00     0.119 A 
ATOM     21  O   UNL d   1     -39.507  13.634  21.973  0.00  0.00    -0.304 OA
ATOM     22  C   UNL d   1     -38.972  13.533  22.603  0.00  0.00     0.123 A 
ATOM     23  C   UNL d   1     -38.684  14.283  22.815  0.00  0.00     0.029 A 
ATOM     24  C   UNL d   1     -39.039  14.844  22.321  0.00  0.00     0.028 A 
ENDBRANCH  19  20
ENDBRANCH  17  19
ENDBRANCH  15  16
ENDBRANCH   4  15
TORSDOF 4
ENDMDL
MODEL 4
REMARK VINA RESULT:      -6.1      2.170      3.781
REMARK  4 active torsions:
REMARK  status: ('A' for Active; 'I' for Inactive)
REMARK    1  A    between atoms: C_10  and  N_4 
REMARK    2  A    between atoms: C_11  and  C_10 
REMARK       I    between atoms: N_15  and  C_11 
REMARK    3  A    between atoms: C_12  and  C_20 
REMARK    4  A    between atoms: C_20  and  N_15 
ROOT
ATOM      1  C   UNL d   1     -45.152  12.199  22.789  0.00  0.00     0.174 A 
ATOM      2  C   UNL d   1     -45.550  12.846  22.480  0.00  0.00     0.112 A 
ATOM      3  C   UNL d   1     -44.373  12.044  22.575  0.00  0.00     0.290 A 
ATOM      4  N   UNL d   1     -43.990  12.544  22.045  0.00  0.00    -0.249 N 
ATOM      5  O   UNL d   1     -45.672  11.804  23.300  0.00  0.00    -0.301 OA
ATOM      6  N   UNL d   1     -45.167  13.346  21.950  0.00  0.00    -0.223 NA
ATOM      7  C   UNL d   1     -46.313  12.856  22.794  0.00  0.00     0.043 A 
ATOM      8  C   UNL d   1     -44.386  13.198  21.729  0.00  0.00     0.185 A 
ATOM      9  C   UNL d   1     -46.386  12.208  23.303  0.00  0.00     0.102 A 
ATOM     10  O   UNL d   1     -43.974  11.394  22.886  0.00  0.00    -0.264 OA
ATOM     11  C   UNL d   1     -46.946  13.370  22.682  0.00  0.00     0.004 A 
ATOM     12  C   UNL d   1     -47.099  12.080  23.698  0.00  0.00     0.025 A 
ATOM     13  C   UNL d   1     -47.663  13.242  23.079  0.00  0.00     0.000 A 
ATOM     14  C   UNL d   1     -47.733  12.594  23.587  0.00  0.00     0.002 A 
ENDROOT
BRANCH   4  15
ATOM     15  C   UNL d   1     -43.206  12.399  21.821  0.00  0.00     0.147 C 
BRANCH  15  16
ATOM     16  C   UNL d   1     -42.859  12.827  21.208  0.00  0.00     0.297 C 
ATOM     17  N   UNL d   1     -42.243  13.333  21.379  0.00  0.00    -0.203 NA
ATOM     18  O   UNL d   1     -43.132  12.745  20.434  0.00  0.00    -0.264 OA
BRANCH  17  19
ATOM     19  C   UNL d   1     -41.890  13.766  20.773  0.00  0.00     0.127 C 
BRANCH  19  20
ATOM     20  C   UNL d   1     -41.239  14.245  20.943  0.00  0.00     0.119 A 
ATOM     21  O   UNL d   1     -40.490  13.999  21.190  0.00  0.00    -0.304 OA
ATOM     22  C   UNL d   1     -40.011  14.673  21.295  0.00  0.00     0.123 A 
ATOM     23  C   UNL d   1     -40.470  15.341  21.111  0.00  0.00     0.029 A 
ATOM     24  C   UNL d   1     -41.225  15.084  20.894  0.00  0.00     0.028 A 
ENDBRANCH  19  20
ENDBRANCH  17  19
ENDBRANCH  15  16
ENDBRANCH   4  15
TORSDOF 4
ENDMDL
MODEL 5
REMARK VINA RESULT:      -5.7      7.348      9.716
REMARK  4 active torsions:
REMARK  status: ('A' for Active; 'I' for Inactive)
REMARK    1  A    between atoms: C_10  and  N_4 
REMARK    2  A    between atoms: C_11  and  C_10 
REMARK       I    between atoms: N_15  and  C_11 
REMARK    3  A    between atoms: C_12  and  C_20 
REMARK    4  A    between atoms: C_20  and  N_15 
ROOT
ATOM      1  C   UNL d   1     -40.398  14.570  18.742  0.00  0.00     0.174 A 
ATOM      2  C   UNL d   1     -39.798  14.773  19.264  0.00  0.00     0.112 A 
ATOM      3  C   UNL d   1     -40.307  14.689  17.933  0.00  0.00     0.290 A 
ATOM      4  N   UNL d   1     -39.607  15.015  17.645  0.00  0.00    -0.249 N 
ATOM      5  O   UNL d   1     -41.025  14.261  19.186  0.00  0.00    -0.301 OA
ATOM      6  N   UNL d   1     -39.098  15.098  18.976  0.00  0.00    -0.223 NA
ATOM      7  C   UNL d   1     -40.048  14.591  20.029  0.00  0.00     0.043 A 
ATOM      8  C   UNL d   1     -38.999  15.220  18.167  0.00  0.00     0.185 A 
ATOM      9  C   UNL d   1     -40.810  14.273  19.978  0.00  0.00     0.102 A 
ATOM     10  O   UNL d   1     -40.909  14.486  17.409  0.00  0.00    -0.264 OA
ATOM     11  C   UNL d   1     -39.680  14.674  20.760  0.00  0.00     0.004 A 
ATOM     12  C   UNL d   1     -41.199  14.039  20.667  0.00  0.00     0.025 A 
ATOM     13  C   UNL d   1     -40.072  14.439  21.454  0.00  0.00     0.000 A 
ATOM     14  C   UNL d   1     -40.832  14.122  21.400  0.00  0.00     0.002 A 
ENDROOT
BRANCH   4  15
ATOM     15  C   UNL d   1     -39.503  15.139  16.833  0.00  0.00     0.147 C 
BRANCH  15  16
ATOM     16  C   UNL d   1     -38.771  15.006  16.479  0.00  0.00     0.297 C 
ATOM     17  N   UNL d   1     -38.733  14.533  15.817  0.00  0.00    -0.203 NA
ATOM     18  O   UNL d   1     -38.088  15.346  16.791  0.00  0.00    -0.264 OA
BRANCH  17  19
ATOM     19  C   UNL d   1     -38.006  14.393  15.455  0.00  0.00     0.127 C 
BRANCH  19  20
ATOM     20  C   UNL d   1     -37.980  13.973  14.744  0.00  0.00     0.119 A 
ATOM     21  O   UNL d   1     -37.964  14.287  13.981  0.00  0.00    -0.304 OA
ATOM     22  C   UNL d   1     -37.940  13.658  13.436  0.00  0.00     0.123 A 
ATOM     23  C   UNL d   1     -37.940  12.948  13.868  0.00  0.00     0.029 A 
ATOM     24  C   UNL d   1     -37.965  13.136  14.673  0.00  0.00     0.028 A 
ENDBRANCH  19  20
ENDBRANCH  17  19
ENDBRANCH  15  16
ENDBRANCH   4  15
TORSDOF 4
ENDMDL
MODEL 6
REMARK VINA RESULT:      -5.3      8.088      9.444
REMARK  4 active torsions:
REMARK  status: ('A' for Active; 'I' for Inactive)
REMARK    1  A    between atoms: C_10  and  N_4 
REMARK    2  A    between atoms: C_11  and  C_10 
REMARK       I    between atoms: N_15  and  C_11 
REMARK    3  A    between atoms: C_12  and  C_20 
REMARK    4  A    between atoms: C_20  and  N_15 
ROOT
ATOM      1  C   UNL d   1     -38.891  15.037  20.633  0.00  0.00     0.174 A 
ATOM      2  C   UNL d   1     -39.518  14.557  20.856  0.00  0.00     0.112 A 
ATOM      3  C   UNL d   1     -38.907  15.440  19.916  0.00  0.00     0.290 A 
ATOM      4  N   UNL d   1     -39.559  15.361  19.419  0.00  0.00    -0.249 N 
ATOM      5  O   UNL d   1     -38.324  15.008  21.236  0.00  0.00    -0.301 OA
ATOM      6  N   UNL d   1     -40.170  14.477  20.359  0.00  0.00    -0.223 NA
ATOM      7  C   UNL d   1     -39.345  14.230  21.594  0.00  0.00     0.043 A 
ATOM      8  C   UNL d   1     -40.194  14.878  19.638  0.00  0.00     0.185 A 
ATOM      9  C   UNL d   1     -38.603  14.511  21.828  0.00  0.00     0.102 A 
ATOM     10  O   UNL d   1     -38.278  15.922  19.693  0.00  0.00    -0.264 OA
ATOM     11  C   UNL d   1     -39.765  13.715  22.079  0.00  0.00     0.004 A 
ATOM     12  C   UNL d   1     -38.287  14.272  22.552  0.00  0.00     0.025 A 
ATOM     13  C   UNL d   1     -39.448  13.474  22.807  0.00  0.00     0.000 A 
ATOM     14  C   UNL d   1     -38.707  13.757  23.038  0.00  0.00     0.002 A 
ENDROOT
BRANCH   4  15
ATOM     15  C   UNL d   1     -39.587  15.762  18.694  0.00  0.00     0.147 C 
BRANCH  15  16
ATOM     16  C   UNL d   1     -39.806  15.366  18.006  0.00  0.00     0.297 C 
ATOM     17  N   UNL d   1     -39.223  15.072  17.517  0.00  0.00    -0.203 NA
ATOM     18  O   UNL d   1     -40.602  15.270  17.813  0.00  0.00    -0.264 OA
BRANCH  17  19
ATOM     19  C   UNL d   1     -39.431  14.675  16.826  0.00  0.00     0.127 C 
BRANCH  19  20
ATOM     20  C   UNL d   1     -38.851  14.271  16.399  0.00  0.00     0.119 A 
ATOM     21  O   UNL d   1     -38.491  13.556  16.603  0.00  0.00    -0.304 OA
ATOM     22  C   UNL d   1     -37.940  13.359  16.010  0.00  0.00     0.123 A 
ATOM     23  C   UNL d   1     -37.960  13.958  15.435  0.00  0.00     0.029 A 
ATOM     24  C   UNL d   1     -38.519  14.521  15.670  0.00  0.00     0.028 A 
ENDBRANCH  19  20
ENDBRANCH  17  19
ENDBRANCH  15  16
ENDBRANCH   4  15
TORSDOF 4
ENDMDL
MODEL 7
REMARK VINA RESULT:      -4.9      1.439      1.996
REMARK  4 active torsions:
REMARK  status: ('A' for Active; 'I' for Inactive)
REMARK    1  A    between atoms: C_10  and  N_4 
REMARK    2  A    between atoms: C_11  and  C_10 
REMARK       I    between atoms: N_15  and  C_11 
REMARK    3  A    between atoms: C_12  and  C_20 
REMARK    4  A    between atoms: C_20  and  N_15 
ROOT
ATOM      1  C   UNL d   1     -47.428  13.089  22.915  0.00  0.00     0.174 A 
ATOM      2  C   UNL d   1     -47.426  12.278  23.040  0.00  0.00     0.112 A 
ATOM      3  C   UNL d   1     -46.741  13.479  22.682  0.00  0.00     0.290 A 
ATOM      4  N   UNL d   1     -46.047  13.049  22.574  0.00  0.00    -0.249 N 
ATOM      5  O   UNL d   1     -48.194  13.366  23.065  0.00  0.00    -0.301 OA
ATOM      6  N   UNL d   1     -46.732  11.849  22.932  0.00  0.00    -0.223 NA
ATOM      7  C   UNL d   1     -48.186  12.050  23.267  0.00  0.00     0.043 A 
ATOM      8  C   UNL d   1     -46.039  12.232  22.698  0.00  0.00     0.185 A 
ATOM      9  C   UNL d   1     -48.661  12.726  23.282  0.00  0.00     0.102 A 
ATOM     10  O   UNL d   1     -46.743  14.292  22.557  0.00  0.00    -0.264 OA
ATOM     11  C   UNL d   1     -48.503  11.315  23.460  0.00  0.00     0.004 A 
ATOM     12  C   UNL d   1     -49.456  12.660  23.492  0.00  0.00     0.025 A 
ATOM     13  C   UNL d   1     -49.303  11.248  23.672  0.00  0.00     0.000 A 
ATOM     14  C   UNL d   1     -49.774  11.926  23.686  0.00  0.00     0.002 A 
ENDROOT
BRANCH   4  15
ATOM     15  C   UNL d   1     -45.349  13.429  22.339  0.00  0.00     0.147 C 
BRANCH  15  16
ATOM     16  C   UNL d   1     -44.668  12.994  22.183  0.00  0.00     0.297 C 
ATOM     17  N   UNL d   1     -44.040  13.362  21.816  0.00  0.00    -0.203 NA
ATOM     18  O   UNL d   1     -44.622  12.198  22.393  0.00  0.00    -0.264 OA
BRANCH  17  19
ATOM     19  C   UNL d   1     -43.353  12.936  21.655  0.00  0.00     0.127 C 
BRANCH  19  20
ATOM     20  C   UNL d   1     -42.699  13.326  21.335  0.00  0.00     0.119 A 
ATOM     21  O   UNL d   1     -42.648  14.123  21.126  0.00  0.00    -0.304 OA
ATOM     22  C   UNL d   1     -41.884  14.270  20.827  0.00  0.00     0.123 A 
ATOM     23  C   UNL d   1     -41.460  13.556  20.852  0.00  0.00     0.029 A 
ATOM     24  C   UNL d   1     -41.956  12.972  21.164  0.00  0.00     0.028 A 
ENDBRANCH  19  20
ENDBRANCH  17  19
ENDBRANCH  15  16
ENDBRANCH   4  15
TORSDOF 4
ENDMDL
MODEL 8
REMARK VINA RESULT:      -4.7      4.937      8.865
REMARK  4 active torsions:
REMARK  status: ('A' for Active; 'I' for Inactive)
REMARK    1  A    between atoms: C_10  and  N_4 
REMARK    2  A    between atoms: C_11  and  C_10 
REMARK       I    between atoms: N_15  and  C_11 
REMARK    3  A    between atoms: C_12  and  C_20 
REMARK    4  A    between atoms: C_20  and  N_15 
ROOT
ATOM      1  C   UNL d   1     -39.786  14.713  17.975  0.00  0.00     0.174 A 
ATOM      2  C   UNL d   1     -39.240  14.118  18.122  0.00  0.00     0.112 A 
ATOM      3  C   UNL d   1     -40.270  14.997  18.577  0.00  0.00     0.290 A 
ATOM      4  N   UNL d   1     -40.204  14.681  19.335  0.00  0.00    -0.249 N 
ATOM      5  O   UNL d   1     -39.726  14.917  17.174  0.00  0.00    -0.301 OA
ATOM      6  N   UNL d   1     -39.175  13.802  18.880  0.00  0.00    -0.223 NA
ATOM      7  C   UNL d   1     -38.842  13.952  17.420  0.00  0.00     0.043 A 
ATOM      8  C   UNL d   1     -39.656  14.082  19.490  0.00  0.00     0.185 A 
ATOM      9  C   UNL d   1     -39.144  14.448  16.832  0.00  0.00     0.102 A 
ATOM     10  O   UNL d   1     -40.817  15.593  18.428  0.00  0.00    -0.264 OA
ATOM     11  C   UNL d   1     -38.245  13.414  17.241  0.00  0.00     0.004 A 
ATOM     12  C   UNL d   1     -38.844  14.402  16.065  0.00  0.00     0.025 A 
ATOM     13  C   UNL d   1     -37.942  13.366  16.470  0.00  0.00     0.000 A 
ATOM     14  C   UNL d   1     -38.247  13.864  15.886  0.00  0.00     0.002 A 
ENDROOT
BRANCH   4  15
ATOM     15  C   UNL d   1     -40.685  14.958  19.949  0.00  0.00     0.147 C 
BRANCH  15  16
ATOM     16  C   UNL d   1     -40.843  14.484  20.604  0.00  0.00     0.297 C 
ATOM     17  N   UNL d   1     -41.582  14.149  20.679  0.00  0.00    -0.203 NA
ATOM     18  O   UNL d   1     -40.262  14.350  21.173  0.00  0.00    -0.264 OA
BRANCH  17  19
ATOM     19  C   UNL d   1     -41.751  13.672  21.330  0.00  0.00     0.127 C 
BRANCH  19  20
ATOM     20  C   UNL d   1     -42.504  13.342  21.407  0.00  0.00     0.119 A 
ATOM     21  O   UNL d   1     -43.224  13.746  21.440  0.00  0.00    -0.304 OA
ATOM     22  C   UNL d   1     -43.837  13.188  21.519  0.00  0.00     0.123 A 
ATOM     23  C   UNL d   1     -43.492  12.433  21.536  0.00  0.00     0.029 A 
ATOM     24  C   UNL d   1     -42.673  12.522  21.467  0.00  0.00     0.028 A 
ENDBRANCH  19  20
ENDBRANCH  17  19
ENDBRANCH  15  16
ENDBRANCH   4  15
TORSDOF 4
ENDMDL
