MODEL 1
REMARK VINA RESULT:      46.6      0.000      0.000
REMARK  4 active torsions:
REMARK  status: ('A' for Active; 'I' for Inactive)
REMARK    1  A    between atoms: S_3  and  C_1 
REMARK    2  A    between atoms: C_7  and  S_3 
REMARK    3  A    between atoms: S_11  and  C_4 
REMARK    4  A    between atoms: C_10  and  C_5 
ROOT
ATOM      1  C   UNL d   1      59.726  49.660  50.925  0.00  0.00     0.199 A 
ATOM      2  N   UNL d   1      58.921  49.653  51.100  0.00  0.00    -0.208 NA
ATOM      3  C   UNL d   1      59.806  49.675  50.103  0.00  0.00     0.156 A 
ATOM      4  C   UNL d   1      58.502  49.664  50.387  0.00  0.00     0.184 A 
ATOM      5  O   UNL d   1      59.055  49.677  49.777  0.00  0.00    -0.281 OA
ENDROOT
BRANCH   1   6
ATOM      6  S   UNL d   1      60.336  49.653  51.478  0.00  0.00     0.229 S 
ATOM      7  O   UNL d   1      59.755  49.608  52.055  0.00  0.00    -0.215 OA
ATOM      8  O   UNL d   1      60.922  49.697  50.904  0.00  0.00    -0.215 OA
BRANCH   6   9
ATOM      9  C   UNL d   1      60.953  49.646  52.024  0.00  0.00     0.089 A 
ATOM     10  C   UNL d   1      60.787  49.704  52.830  0.00  0.00     0.011 A 
ATOM     11  C   UNL d   1      61.403  49.697  53.373  0.00  0.00     0.001 A 
ATOM     12  C   UNL d   1      62.185  49.634  53.123  0.00  0.00     0.000 A 
ATOM     13  C   UNL d   1      62.351  49.576  52.313  0.00  0.00     0.001 A 
ATOM     14  C   UNL d   1      62.802  49.627  53.670  0.00  0.00     0.000 C 
ATOM     15  C   UNL d   1      61.740  49.582  51.773  0.00  0.00     0.011 A 
ENDBRANCH   6   9
ENDBRANCH   1   6
BRANCH   3  16
ATOM     16  S   UNL d   1      60.516  49.686  49.689  0.00  0.00    -0.086 SA
ATOM     17  C   UNL d   1      60.515  49.559  48.874  0.00  0.00     0.076 C 
ENDBRANCH   3  16
BRANCH   4  18
ATOM     18  C   UNL d   1      57.679  49.662  50.306  0.00  0.00     0.041 A 
ATOM     19  C   UNL d   1      57.196  49.704  50.980  0.00  0.00     0.004 A 
ATOM     20  C   UNL d   1      56.376  49.702  50.896  0.00  0.00     0.000 A 
ATOM     21  C   UNL d   1      56.040  49.657  50.153  0.00  0.00     0.000 A 
ATOM     22  C   UNL d   1      56.517  49.615  49.477  0.00  0.00     0.000 A 
ATOM     23  C   UNL d   1      57.328  49.617  49.552  0.00  0.00     0.004 A 
ENDBRANCH   4  18
TORSDOF 4
ENDMDL
