MODEL 1
REMARK VINA RESULT:       0.3      0.000      0.000
REMARK  2 active torsions:
REMARK  status: ('A' for Active; 'I' for Inactive)
REMARK    1  A    between atoms: N_9  and  C_3 
REMARK    2  A    between atoms: C_13  and  C_5 
ROOT
ATOM      1  N   UNL d   1     -41.807-122.616 -52.192  0.00  0.00    -0.196 N 
ATOM      2  C   UNL d   1     -41.757-122.210 -52.930  0.00  0.00     0.167 A 
ATOM      3  C   UNL d   1     -41.656-122.205 -51.486  0.00  0.00     0.153 A 
ATOM      4  N   UNL d   1     -42.156-123.817 -52.876  0.00  0.00    -0.163 NA
ATOM      5  C   UNL d   1     -41.905-122.610 -53.619  0.00  0.00     0.055 A 
ATOM      6  N   UNL d   1     -41.556-121.409 -52.935  0.00  0.00    -0.227 NA
ATOM      7  C   UNL d   1     -41.459-121.414 -51.508  0.00  0.00     0.052 A 
ATOM      8  C   UNL d   1     -42.106-123.418 -53.603  0.00  0.00     0.104 A 
ATOM      9  C   UNL d   1     -41.406-121.001 -52.241  0.00  0.00     0.086 A 
ATOM     10  C   UNL d   1     -41.283-120.875 -50.923  0.00  0.00     0.005 A 
ATOM     11  C   UNL d   1     -42.255-123.816 -54.306  0.00  0.00     0.023 C 
ATOM     12  C   UNL d   1     -41.199-120.220 -52.089  0.00  0.00     0.019 A 
ATOM     13  C   UNL d   1     -41.123-120.144 -51.261  0.00  0.00     0.002 A 
ENDROOT
BRANCH   5  14
ATOM     14  C   UNL d   1     -41.855-122.213 -54.341  0.00  0.00     0.004 A 
ATOM     15  C   UNL d   1     -41.193-122.302 -54.818  0.00  0.00     0.000 A 
ATOM     16  C   UNL d   1     -41.143-121.901 -55.548  0.00  0.00     0.000 A 
ATOM     17  C   UNL d   1     -41.756-121.420 -55.785  0.00  0.00     0.000 A 
ATOM     18  C   UNL d   1     -42.426-121.328 -55.306  0.00  0.00     0.000 A 
ATOM     19  C   UNL d   1     -42.471-121.724 -54.588  0.00  0.00     0.000 A 
ENDBRANCH   5  14
BRANCH   3  20
ATOM     20  N   UNL d   1     -41.706-122.611 -50.740  0.00  0.00    -0.271 N 
ATOM     21  C   UNL d   1     -41.151-123.183 -50.451  0.00  0.00     0.184 A 
ATOM     22  N   UNL d   1     -41.426-123.436 -49.688  0.00  0.00    -0.222 NA
ATOM     23  C   UNL d   1     -42.147-123.021 -49.507  0.00  0.00     0.120 A 
ATOM     24  C   UNL d   1     -42.314-122.508 -50.169  0.00  0.00     0.104 A 
ENDBRANCH   3  20
TORSDOF 2
ENDMDL
