MODEL 1
REMARK VINA RESULT:      15.6      0.000      0.000
REMARK  5 active torsions:
REMARK  status: ('A' for Active; 'I' for Inactive)
REMARK    1  A    between atoms: N_2  and  S_1 
REMARK    2  A    between atoms: C_3  and  S_1 
REMARK    3  A    between atoms: C_6  and  C_4 
REMARK    4  A    between atoms: O_15  and  C_6 
REMARK    5  A    between atoms: C_18  and  O_15 
ROOT
ATOM      1  N   UNL d   1      46.227 -17.967  43.530  0.00  0.00    -0.229 N 
ATOM      2  C   UNL d   1      45.951 -16.768  44.241  0.00  0.00     0.082 A 
ATOM      3  C   UNL d   1      46.067 -17.166  43.529  0.00  0.00     0.097 A 
ATOM      4  C   UNL d   1      46.274 -18.381  44.242  0.00  0.00     0.092 A 
ATOM      5  C   UNL d   1      45.996 -17.170  44.954  0.00  0.00     0.008 A 
ATOM      6  C   UNL d   1      46.158 -17.979  44.955  0.00  0.00     0.020 A 
ENDROOT
BRANCH   1   7
ATOM      7  S   UNL d   1      46.343 -18.365  42.818  0.00  0.00     0.277 S 
ATOM      8  O   UNL d   1      46.406 -17.643  42.425  0.00  0.00    -0.199 OA
ATOM      9  O   UNL d   1      46.280 -19.088  43.212  0.00  0.00    -0.199 OA
BRANCH   7  10
ATOM     10  C   UNL d   1      46.459 -18.764  42.104  0.00  0.00     0.133 A 
ATOM     11  S   UNL d   1      46.607 -18.662  41.308  0.00  0.00    -0.074 SA
ATOM     12  C   UNL d   1      46.647 -19.408  40.952  0.00  0.00     0.036 A 
ATOM     13  C   UNL d   1      46.521 -19.970  41.549  0.00  0.00     0.008 A 
ATOM     14  C   UNL d   1      46.405 -19.572  42.261  0.00  0.00     0.020 A 
ENDBRANCH   7  10
ENDBRANCH   1   7
BRANCH   2  15
ATOM     15  C   UNL d   1      45.789 -15.955  44.233  0.00  0.00     0.302 C 
ATOM     16  O   UNL d   1      46.159 -15.459  43.691  0.00  0.00    -0.259 OA
BRANCH  15  17
ATOM     17  O   UNL d   1      45.251 -15.642  44.776  0.00  0.00    -0.271 OA
BRANCH  17  18
ATOM     18  C   UNL d   1      45.206 -14.832  44.890  0.00  0.00     0.126 C 
ATOM     19  C   UNL d   1      44.482 -14.442  44.819  0.00  0.00     0.029 C 
ENDBRANCH  17  18
ENDBRANCH  15  17
ENDBRANCH   2  15
TORSDOF 5
ENDMDL
MODEL 2
REMARK VINA RESULT:      15.7      1.340      4.042
REMARK  5 active torsions:
REMARK  status: ('A' for Active; 'I' for Inactive)
REMARK    1  A    between atoms: N_2  and  S_1 
REMARK    2  A    between atoms: C_3  and  S_1 
REMARK    3  A    between atoms: C_6  and  C_4 
REMARK    4  A    between atoms: O_15  and  C_6 
REMARK    5  A    between atoms: C_18  and  O_15 
ROOT
ATOM      1  N   UNL d   1      45.969 -16.786  44.265  0.00  0.00    -0.229 N 
ATOM      2  C   UNL d   1      46.320 -17.926  43.495  0.00  0.00     0.082 A 
ATOM      3  C   UNL d   1      46.135 -17.125  43.541  0.00  0.00     0.097 A 
ATOM      4  C   UNL d   1      45.986 -17.241  44.953  0.00  0.00     0.092 A 
ATOM      5  C   UNL d   1      46.340 -18.389  44.172  0.00  0.00     0.008 A 
ATOM      6  C   UNL d   1      46.172 -18.045  44.903  0.00  0.00     0.020 A 
ENDROOT
BRANCH   1   7
ATOM      7  S   UNL d   1      45.784 -15.984  44.312  0.00  0.00     0.277 S 
ATOM      8  O   UNL d   1      45.096 -16.118  43.878  0.00  0.00    -0.199 OA
ATOM      9  O   UNL d   1      46.473 -15.850  44.747  0.00  0.00    -0.199 OA
BRANCH   7  10
ATOM     10  C   UNL d   1      45.598 -15.181  44.358  0.00  0.00     0.133 A 
ATOM     11  S   UNL d   1      45.817 -14.437  44.103  0.00  0.00    -0.074 SA
ATOM     12  C   UNL d   1      45.298 -13.884  44.434  0.00  0.00     0.036 A 
ATOM     13  C   UNL d   1      44.755 -14.306  44.897  0.00  0.00     0.008 A 
ATOM     14  C   UNL d   1      44.940 -15.108  44.851  0.00  0.00     0.020 A 
ENDBRANCH   7  10
ENDBRANCH   1   7
BRANCH   2  15
ATOM     15  C   UNL d   1      46.488 -18.265  42.757  0.00  0.00     0.302 C 
ATOM     16  O   UNL d   1      46.646 -17.791  42.104  0.00  0.00    -0.259 OA
BRANCH  15  17
ATOM     17  O   UNL d   1      46.496 -19.087  42.679  0.00  0.00    -0.271 OA
BRANCH  17  18
ATOM     18  C   UNL d   1      46.238 -19.436  41.983  0.00  0.00     0.126 C 
ATOM     19  C   UNL d   1      46.307 -20.253  41.880  0.00  0.00     0.029 C 
ENDBRANCH  17  18
ENDBRANCH  15  17
ENDBRANCH   2  15
TORSDOF 5
ENDMDL
