MODEL 1
REMARK VINA RESULT:      -6.0      0.000      0.000
REMARK  8 active torsions:
REMARK  status: ('A' for Active; 'I' for Inactive)
REMARK    1  A    between atoms: C_2  and  C_1 
REMARK    2  A    between atoms: C_5  and  C_1 
REMARK    3  A    between atoms: O_11  and  C_2 
REMARK    4  A    between atoms: C_13  and  C_3 
REMARK    5  A    between atoms: C_6  and  C_5 
REMARK    6  A    between atoms: C_23  and  O_11 
REMARK    7  A    between atoms: C_12  and  S_14 
REMARK    8  A    between atoms: S_14  and  C_18 
ROOT
ATOM      1  C   UNL d   1     -42.212-123.268 -49.529  0.00  0.00     0.134 C 
ATOM      2  C   UNL d   1     -42.919-122.851 -49.615  0.00  0.00     0.106 C 
ATOM      3  N   UNL d   1     -43.625-122.435 -49.707  0.00  0.00    -0.191 NA
ENDROOT
BRANCH   1   4
ATOM      4  C   UNL d   1     -41.883-123.358 -48.776  0.00  0.00     0.310 C 
ATOM      5  O   UNL d   1     -41.158-123.742 -48.685  0.00  0.00    -0.258 OA
BRANCH   4   6
ATOM      6  O   UNL d   1     -42.277-123.063 -48.111  0.00  0.00    -0.273 OA
BRANCH   6   7
ATOM      7  C   UNL d   1     -41.957-123.171 -47.365  0.00  0.00     0.103 C 
ATOM      8  C   UNL d   1     -42.426-123.450 -46.747  0.00  0.00     0.027 C 
ATOM      9  C   UNL d   1     -41.159-123.000 -47.231  0.00  0.00     0.027 C 
ENDBRANCH   6   7
ENDBRANCH   4   6
ENDBRANCH   1   4
BRANCH   1  10
ATOM     10  C   UNL d   1     -41.837-123.594 -50.181  0.00  0.00     0.040 C 
BRANCH  10  11
ATOM     11  C   UNL d   1     -41.589-123.106 -50.789  0.00  0.00     0.101 A 
ATOM     12  O   UNL d   1     -41.710-123.383 -51.553  0.00  0.00    -0.307 OA
ATOM     13  C   UNL d   1     -41.426-122.818 -52.079  0.00  0.00     0.100 A 
ATOM     14  C   UNL d   1     -41.128-122.188 -51.638  0.00  0.00     0.027 A 
ATOM     15  C   UNL d   1     -41.223-122.356 -50.850  0.00  0.00     0.027 A 
BRANCH  13  16
ATOM     16  C   UNL d   1     -41.435-122.866 -52.896  0.00  0.00     0.023 A 
ATOM     17  C   UNL d   1     -41.847-122.206 -53.189  0.00  0.00     0.003 A 
ATOM     18  C   UNL d   1     -41.943-122.110 -54.007  0.00  0.00     0.007 A 
ATOM     19  C   UNL d   1     -41.633-122.666 -54.528  0.00  0.00     0.034 A 
ATOM     20  C   UNL d   1     -41.224-123.321 -54.237  0.00  0.00     0.007 A 
ATOM     21  C   UNL d   1     -41.123-123.425 -53.423  0.00  0.00     0.003 A 
BRANCH  19  22
ATOM     22  S   UNL d   1     -41.730-122.568 -55.338  0.00  0.00    -0.028 SA
BRANCH  22  23
ATOM     23  C   UNL d   1     -42.180-121.941 -55.623  0.00  0.00     0.309 C 
ATOM     24  F   UNL d   1     -42.985-122.046 -55.773  0.00  0.00    -0.165 F 
ATOM     25  F   UNL d   1     -41.828-121.209 -55.759  0.00  0.00    -0.165 F 
ENDBRANCH  22  23
ENDBRANCH  19  22
ENDBRANCH  13  16
ENDBRANCH  10  11
ENDBRANCH   1  10
TORSDOF 8
ENDMDL
