MODEL 1
REMARK VINA RESULT:      59.1      0.000      0.000
REMARK  5 active torsions:
REMARK  status: ('A' for Active; 'I' for Inactive)
REMARK    1  A    between atoms: N_2  and  S_1 
REMARK    2  A    between atoms: C_7  and  S_1 
REMARK    3  A    between atoms: C_3  and  N_2 
REMARK    4  A    between atoms: C_14  and  C_4 
REMARK    5  A    between atoms: O_19  and  C_16 
ROOT
ATOM      1  N   UNL d   1     -50.043  26.306  33.514  0.00  0.00    -0.158 NA
ENDROOT
BRANCH   1   2
ATOM      2  S   UNL d   1     -49.569  26.856  34.112  0.00  0.00     0.285 S 
ATOM      3  O   UNL d   1     -49.547  26.356  34.898  0.00  0.00    -0.198 OA
ATOM      4  O   UNL d   1     -49.600  27.350  33.307  0.00  0.00    -0.198 OA
BRANCH   2   5
ATOM      5  C   UNL d   1     -49.209  27.472  34.277  0.00  0.00     0.105 A 
ATOM      6  C   UNL d   1     -49.019  27.607  34.979  0.00  0.00     0.015 A 
ATOM      7  C   UNL d   1     -48.656  28.228  35.145  0.00  0.00     0.025 A 
ATOM      8  C   UNL d   1     -48.480  28.721  34.615  0.00  0.00     0.094 A 
ATOM      9  C   UNL d   1     -48.670  28.586  33.914  0.00  0.00     0.025 A 
ATOM     10  C   UNL d   1     -49.039  27.954  33.740  0.00  0.00     0.015 A 
BRANCH   8  11
ATOM     11  O   UNL d   1     -48.119  29.334  34.793  0.00  0.00    -0.328 OA
ATOM     12  C   UNL d   1     -48.171  29.694  35.424  0.00  0.00     0.181 C 
ENDBRANCH   8  11
ENDBRANCH   2   5
ENDBRANCH   1   2
BRANCH   1  13
ATOM     13  C   UNL d   1     -50.524  25.622  33.462  0.00  0.00     0.094 A 
ATOM     14  C   UNL d   1     -51.342  25.698  33.508  0.00  0.00     0.023 A 
ATOM     15  C   UNL d   1     -51.821  25.015  33.455  0.00  0.00     0.041 A 
ATOM     16  C   UNL d   1     -51.474  24.272  33.357  0.00  0.00     0.196 A 
ATOM     17  C   UNL d   1     -50.649  24.207  33.312  0.00  0.00     0.044 A 
ATOM     18  O   UNL d   1     -51.946  23.600  33.306  0.00  0.00    -0.287 OA
ATOM     19  C   UNL d   1     -50.175  24.880  33.364  0.00  0.00     0.022 A 
ATOM     20  C   UNL d   1     -49.351  24.814  33.319  0.00  0.00     0.002 C 
BRANCH  15  21
ATOM     21  C   UNL d   1     -52.646  25.080  33.500  0.00  0.00     0.003 C 
ATOM     22  C   UNL d   1     -53.113  24.406  33.626  0.00  0.00     0.000 C 
ATOM     23  C   UNL d   1     -53.012  25.833  33.418  0.00  0.00     0.000 C 
ENDBRANCH  15  21
ENDBRANCH   1  13
TORSDOF 5
ENDMDL
MODEL 2
REMARK VINA RESULT:      60.8      1.161      2.084
REMARK  5 active torsions:
REMARK  status: ('A' for Active; 'I' for Inactive)
REMARK    1  A    between atoms: N_2  and  S_1 
REMARK    2  A    between atoms: C_7  and  S_1 
REMARK    3  A    between atoms: C_3  and  N_2 
REMARK    4  A    between atoms: C_14  and  C_4 
REMARK    5  A    between atoms: O_19  and  C_16 
ROOT
ATOM      1  N   UNL d   1     -49.515  27.665  33.386  0.00  0.00    -0.158 NA
ENDROOT
BRANCH   1   2
ATOM      2  S   UNL d   1     -49.181  28.383  33.895  0.00  0.00     0.285 S 
ATOM      3  O   UNL d   1     -49.697  29.107  33.615  0.00  0.00    -0.198 OA
ATOM      4  O   UNL d   1     -48.666  27.638  34.168  0.00  0.00    -0.198 OA
BRANCH   2   5
ATOM      5  C   UNL d   1     -48.726  28.665  34.395  0.00  0.00     0.105 A 
ATOM      6  C   UNL d   1     -48.510  29.370  34.336  0.00  0.00     0.015 A 
ATOM      7  C   UNL d   1     -48.052  29.653  34.841  0.00  0.00     0.025 A 
ATOM      8  C   UNL d   1     -47.804  29.239  35.408  0.00  0.00     0.094 A 
ATOM      9  C   UNL d   1     -48.020  28.535  35.467  0.00  0.00     0.025 A 
ATOM     10  C   UNL d   1     -48.487  28.242  34.955  0.00  0.00     0.015 A 
BRANCH   8  11
ATOM     11  O   UNL d   1     -47.349  29.532  35.903  0.00  0.00    -0.328 OA
ATOM     12  C   UNL d   1     -47.493  29.635  36.609  0.00  0.00     0.181 C 
ENDBRANCH   8  11
ENDBRANCH   2   5
ENDBRANCH   1   2
BRANCH   1  13
ATOM     13  C   UNL d   1     -50.091  27.059  33.371  0.00  0.00     0.094 A 
ATOM     14  C   UNL d   1     -49.852  26.272  33.360  0.00  0.00     0.023 A 
ATOM     15  C   UNL d   1     -50.429  25.667  33.344  0.00  0.00     0.041 A 
ATOM     16  C   UNL d   1     -51.232  25.861  33.340  0.00  0.00     0.196 A 
ATOM     17  C   UNL d   1     -51.462  26.657  33.352  0.00  0.00     0.044 A 
ATOM     18  O   UNL d   1     -51.799  25.266  33.325  0.00  0.00    -0.287 OA
ATOM     19  C   UNL d   1     -50.895  27.254  33.367  0.00  0.00     0.022 A 
ATOM     20  C   UNL d   1     -51.126  28.049  33.378  0.00  0.00     0.002 C 
BRANCH  15  21
ATOM     21  C   UNL d   1     -50.198  24.872  33.332  0.00  0.00     0.003 C 
ATOM     22  C   UNL d   1     -49.393  24.669  33.325  0.00  0.00     0.000 C 
ATOM     23  C   UNL d   1     -50.783  24.267  33.328  0.00  0.00     0.000 C 
ENDBRANCH  15  21
ENDBRANCH   1  13
TORSDOF 5
ENDMDL
