MODEL 1
REMARK VINA RESULT:      -2.2      0.000      0.000
REMARK  0 active torsions:
REMARK  status: ('A' for Active; 'I' for Inactive)
ROOT
ATOM      1  N   UNL d   1      31.924  22.251 -21.217  0.00  0.00    -0.219 NA
ATOM      2  C   UNL d   1      32.058  22.999 -20.882  0.00  0.00     0.215 A 
ATOM      3  S   UNL d   1      32.657  22.920 -20.313  0.00  0.00    -0.045 SA
ATOM      4  C   UNL d   1      32.439  21.713 -20.857  0.00  0.00     0.090 A 
ATOM      5  C   UNL d   1      32.890  22.123 -20.301  0.00  0.00     0.058 A 
ATOM      6  N   UNL d   1      31.670  23.700 -21.072  0.00  0.00    -0.120 N 
ATOM      7  C   UNL d   1      32.486  20.912 -21.029  0.00  0.00     0.021 C 
ENDROOT
TORSDOF 0
ENDMDL
MODEL 2
REMARK VINA RESULT:      -2.1      0.778      1.769
REMARK  0 active torsions:
REMARK  status: ('A' for Active; 'I' for Inactive)
ROOT
ATOM      1  N   UNL d   1      31.871  22.246 -21.157  0.00  0.00    -0.219 NA
ATOM      2  C   UNL d   1      32.397  21.672 -20.868  0.00  0.00     0.215 A 
ATOM      3  S   UNL d   1      32.977  22.062 -20.419  0.00  0.00    -0.045 SA
ATOM      4  C   UNL d   1      32.124  22.986 -20.888  0.00  0.00     0.090 A 
ATOM      5  C   UNL d   1      32.804  22.873 -20.435  0.00  0.00     0.058 A 
ATOM      6  N   UNL d   1      32.360  20.859 -20.997  0.00  0.00    -0.120 N 
ATOM      7  C   UNL d   1      31.757  23.701 -21.049  0.00  0.00     0.021 C 
ENDROOT
TORSDOF 0
ENDMDL
MODEL 3
REMARK VINA RESULT:      -1.8      1.142      1.914
REMARK  0 active torsions:
REMARK  status: ('A' for Active; 'I' for Inactive)
ROOT
ATOM      1  N   UNL d   1      32.577  22.407 -19.959  0.00  0.00    -0.219 NA
ATOM      2  C   UNL d   1      32.287  22.157 -20.696  0.00  0.00     0.215 A 
ATOM      3  S   UNL d   1      32.157  22.833 -21.161  0.00  0.00    -0.045 SA
ATOM      4  C   UNL d   1      32.627  23.232 -19.969  0.00  0.00     0.090 A 
ATOM      5  C   UNL d   1      32.368  23.495 -20.708  0.00  0.00     0.058 A 
ATOM      6  N   UNL d   1      32.148  21.380 -20.933  0.00  0.00    -0.120 N 
ATOM      7  C   UNL d   1      32.888  23.701 -19.349  0.00  0.00     0.021 C 
ENDROOT
TORSDOF 0
ENDMDL
MODEL 4
REMARK VINA RESULT:      -1.8      3.214      3.596
REMARK  0 active torsions:
REMARK  status: ('A' for Active; 'I' for Inactive)
ROOT
ATOM      1  N   UNL d   1      33.241  22.746 -17.684  0.00  0.00    -0.219 NA
ATOM      2  C   UNL d   1      32.845  23.081 -18.332  0.00  0.00     0.215 A 
ATOM      3  S   UNL d   1      32.331  23.666 -18.042  0.00  0.00    -0.045 SA
ATOM      4  C   UNL d   1      32.974  23.122 -16.997  0.00  0.00     0.090 A 
ATOM      5  C   UNL d   1      32.414  23.687 -17.217  0.00  0.00     0.058 A 
ATOM      6  N   UNL d   1      32.937  22.878 -19.125  0.00  0.00    -0.120 N 
ATOM      7  C   UNL d   1      33.226  22.955 -16.235  0.00  0.00     0.021 C 
ENDROOT
TORSDOF 0
ENDMDL
MODEL 5
REMARK VINA RESULT:      -1.6      7.094      7.333
REMARK  0 active torsions:
REMARK  status: ('A' for Active; 'I' for Inactive)
ROOT
ATOM      1  N   UNL d   1      28.601  16.787 -23.943  0.00  0.00    -0.219 NA
ATOM      2  C   UNL d   1      29.061  17.238 -24.466  0.00  0.00     0.215 A 
ATOM      3  S   UNL d   1      29.810  16.883 -24.520  0.00  0.00    -0.045 SA
ATOM      4  C   UNL d   1      29.063  16.155 -23.674  0.00  0.00     0.090 A 
ATOM      5  C   UNL d   1      29.806  16.214 -24.029  0.00  0.00     0.058 A 
ATOM      6  N   UNL d   1      28.826  17.919 -24.866  0.00  0.00    -0.120 N 
ATOM      7  C   UNL d   1      28.818  15.577 -23.147  0.00  0.00     0.021 C 
ENDROOT
TORSDOF 0
ENDMDL
MODEL 6
REMARK VINA RESULT:      -1.6      7.079      7.298
REMARK  0 active torsions:
REMARK  status: ('A' for Active; 'I' for Inactive)
ROOT
ATOM      1  N   UNL d   1      29.549  16.377 -23.892  0.00  0.00    -0.219 NA
ATOM      2  C   UNL d   1      30.042  16.800 -24.409  0.00  0.00     0.215 A 
ATOM      3  S   UNL d   1      29.591  17.407 -24.751  0.00  0.00    -0.045 SA
ATOM      4  C   UNL d   1      28.797  16.720 -23.915  0.00  0.00     0.090 A 
ATOM      5  C   UNL d   1      28.822  17.354 -24.443  0.00  0.00     0.058 A 
ATOM      6  N   UNL d   1      30.838  16.653 -24.562  0.00  0.00    -0.120 N 
ATOM      7  C   UNL d   1      28.146  16.469 -23.485  0.00  0.00     0.021 C 
ENDROOT
TORSDOF 0
ENDMDL
MODEL 7
REMARK VINA RESULT:      -1.5      5.278      5.952
REMARK  0 active torsions:
REMARK  status: ('A' for Active; 'I' for Inactive)
ROOT
ATOM      1  N   UNL d   1      32.395  17.221 -23.168  0.00  0.00    -0.219 NA
ATOM      2  C   UNL d   1      31.845  16.861 -23.675  0.00  0.00     0.215 A 
ATOM      3  S   UNL d   1      31.634  17.415 -24.256  0.00  0.00    -0.045 SA
ATOM      4  C   UNL d   1      32.523  17.993 -23.433  0.00  0.00     0.090 A 
ATOM      5  C   UNL d   1      32.055  18.114 -24.103  0.00  0.00     0.058 A 
ATOM      6  N   UNL d   1      31.555  16.092 -23.621  0.00  0.00    -0.120 N 
ATOM      7  C   UNL d   1      33.028  18.539 -23.087  0.00  0.00     0.021 C 
ENDROOT
TORSDOF 0
ENDMDL
MODEL 8
REMARK VINA RESULT:      -1.5      5.275      5.895
REMARK  0 active torsions:
REMARK  status: ('A' for Active; 'I' for Inactive)
ROOT
ATOM      1  N   UNL d   1      32.156  17.048 -23.222  0.00  0.00    -0.219 NA
ATOM      2  C   UNL d   1      32.491  17.786 -23.402  0.00  0.00     0.215 A 
ATOM      3  S   UNL d   1      32.133  18.066 -24.098  0.00  0.00    -0.045 SA
ATOM      4  C   UNL d   1      31.594  16.872 -23.802  0.00  0.00     0.090 A 
ATOM      5  C   UNL d   1      31.579  17.498 -24.341  0.00  0.00     0.058 A 
ATOM      6  N   UNL d   1      33.075  18.180 -22.975  0.00  0.00    -0.120 N 
ATOM      7  C   UNL d   1      31.135  16.193 -23.830  0.00  0.00     0.021 C 
ENDROOT
TORSDOF 0
ENDMDL
MODEL 9
REMARK VINA RESULT:      -1.1      2.886      3.515
REMARK  0 active torsions:
REMARK  status: ('A' for Active; 'I' for Inactive)
ROOT
ATOM      1  N   UNL d   1      33.043  19.819 -23.087  0.00  0.00    -0.219 NA
ATOM      2  C   UNL d   1      33.102  20.161 -22.332  0.00  0.00     0.215 A 
ATOM      3  S   UNL d   1      33.226  19.549 -21.785  0.00  0.00    -0.045 SA
ATOM      4  C   UNL d   1      33.128  19.001 -23.006  0.00  0.00     0.090 A 
ATOM      5  C   UNL d   1      33.241  18.834 -22.205  0.00  0.00     0.058 A 
ATOM      6  N   UNL d   1      33.050  20.962 -22.149  0.00  0.00    -0.120 N 
ATOM      7  C   UNL d   1      33.104  18.457 -23.619  0.00  0.00     0.021 C 
ENDROOT
TORSDOF 0
ENDMDL
