MODEL 1
REMARK VINA RESULT:      -4.7      0.000      0.000
REMARK  5 active torsions:
REMARK  status: ('A' for Active; 'I' for Inactive)
REMARK    1  A    between atoms: O_8  and  S_1 
REMARK    2  A    between atoms: C_9  and  S_1 
REMARK    3  A    between atoms: C_7  and  C_2 
REMARK    4  A    between atoms: C_20  and  C_7 
REMARK    5  A    between atoms: C_14  and  O_8 
ROOT
ATOM      1  C   UNL d   1      56.685  -0.345  33.050  0.00  0.00     0.139 A 
ATOM      2  C   UNL d   1      57.560   0.237  32.235  0.00  0.00     0.064 A 
ATOM      3  C   UNL d   1      57.301   0.204  33.014  0.00  0.00     0.220 A 
ATOM      4  C   UNL d   1      57.111  -0.289  31.786  0.00  0.00     0.105 A 
ATOM      5  O   UNL d   1      56.568  -0.650  32.293  0.00  0.00    -0.304 OA
ATOM      6  C   UNL d   1      57.256  -0.365  30.988  0.00  0.00     0.050 A 
ATOM      7  C   UNL d   1      58.153   0.682  31.877  0.00  0.00     0.007 A 
ATOM      8  C   UNL d   1      57.849   0.080  30.630  0.00  0.00     0.116 A 
ATOM      9  O   UNL d   1      57.594   0.637  33.652  0.00  0.00    -0.284 OA
ATOM     10  C   UNL d   1      58.295   0.600  31.075  0.00  0.00     0.026 A 
ENDROOT
BRANCH   8  11
ATOM     11  O   UNL d   1      57.993  -0.000  29.824  0.00  0.00    -0.227 OA
BRANCH  11  12
ATOM     12  S   UNL d   1      58.547  -0.550  29.555  0.00  0.00     0.304 S 
ATOM     13  O   UNL d   1      57.952  -1.092  29.438  0.00  0.00    -0.193 OA
ATOM     14  O   UNL d   1      59.156  -0.011  29.669  0.00  0.00    -0.193 OA
BRANCH  12  15
ATOM     15  C   UNL d   1      59.103  -1.108  29.283  0.00  0.00     0.111 A 
ATOM     16  C   UNL d   1      58.862  -1.886  29.138  0.00  0.00     0.016 A 
ATOM     17  C   UNL d   1      59.412  -2.439  28.868  0.00  0.00     0.030 A 
ATOM     18  C   UNL d   1      60.202  -2.215  28.745  0.00  0.00     0.140 A 
ATOM     19  C   UNL d   1      60.431  -1.432  28.894  0.00  0.00     0.030 A 
ATOM     20  F   UNL d   1      60.743  -2.759  28.480  0.00  0.00    -0.204 F 
ATOM     21  C   UNL d   1      59.878  -0.881  29.163  0.00  0.00     0.016 A 
ENDBRANCH  12  15
ENDBRANCH  11  12
ENDBRANCH   8  11
BRANCH   1  22
ATOM     22  C   UNL d   1      56.259  -0.556  33.724  0.00  0.00     0.029 C 
BRANCH  22  23
ATOM     23  C   UNL d   1      55.575  -0.141  33.937  0.00  0.00     0.021 A 
ATOM     24  C   UNL d   1      54.936  -0.133  33.424  0.00  0.00     0.099 A 
ATOM     25  N   UNL d   1      54.253   0.275  33.623  0.00  0.00    -0.242 NA
ATOM     26  C   UNL d   1      54.210   0.682  34.349  0.00  0.00     0.099 A 
ATOM     27  C   UNL d   1      54.857   0.671  34.863  0.00  0.00     0.021 A 
ATOM     28  C   UNL d   1      55.540   0.255  34.650  0.00  0.00     0.003 A 
ENDBRANCH  22  23
ENDBRANCH   1  22
TORSDOF 5
ENDMDL
MODEL 2
REMARK VINA RESULT:      -4.5      1.112      1.596
REMARK  5 active torsions:
REMARK  status: ('A' for Active; 'I' for Inactive)
REMARK    1  A    between atoms: O_8  and  S_1 
REMARK    2  A    between atoms: C_9  and  S_1 
REMARK    3  A    between atoms: C_7  and  C_2 
REMARK    4  A    between atoms: C_20  and  C_7 
REMARK    5  A    between atoms: C_14  and  O_8 
ROOT
ATOM      1  C   UNL d   1      57.325   0.432  31.878  0.00  0.00     0.139 A 
ATOM      2  C   UNL d   1      58.468   0.183  31.245  0.00  0.00     0.064 A 
ATOM      3  C   UNL d   1      58.147   0.446  31.955  0.00  0.00     0.220 A 
ATOM      4  C   UNL d   1      57.851   0.007  30.727  0.00  0.00     0.105 A 
ATOM      5  O   UNL d   1      57.141   0.161  31.120  0.00  0.00    -0.304 OA
ATOM      6  C   UNL d   1      58.018  -0.268  29.977  0.00  0.00     0.050 A 
ATOM      7  C   UNL d   1      59.249   0.082  31.005  0.00  0.00     0.007 A 
ATOM      8  C   UNL d   1      58.799  -0.368  29.737  0.00  0.00     0.116 A 
ATOM      9  O   UNL d   1      58.561   0.682  32.627  0.00  0.00    -0.284 OA
ATOM     10  C   UNL d   1      59.411  -0.193  30.251  0.00  0.00     0.026 A 
ENDROOT
BRANCH   8  11
ATOM     11  O   UNL d   1      58.964  -0.645  28.980  0.00  0.00    -0.227 OA
BRANCH  11  12
ATOM     12  S   UNL d   1      59.268  -1.405  28.875  0.00  0.00     0.304 S 
ATOM     13  O   UNL d   1      60.022  -1.115  28.967  0.00  0.00    -0.193 OA
ATOM     14  O   UNL d   1      58.512  -1.709  28.780  0.00  0.00    -0.193 OA
BRANCH  12  15
ATOM     15  C   UNL d   1      59.581  -2.171  28.769  0.00  0.00     0.111 A 
ATOM     16  C   UNL d   1      59.092  -2.829  28.877  0.00  0.00     0.016 A 
ATOM     17  C   UNL d   1      59.400  -3.587  28.773  0.00  0.00     0.030 A 
ATOM     18  C   UNL d   1      60.197  -3.687  28.561  0.00  0.00     0.140 A 
ATOM     19  C   UNL d   1      60.677  -3.018  28.456  0.00  0.00     0.030 A 
ATOM     20  F   UNL d   1      60.501  -4.433  28.458  0.00  0.00    -0.204 F 
ATOM     21  C   UNL d   1      60.365  -2.262  28.561  0.00  0.00     0.016 A 
ENDBRANCH  12  15
ENDBRANCH  11  12
ENDBRANCH   8  11
BRANCH   1  22
ATOM     22  C   UNL d   1      56.778   0.651  32.455  0.00  0.00     0.029 C 
BRANCH  22  23
ATOM     23  C   UNL d   1      56.232   0.101  32.748  0.00  0.00     0.021 A 
ATOM     24  C   UNL d   1      55.472   0.348  32.927  0.00  0.00     0.099 A 
ATOM     25  N   UNL d   1      54.922  -0.186  33.217  0.00  0.00    -0.242 NA
ATOM     26  C   UNL d   1      55.139  -0.983  33.332  0.00  0.00     0.099 A 
ATOM     27  C   UNL d   1      55.908  -1.228  33.150  0.00  0.00     0.021 A 
ATOM     28  C   UNL d   1      56.452  -0.678  32.857  0.00  0.00     0.003 A 
ENDBRANCH  22  23
ENDBRANCH   1  22
TORSDOF 5
ENDMDL
MODEL 3
REMARK VINA RESULT:      -2.8      8.684     10.052
REMARK  5 active torsions:
REMARK  status: ('A' for Active; 'I' for Inactive)
REMARK    1  A    between atoms: O_8  and  S_1 
REMARK    2  A    between atoms: C_9  and  S_1 
REMARK    3  A    between atoms: C_7  and  C_2 
REMARK    4  A    between atoms: C_20  and  C_7 
REMARK    5  A    between atoms: C_14  and  O_8 
ROOT
ATOM      1  C   UNL d   1      58.606  -9.588  30.099  0.00  0.00     0.139 A 
ATOM      2  C   UNL d   1      59.354  -9.706  31.192  0.00  0.00     0.064 A 
ATOM      3  C   UNL d   1      59.382  -9.656  30.372  0.00  0.00     0.220 A 
ATOM      4  C   UNL d   1      58.565  -9.669  31.431  0.00  0.00     0.105 A 
ATOM      5  O   UNL d   1      58.101  -9.596  30.751  0.00  0.00    -0.304 OA
ATOM      6  C   UNL d   1      58.381  -9.706  32.224  0.00  0.00     0.050 A 
ATOM      7  C   UNL d   1      59.951  -9.780  31.754  0.00  0.00     0.007 A 
ATOM      8  C   UNL d   1      58.978  -9.780  32.786  0.00  0.00     0.116 A 
ATOM      9  O   UNL d   1      60.057  -9.671  29.899  0.00  0.00    -0.284 OA
ATOM     10  C   UNL d   1      59.759  -9.817  32.549  0.00  0.00     0.026 A 
ENDROOT
BRANCH   8  11
ATOM     11  O   UNL d   1      58.787  -9.818  33.585  0.00  0.00    -0.227 OA
BRANCH  11  12
ATOM     12  S   UNL d   1      59.108  -9.270  34.112  0.00  0.00     0.304 S 
ATOM     13  O   UNL d   1      58.488  -8.765  33.965  0.00  0.00    -0.193 OA
ATOM     14  O   UNL d   1      59.739  -9.771  34.270  0.00  0.00    -0.193 OA
BRANCH  12  15
ATOM     15  C   UNL d   1      59.428  -8.713  34.645  0.00  0.00     0.111 A 
ATOM     16  C   UNL d   1      58.944  -8.115  34.948  0.00  0.00     0.016 A 
ATOM     17  C   UNL d   1      59.260  -7.563  35.474  0.00  0.00     0.030 A 
ATOM     18  C   UNL d   1      60.059  -7.611  35.697  0.00  0.00     0.140 A 
ATOM     19  C   UNL d   1      60.533  -8.216  35.386  0.00  0.00     0.030 A 
ATOM     20  F   UNL d   1      60.369  -7.068  36.216  0.00  0.00    -0.204 F 
ATOM     21  C   UNL d   1      60.214  -8.765  34.860  0.00  0.00     0.016 A 
ENDBRANCH  12  15
ENDBRANCH  11  12
ENDBRANCH   8  11
BRANCH   1  22
ATOM     22  C   UNL d   1      58.371  -9.523  29.311  0.00  0.00     0.029 C 
BRANCH  22  23
ATOM     23  C   UNL d   1      57.586  -9.342  29.119  0.00  0.00     0.021 A 
ATOM     24  C   UNL d   1      57.429  -8.687  28.652  0.00  0.00     0.099 A 
ATOM     25  N   UNL d   1      56.657  -8.496  28.455  0.00  0.00    -0.242 NA
ATOM     26  C   UNL d   1      56.029  -8.971  28.732  0.00  0.00     0.099 A 
ATOM     27  C   UNL d   1      56.192  -9.630  29.203  0.00  0.00     0.021 A 
ATOM     28  C   UNL d   1      56.977  -9.811  29.394  0.00  0.00     0.003 A 
ENDBRANCH  22  23
ENDBRANCH   1  22
TORSDOF 5
ENDMDL
