MODEL 1
REMARK VINA RESULT:      -4.6      0.000      0.000
REMARK  7 active torsions:
REMARK  status: ('A' for Active; 'I' for Inactive)
REMARK    1  A    between atoms: C_2  and  S_1 
REMARK    2  A    between atoms: N_3  and  S_1 
REMARK    3  A    between atoms: C_18  and  N_3 
REMARK    4  A    between atoms: C_6  and  C_21 
REMARK       I    between atoms: N_7  and  C_6 
REMARK    5  A    between atoms: C_12  and  N_7 
REMARK    6  A    between atoms: C_22  and  C_18 
REMARK    7  A    between atoms: C_21  and  C_22 
ROOT
ATOM      1  N   UNL d   1      58.882  -0.561  29.159  0.00  0.00    -0.228 N 
ATOM      2  C   UNL d   1      58.563  -0.152  28.532  0.00  0.00     0.111 C 
ENDROOT
BRANCH   1   3
ATOM      3  S   UNL d   1      59.275  -1.273  29.034  0.00  0.00     0.271 S 
ATOM      4  O   UNL d   1      58.614  -1.556  28.674  0.00  0.00    -0.200 OA
ATOM      5  O   UNL d   1      59.960  -0.982  29.407  0.00  0.00    -0.200 OA
BRANCH   3   6
ATOM      6  C   UNL d   1      59.657  -1.981  28.907  0.00  0.00     0.104 A 
ATOM      7  C   UNL d   1      60.441  -1.990  28.666  0.00  0.00     0.013 A 
ATOM      8  C   UNL d   1      60.839  -2.708  28.534  0.00  0.00     0.001 A 
ATOM      9  C   UNL d   1      60.440  -3.418  28.646  0.00  0.00     0.000 A 
ATOM     10  C   UNL d   1      59.654  -3.421  28.887  0.00  0.00     0.001 A 
ATOM     11  C   UNL d   1      60.825  -4.127  28.518  0.00  0.00     0.000 C 
ATOM     12  C   UNL d   1      59.258  -2.705  29.019  0.00  0.00     0.013 A 
ENDBRANCH   3   6
ENDBRANCH   1   3
BRANCH   1  13
ATOM     13  C   UNL d   1      58.815  -0.263  29.928  0.00  0.00     0.092 C 
BRANCH  13  14
ATOM     14  C   UNL d   1      58.103   0.077  30.173  0.00  0.00     0.025 C 
BRANCH  14  15
ATOM     15  C   UNL d   1      58.044   0.405  30.927  0.00  0.00     0.064 C 
BRANCH  15  16
ATOM     16  C   UNL d   1      57.337   0.348  31.348  0.00  0.00     0.279 C 
ATOM     17  N   UNL d   1      57.338   0.065  32.126  0.00  0.00    -0.208 NA
ATOM     18  O   UNL d   1      56.626   0.574  30.994  0.00  0.00    -0.265 OA
BRANCH  17  19
ATOM     19  C   UNL d   1      56.631   0.008  32.547  0.00  0.00     0.088 A 
ATOM     20  C   UNL d   1      56.255  -0.719  32.621  0.00  0.00     0.040 A 
ATOM     21  C   UNL d   1      55.548  -0.782  33.040  0.00  0.00     0.101 A 
ATOM     22  N   UNL d   1      55.216  -0.108  33.389  0.00  0.00    -0.242 NA
ATOM     23  C   UNL d   1      55.595   0.622  33.315  0.00  0.00     0.101 A 
ATOM     24  C   UNL d   1      56.302   0.680  32.894  0.00  0.00     0.040 A 
ENDBRANCH  17  19
ENDBRANCH  15  16
ENDBRANCH  14  15
ENDBRANCH  13  14
ENDBRANCH   1  13
TORSDOF 7
ENDMDL
MODEL 2
REMARK VINA RESULT:      -3.8      1.732      5.817
REMARK  7 active torsions:
REMARK  status: ('A' for Active; 'I' for Inactive)
REMARK    1  A    between atoms: C_2  and  S_1 
REMARK    2  A    between atoms: N_3  and  S_1 
REMARK    3  A    between atoms: C_18  and  N_3 
REMARK    4  A    between atoms: C_6  and  C_21 
REMARK       I    between atoms: N_7  and  C_6 
REMARK    5  A    between atoms: C_12  and  N_7 
REMARK    6  A    between atoms: C_22  and  C_18 
REMARK    7  A    between atoms: C_21  and  C_22 
ROOT
ATOM      1  N   UNL d   1      56.784  -0.401  31.922  0.00  0.00    -0.228 N 
ATOM      2  C   UNL d   1      56.850  -1.187  31.720  0.00  0.00     0.111 C 
ENDROOT
BRANCH   1   3
ATOM      3  S   UNL d   1      56.361  -0.178  32.591  0.00  0.00     0.271 S 
ATOM      4  O   UNL d   1      56.333  -0.951  32.812  0.00  0.00    -0.200 OA
ATOM      5  O   UNL d   1      56.389   0.622  32.364  0.00  0.00    -0.200 OA
BRANCH   3   6
ATOM      6  C   UNL d   1      55.942   0.036  33.256  0.00  0.00     0.104 A 
ATOM      7  C   UNL d   1      56.264  -0.078  34.001  0.00  0.00     0.013 A 
ATOM      8  C   UNL d   1      55.843   0.137  34.685  0.00  0.00     0.001 A 
ATOM      9  C   UNL d   1      55.094   0.468  34.612  0.00  0.00     0.000 A 
ATOM     10  C   UNL d   1      54.762   0.587  33.870  0.00  0.00     0.001 A 
ATOM     11  C   UNL d   1      54.676   0.682  35.280  0.00  0.00     0.000 C 
ATOM     12  C   UNL d   1      55.182   0.372  33.188  0.00  0.00     0.013 A 
ENDBRANCH   3   6
ENDBRANCH   1   3
BRANCH   1  13
ATOM     13  C   UNL d   1      57.143   0.179  31.454  0.00  0.00     0.092 C 
BRANCH  13  14
ATOM     14  C   UNL d   1      57.582  -0.044  30.791  0.00  0.00     0.025 C 
BRANCH  14  15
ATOM     15  C   UNL d   1      58.158   0.464  30.491  0.00  0.00     0.064 C 
BRANCH  15  16
ATOM     16  C   UNL d   1      58.699   0.190  29.931  0.00  0.00     0.279 C 
ATOM     17  N   UNL d   1      59.493   0.083  30.137  0.00  0.00    -0.208 NA
ATOM     18  O   UNL d   1      58.447   0.024  29.162  0.00  0.00    -0.265 OA
BRANCH  17  19
ATOM     19  C   UNL d   1      60.033  -0.190  29.577  0.00  0.00     0.088 A 
ATOM     20  C   UNL d   1      60.387   0.338  29.056  0.00  0.00     0.040 A 
ATOM     21  C   UNL d   1      60.928   0.070  28.494  0.00  0.00     0.101 A 
ATOM     22  N   UNL d   1      61.114  -0.736  28.455  0.00  0.00    -0.242 NA
ATOM     23  C   UNL d   1      60.758  -1.267  28.978  0.00  0.00     0.101 A 
ATOM     24  C   UNL d   1      60.218  -0.994  29.539  0.00  0.00     0.040 A 
ENDBRANCH  17  19
ENDBRANCH  15  16
ENDBRANCH  14  15
ENDBRANCH  13  14
ENDBRANCH   1  13
TORSDOF 7
ENDMDL
MODEL 3
REMARK VINA RESULT:      -2.5      1.079      1.552
REMARK  7 active torsions:
REMARK  status: ('A' for Active; 'I' for Inactive)
REMARK    1  A    between atoms: C_2  and  S_1 
REMARK    2  A    between atoms: N_3  and  S_1 
REMARK    3  A    between atoms: C_18  and  N_3 
REMARK    4  A    between atoms: C_6  and  C_21 
REMARK       I    between atoms: N_7  and  C_6 
REMARK    5  A    between atoms: C_12  and  N_7 
REMARK    6  A    between atoms: C_22  and  C_18 
REMARK    7  A    between atoms: C_21  and  C_22 
ROOT
ATOM      1  N   UNL d   1      58.002   0.033  30.064  0.00  0.00    -0.228 N 
ATOM      2  C   UNL d   1      57.546   0.500  29.578  0.00  0.00     0.111 C 
ENDROOT
BRANCH   1   3
ATOM      3  S   UNL d   1      58.418  -0.607  29.757  0.00  0.00     0.271 S 
ATOM      4  O   UNL d   1      57.740  -1.040  29.783  0.00  0.00    -0.200 OA
ATOM      5  O   UNL d   1      59.120  -0.161  29.729  0.00  0.00    -0.200 OA
BRANCH   3   6
ATOM      6  C   UNL d   1      58.823  -1.246  29.452  0.00  0.00     0.104 A 
ATOM      7  C   UNL d   1      58.547  -2.007  29.577  0.00  0.00     0.013 A 
ATOM      8  C   UNL d   1      58.953  -2.664  29.270  0.00  0.00     0.001 A 
ATOM      9  C   UNL d   1      59.641  -2.547  28.836  0.00  0.00     0.000 A 
ATOM     10  C   UNL d   1      59.927  -1.788  28.705  0.00  0.00     0.001 A 
ATOM     11  C   UNL d   1      60.045  -3.188  28.532  0.00  0.00     0.000 C 
ATOM     12  C   UNL d   1      59.521  -1.133  29.011  0.00  0.00     0.013 A 
ENDBRANCH   3   6
ENDBRANCH   1   3
BRANCH   1  13
ATOM     13  C   UNL d   1      58.052   0.199  30.873  0.00  0.00     0.092 C 
BRANCH  13  14
ATOM     14  C   UNL d   1      57.376   0.443  31.282  0.00  0.00     0.025 C 
BRANCH  14  15
ATOM     15  C   UNL d   1      57.435   0.673  32.071  0.00  0.00     0.064 C 
BRANCH  15  16
ATOM     16  C   UNL d   1      56.774   0.635  32.563  0.00  0.00     0.279 C 
ATOM     17  N   UNL d   1      56.863   0.681  33.385  0.00  0.00    -0.208 NA
ATOM     18  O   UNL d   1      56.020   0.550  32.236  0.00  0.00    -0.265 OA
BRANCH  17  19
ATOM     19  C   UNL d   1      56.202   0.643  33.876  0.00  0.00     0.088 A 
ATOM     20  C   UNL d   1      55.452   0.569  33.550  0.00  0.00     0.040 A 
ATOM     21  C   UNL d   1      54.787   0.531  34.037  0.00  0.00     0.101 A 
ATOM     22  N   UNL d   1      54.879   0.567  34.859  0.00  0.00    -0.242 NA
ATOM     23  C   UNL d   1      55.633   0.641  35.187  0.00  0.00     0.101 A 
ATOM     24  C   UNL d   1      56.294   0.679  34.696  0.00  0.00     0.040 A 
ENDBRANCH  17  19
ENDBRANCH  15  16
ENDBRANCH  14  15
ENDBRANCH  13  14
ENDBRANCH   1  13
TORSDOF 7
ENDMDL
