MODEL 1
REMARK VINA RESULT:      13.9      0.000      0.000
REMARK  2 active torsions:
REMARK  status: ('A' for Active; 'I' for Inactive)
REMARK    1  A    between atoms: C_3  and  C_1 
REMARK       I    between atoms: C_2  and  N_4 
REMARK    2  A    between atoms: N_4  and  C_12 
ROOT
ATOM      1  C   UNL d   1     -56.295 -98.843 -44.666  0.00  0.00     0.072 A 
ATOM      2  C   UNL d   1     -56.652 -98.786 -43.923  0.00  0.00     0.005 A 
ATOM      3  C   UNL d   1     -56.760 -98.874 -45.348  0.00  0.00     0.005 A 
ATOM      4  C   UNL d   1     -57.940 -98.793 -44.546  0.00  0.00     0.100 A 
ATOM      5  C   UNL d   1     -57.475 -98.761 -43.864  0.00  0.00     0.020 A 
ATOM      6  C   UNL d   1     -57.584 -98.849 -45.287  0.00  0.00     0.020 A 
ENDROOT
BRANCH   1   7
ATOM      7  C   UNL d   1     -55.469 -98.868 -44.728  0.00  0.00     0.419 C 
ATOM      8  F   UNL d   1     -54.719 -98.891 -44.783  0.00  0.00    -0.166 F 
ATOM      9  F   UNL d   1     -54.966 -98.757 -45.423  0.00  0.00    -0.166 F 
ATOM     10  F   UNL d   1     -54.880 -99.012 -44.113  0.00  0.00    -0.166 F 
ENDBRANCH   1   7
BRANCH   4  11
ATOM     11  N   UNL d   1     -58.764 -98.768 -44.490  0.00  0.00    -0.056 NA
ATOM     12  C   UNL d   1     -59.136 -98.808 -43.751  0.00  0.00     0.787 C 
ATOM     13  N   UNL d   1     -59.958 -98.784 -43.691  0.00  0.00     0.064 N 
ATOM     14  N   UNL d   1     -58.673 -98.873 -43.069  0.00  0.00     0.064 N 
ENDBRANCH   4  11
TORSDOF 2
ENDMDL
