MODEL 1
REMARK VINA RESULT:       5.7      0.000      0.000
REMARK  3 active torsions:
REMARK  status: ('A' for Active; 'I' for Inactive)
REMARK    1  A    between atoms: C_2  and  N_1 
REMARK    2  A    between atoms: C_3  and  N_1 
REMARK    3  A    between atoms: C_7  and  C_3 
ROOT
ATOM      1  N   UNL d   1      24.381  12.593  -1.574  0.00  0.00    -0.184 N 
ATOM      2  O   UNL d   1      24.548  11.785  -1.491  0.00  0.00    -0.080 OA
ENDROOT
BRANCH   1   3
ATOM      3  C   UNL d   1      23.826  12.947  -1.077  0.00  0.00     0.090 A 
ATOM      4  C   UNL d   1      24.012  13.633  -0.645  0.00  0.00     0.018 A 
ATOM      5  C   UNL d   1      24.758  13.970  -0.709  0.00  0.00     0.002 C 
ATOM      6  C   UNL d   1      23.457  13.987  -0.148  0.00  0.00     0.002 A 
ATOM      7  C   UNL d   1      22.684  13.660  -0.066  0.00  0.00     0.000 A 
ATOM      8  C   UNL d   1      22.515  12.962  -0.512  0.00  0.00     0.002 A 
ATOM      9  C   UNL d   1      23.080  12.619  -1.006  0.00  0.00     0.020 A 
ENDBRANCH   1   3
BRANCH   1  10
ATOM     10  C   UNL d   1      24.767  13.032  -2.146  0.00  0.00     0.108 C 
BRANCH  10  11
ATOM     11  C   UNL d   1      24.733  12.803  -2.942  0.00  0.00     0.023 A 
ATOM     12  C   UNL d   1      24.764  13.369  -3.551  0.00  0.00     0.022 A 
ATOM     13  C   UNL d   1      24.732  13.152  -4.339  0.00  0.00     0.099 A 
ATOM     14  N   UNL d   1      24.667  12.353  -4.537  0.00  0.00    -0.242 NA
ATOM     15  C   UNL d   1      24.636  11.780  -3.921  0.00  0.00     0.099 A 
ATOM     16  C   UNL d   1      24.669  12.009  -3.134  0.00  0.00     0.022 A 
ENDBRANCH  10  11
ENDBRANCH   1  10
TORSDOF 3
ENDMDL
MODEL 2
REMARK VINA RESULT:       6.1      9.576     10.909
REMARK  3 active torsions:
REMARK  status: ('A' for Active; 'I' for Inactive)
REMARK    1  A    between atoms: C_2  and  N_1 
REMARK    2  A    between atoms: C_3  and  N_1 
REMARK    3  A    between atoms: C_7  and  C_3 
ROOT
ATOM      1  N   UNL d   1      13.772  12.464  -2.809  0.00  0.00    -0.184 N 
ATOM      2  O   UNL d   1      14.107  13.157  -2.502  0.00  0.00    -0.080 OA
ENDROOT
BRANCH   1   3
ATOM      3  C   UNL d   1      13.443  12.471  -3.566  0.00  0.00     0.090 A 
ATOM      4  C   UNL d   1      13.435  13.166  -4.023  0.00  0.00     0.018 A 
ATOM      5  C   UNL d   1      13.758  13.860  -3.725  0.00  0.00     0.002 C 
ATOM      6  C   UNL d   1      13.106  13.174  -4.780  0.00  0.00     0.002 A 
ATOM      7  C   UNL d   1      12.769  12.474  -5.108  0.00  0.00     0.000 A 
ATOM      8  C   UNL d   1      12.787  11.779  -4.627  0.00  0.00     0.002 A 
ATOM      9  C   UNL d   1      13.119  11.786  -3.872  0.00  0.00     0.020 A 
ENDBRANCH   1   3
BRANCH   1  10
ATOM     10  C   UNL d   1      13.771  11.779  -2.362  0.00  0.00     0.108 C 
BRANCH  10  11
ATOM     11  C   UNL d   1      14.056  11.788  -1.583  0.00  0.00     0.023 A 
ATOM     12  C   UNL d   1      13.532  11.803  -0.937  0.00  0.00     0.022 A 
ATOM     13  C   UNL d   1      13.805  11.812  -0.165  0.00  0.00     0.099 A 
ATOM     14  N   UNL d   1      14.618  11.805  -0.023  0.00  0.00    -0.242 NA
ATOM     15  C   UNL d   1      15.148  11.790  -0.677  0.00  0.00     0.099 A 
ATOM     16  C   UNL d   1      14.863  11.782  -1.446  0.00  0.00     0.022 A 
ENDBRANCH  10  11
ENDBRANCH   1  10
TORSDOF 3
ENDMDL
MODEL 3
REMARK VINA RESULT:       7.6      9.591     10.597
REMARK  3 active torsions:
REMARK  status: ('A' for Active; 'I' for Inactive)
REMARK    1  A    between atoms: C_2  and  N_1 
REMARK    2  A    between atoms: C_3  and  N_1 
REMARK    3  A    between atoms: C_7  and  C_3 
ROOT
ATOM      1  N   UNL d   1      13.831  12.020  -2.492  0.00  0.00    -0.184 N 
ATOM      2  O   UNL d   1      14.462  11.799  -2.983  0.00  0.00    -0.080 OA
ENDROOT
BRANCH   1   3
ATOM      3  C   UNL d   1      13.950  12.076  -1.678  0.00  0.00     0.090 A 
ATOM      4  C   UNL d   1      14.636  12.429  -1.367  0.00  0.00     0.018 A 
ATOM      5  C   UNL d   1      15.209  12.730  -1.872  0.00  0.00     0.002 C 
ATOM      6  C   UNL d   1      14.754  12.485  -0.553  0.00  0.00     0.002 A 
ATOM      7  C   UNL d   1      14.180  12.184  -0.014  0.00  0.00     0.000 A 
ATOM      8  C   UNL d   1      13.490  11.828  -0.349  0.00  0.00     0.002 A 
ATOM      9  C   UNL d   1      13.385  11.779  -1.166  0.00  0.00     0.020 A 
ENDBRANCH   1   3
BRANCH   1  10
ATOM     10  C   UNL d   1      13.099  12.180  -2.818  0.00  0.00     0.108 C 
BRANCH  10  11
ATOM     11  C   UNL d   1      13.032  12.377  -3.621  0.00  0.00     0.023 A 
ATOM     12  C   UNL d   1      13.003  13.172  -3.865  0.00  0.00     0.022 A 
ATOM     13  C   UNL d   1      12.937  13.375  -4.654  0.00  0.00     0.099 A 
ATOM     14  N   UNL d   1      12.898  12.779  -5.225  0.00  0.00    -0.242 NA
ATOM     15  C   UNL d   1      12.927  11.974  -4.978  0.00  0.00     0.099 A 
ATOM     16  C   UNL d   1      12.993  11.783  -4.183  0.00  0.00     0.022 A 
ENDBRANCH  10  11
ENDBRANCH   1  10
TORSDOF 3
ENDMDL
