MODEL 1
REMARK VINA RESULT:      -4.8      0.000      0.000
REMARK  4 active torsions:
REMARK  status: ('A' for Active; 'I' for Inactive)
REMARK    1  A    between atoms: C_7  and  N_1 
REMARK    2  A    between atoms: C_6  and  C_2 
REMARK    3  A    between atoms: C_17  and  C_6 
REMARK    4  A    between atoms: C_8  and  C_7 
ROOT
ATOM      1  N   UNL d   1     -41.286-122.455 -53.016  0.00  0.00    -0.303 N 
ATOM      2  C   UNL d   1     -41.515-122.706 -51.712  0.00  0.00     0.057 A 
ATOM      3  C   UNL d   1     -41.444-122.108 -52.265  0.00  0.00     0.067 A 
ATOM      4  C   UNL d   1     -41.405-123.425 -52.103  0.00  0.00     0.022 A 
ATOM      5  C   UNL d   1     -41.263-123.247 -52.915  0.00  0.00     0.064 A 
ATOM      6  C   UNL d   1     -41.516-121.295 -52.103  0.00  0.00     0.019 C 
ATOM      7  C   UNL d   1     -41.124-123.815 -53.505  0.00  0.00     0.019 C 
ENDROOT
BRANCH   1   8
ATOM      8  C   UNL d   1     -41.176-122.054 -53.721  0.00  0.00     0.105 C 
BRANCH   8   9
ATOM      9  C   UNL d   1     -41.805-121.987 -54.276  0.00  0.00     0.118 A 
ATOM     10  O   UNL d   1     -42.612-121.924 -54.195  0.00  0.00    -0.304 OA
ATOM     11  C   UNL d   1     -42.912-121.878 -54.957  0.00  0.00     0.123 A 
ATOM     12  C   UNL d   1     -42.335-121.910 -55.492  0.00  0.00     0.029 A 
ATOM     13  C   UNL d   1     -41.620-121.980 -55.075  0.00  0.00     0.028 A 
ENDBRANCH   8   9
ENDBRANCH   1   8
BRANCH   2  14
ATOM     14  C   UNL d   1     -41.665-122.610 -50.934  0.00  0.00     0.208 C 
ATOM     15  O   UNL d   1     -42.351-122.242 -50.692  0.00  0.00    -0.286 OA
BRANCH  14  16
ATOM     16  C   UNL d   1     -41.134-122.879 -50.366  0.00  0.00     0.110 C 
ATOM     17 CL   UNL d   1     -41.380-123.007 -49.570  0.00  0.00    -0.078 Cl
ENDBRANCH  14  16
ENDBRANCH   2  14
TORSDOF 4
ENDMDL
MODEL 2
REMARK VINA RESULT:      -4.7      1.694      3.719
REMARK  4 active torsions:
REMARK  status: ('A' for Active; 'I' for Inactive)
REMARK    1  A    between atoms: C_7  and  N_1 
REMARK    2  A    between atoms: C_6  and  C_2 
REMARK    3  A    between atoms: C_17  and  C_6 
REMARK    4  A    between atoms: C_8  and  C_7 
ROOT
ATOM      1  N   UNL d   1     -41.209-122.497 -51.697  0.00  0.00    -0.303 N 
ATOM      2  C   UNL d   1     -41.369-122.506 -53.036  0.00  0.00     0.057 A 
ATOM      3  C   UNL d   1     -41.302-122.986 -52.377  0.00  0.00     0.067 A 
ATOM      4  C   UNL d   1     -41.319-121.722 -52.781  0.00  0.00     0.022 A 
ATOM      5  C   UNL d   1     -41.219-121.738 -51.944  0.00  0.00     0.064 A 
ATOM      6  C   UNL d   1     -41.324-123.818 -52.387  0.00  0.00     0.019 C 
ATOM      7  C   UNL d   1     -41.145-121.063 -51.465  0.00  0.00     0.019 C 
ENDROOT
BRANCH   1   8
ATOM      8  C   UNL d   1     -41.123-122.754 -50.924  0.00  0.00     0.105 C 
BRANCH   8   9
ATOM      9  C   UNL d   1     -41.798-122.862 -50.434  0.00  0.00     0.118 A 
ATOM     10  O   UNL d   1     -42.592-122.725 -50.545  0.00  0.00    -0.304 OA
ATOM     11  C   UNL d   1     -42.959-122.951 -49.847  0.00  0.00     0.123 A 
ATOM     12  C   UNL d   1     -42.435-123.215 -49.323  0.00  0.00     0.029 A 
ATOM     13  C   UNL d   1     -41.687-123.167 -49.680  0.00  0.00     0.028 A 
ENDBRANCH   8   9
ENDBRANCH   1   8
BRANCH   2  14
ATOM     14  C   UNL d   1     -41.465-122.753 -53.788  0.00  0.00     0.208 C 
ATOM     15  O   UNL d   1     -41.154-123.468 -54.026  0.00  0.00    -0.286 OA
BRANCH  14  16
ATOM     16  C   UNL d   1     -41.876-122.294 -54.333  0.00  0.00     0.110 C 
ATOM     17 CL   UNL d   1     -41.844-122.470 -55.157  0.00  0.00    -0.078 Cl
ENDBRANCH  14  16
ENDBRANCH   2  14
TORSDOF 4
ENDMDL
MODEL 3
REMARK VINA RESULT:      -4.4      1.757      3.474
REMARK  4 active torsions:
REMARK  status: ('A' for Active; 'I' for Inactive)
REMARK    1  A    between atoms: C_7  and  N_1 
REMARK    2  A    between atoms: C_6  and  C_2 
REMARK    3  A    between atoms: C_17  and  C_6 
REMARK    4  A    between atoms: C_8  and  C_7 
ROOT
ATOM      1  N   UNL d   1     -41.422-122.386 -52.743  0.00  0.00    -0.303 N 
ATOM      2  C   UNL d   1     -41.983-122.222 -53.957  0.00  0.00     0.057 A 
ATOM      3  C   UNL d   1     -41.761-121.829 -53.276  0.00  0.00     0.067 A 
ATOM      4  C   UNL d   1     -41.789-123.019 -53.862  0.00  0.00     0.022 A 
ATOM      5  C   UNL d   1     -41.441-123.101 -53.099  0.00  0.00     0.064 A 
ATOM      6  C   UNL d   1     -41.857-121.013 -53.141  0.00  0.00     0.019 C 
ATOM      7  C   UNL d   1     -41.165-123.817 -52.779  0.00  0.00     0.019 C 
ENDROOT
BRANCH   1   8
ATOM      8  C   UNL d   1     -41.128-122.224 -51.996  0.00  0.00     0.105 C 
BRANCH   8   9
ATOM      9  C   UNL d   1     -41.632-122.255 -51.323  0.00  0.00     0.118 A 
ATOM     10  O   UNL d   1     -42.432-122.140 -51.224  0.00  0.00    -0.304 OA
ATOM     11  C   UNL d   1     -42.576-122.252 -50.424  0.00  0.00     0.123 A 
ATOM     12  C   UNL d   1     -41.914-122.427 -50.036  0.00  0.00     0.029 A 
ATOM     13  C   UNL d   1     -41.300-122.434 -50.595  0.00  0.00     0.028 A 
ENDBRANCH   8   9
ENDBRANCH   1   8
BRANCH   2  14
ATOM     14  C   UNL d   1     -42.325-121.893 -54.599  0.00  0.00     0.208 C 
ATOM     15  O   UNL d   1     -43.032-121.494 -54.525  0.00  0.00    -0.286 OA
BRANCH  14  16
ATOM     16  C   UNL d   1     -41.973-121.950 -55.340  0.00  0.00     0.110 C 
ATOM     17 CL   UNL d   1     -42.368-121.665 -56.029  0.00  0.00    -0.078 Cl
ENDBRANCH  14  16
ENDBRANCH   2  14
TORSDOF 4
ENDMDL
MODEL 4
REMARK VINA RESULT:      -3.0      2.433      4.839
REMARK  4 active torsions:
REMARK  status: ('A' for Active; 'I' for Inactive)
REMARK    1  A    between atoms: C_7  and  N_1 
REMARK    2  A    between atoms: C_6  and  C_2 
REMARK    3  A    between atoms: C_17  and  C_6 
REMARK    4  A    between atoms: C_8  and  C_7 
ROOT
ATOM      1  N   UNL d   1     -42.255-123.250 -49.593  0.00  0.00    -0.303 N 
ATOM      2  C   UNL d   1     -41.937-122.662 -50.763  0.00  0.00     0.057 A 
ATOM      3  C   UNL d   1     -41.737-123.272 -50.256  0.00  0.00     0.067 A 
ATOM      4  C   UNL d   1     -42.574-122.256 -50.429  0.00  0.00     0.022 A 
ATOM      5  C   UNL d   1     -42.757-122.638 -49.700  0.00  0.00     0.064 A 
ATOM      6  C   UNL d   1     -41.123-123.817 -50.384  0.00  0.00     0.019 C 
ATOM      7  C   UNL d   1     -43.366-122.404 -49.184  0.00  0.00     0.019 C 
ENDROOT
BRANCH   1   8
ATOM      8  C   UNL d   1     -42.246-123.762 -48.954  0.00  0.00     0.105 C 
BRANCH   8   9
ATOM      9  C   UNL d   1     -41.897-123.528 -48.225  0.00  0.00     0.118 A 
ATOM     10  O   UNL d   1     -41.180-123.194 -48.035  0.00  0.00    -0.304 OA
ATOM     11  C   UNL d   1     -41.183-123.104 -47.220  0.00  0.00     0.123 A 
ATOM     12  C   UNL d   1     -41.858-123.361 -46.907  0.00  0.00     0.029 A 
ATOM     13  C   UNL d   1     -42.327-123.637 -47.535  0.00  0.00     0.028 A 
ENDBRANCH   8   9
ENDBRANCH   1   8
BRANCH   2  14
ATOM     14  C   UNL d   1     -41.581-122.492 -51.456  0.00  0.00     0.208 C 
ATOM     15  O   UNL d   1     -41.503-123.067 -52.029  0.00  0.00    -0.286 OA
BRANCH  14  16
ATOM     16  C   UNL d   1     -41.286-121.738 -51.605  0.00  0.00     0.110 C 
ATOM     17 CL   UNL d   1     -41.137-121.480 -52.394  0.00  0.00    -0.078 Cl
ENDBRANCH  14  16
ENDBRANCH   2  14
TORSDOF 4
ENDMDL
