MODEL 1
REMARK VINA RESULT:       9.9      0.000      0.000
REMARK  4 active torsions:
REMARK  status: ('A' for Active; 'I' for Inactive)
REMARK    1  A    between atoms: C_5  and  C_3 
REMARK    2  A    between atoms: S_7  and  C_4 
REMARK    3  A    between atoms: C_10  and  S_7 
REMARK    4  A    between atoms: C_11  and  C_10 
ROOT
ATOM      1  N   UNL d   1      46.426 -14.917  44.274  0.00  0.00    -0.146 NA
ATOM      2  N   UNL d   1      46.495 -15.735  44.358  0.00  0.00    -0.141 NA
ATOM      3  C   UNL d   1      45.720 -14.535  44.484  0.00  0.00     0.121 A 
ATOM      4  C   UNL d   1      45.870 -16.178  44.647  0.00  0.00     0.132 A 
ATOM      5  C   UNL d   1      45.088 -14.981  44.776  0.00  0.00     0.025 A 
ATOM      6  C   UNL d   1      45.159 -15.796  44.858  0.00  0.00     0.029 A 
ENDROOT
BRANCH   4   7
ATOM      7  S   UNL d   1      45.938 -16.996  44.731  0.00  0.00    -0.066 SA
BRANCH   7   8
ATOM      8  C   UNL d   1      45.912 -17.484  44.072  0.00  0.00     0.037 C 
BRANCH   8   9
ATOM      9  C   UNL d   1      46.158 -18.271  44.137  0.00  0.00     0.006 A 
ATOM     10  C   UNL d   1      46.193 -18.621  44.864  0.00  0.00     0.001 A 
ATOM     11  C   UNL d   1      46.439 -19.407  44.933  0.00  0.00     0.000 A 
ATOM     12  C   UNL d   1      46.647 -19.832  44.266  0.00  0.00     0.000 A 
ATOM     13  C   UNL d   1      46.610 -19.471  43.518  0.00  0.00     0.000 A 
ATOM     14  C   UNL d   1      46.366 -18.692  43.461  0.00  0.00     0.001 A 
ENDBRANCH   8   9
ENDBRANCH   7   8
ENDBRANCH   4   7
BRANCH   3  15
ATOM     15  C   UNL d   1      45.652 -13.718  44.400  0.00  0.00     0.101 A 
ATOM     16  N   UNL d   1      45.204 -13.411  43.793  0.00  0.00    -0.242 NA
ATOM     17  C   UNL d   1      45.134 -12.600  43.706  0.00  0.00     0.099 A 
ATOM     18  C   UNL d   1      45.520 -12.092  44.240  0.00  0.00     0.021 A 
ATOM     19  C   UNL d   1      45.969 -12.405  44.848  0.00  0.00     0.003 A 
ATOM     20  C   UNL d   1      46.043 -13.222  44.939  0.00  0.00     0.021 A 
ENDBRANCH   3  15
TORSDOF 4
ENDMDL
MODEL 2
REMARK VINA RESULT:      11.0      1.192      5.090
REMARK  4 active torsions:
REMARK  status: ('A' for Active; 'I' for Inactive)
REMARK    1  A    between atoms: C_5  and  C_3 
REMARK    2  A    between atoms: S_7  and  C_4 
REMARK    3  A    between atoms: C_10  and  S_7 
REMARK    4  A    between atoms: C_11  and  C_10 
ROOT
ATOM      1  N   UNL d   1      46.292 -17.450  43.324  0.00  0.00    -0.146 NA
ATOM      2  N   UNL d   1      46.158 -16.722  43.688  0.00  0.00    -0.141 NA
ATOM      3  C   UNL d   1      46.244 -18.150  43.767  0.00  0.00     0.121 A 
ATOM      4  C   UNL d   1      45.977 -16.681  44.485  0.00  0.00     0.132 A 
ATOM      5  C   UNL d   1      46.061 -18.111  44.572  0.00  0.00     0.025 A 
ATOM      6  C   UNL d   1      45.928 -17.383  44.931  0.00  0.00     0.029 A 
ENDROOT
BRANCH   4   7
ATOM      7  S   UNL d   1      45.843 -15.952  44.848  0.00  0.00    -0.066 SA
BRANCH   7   8
ATOM      8  C   UNL d   1      45.218 -15.477  44.608  0.00  0.00     0.037 C 
BRANCH   8   9
ATOM      9  C   UNL d   1      45.316 -14.656  44.584  0.00  0.00     0.006 A 
ATOM     10  C   UNL d   1      44.774 -14.199  44.196  0.00  0.00     0.001 A 
ATOM     11  C   UNL d   1      44.868 -13.379  44.170  0.00  0.00     0.000 A 
ATOM     12  C   UNL d   1      45.509 -13.027  44.536  0.00  0.00     0.000 A 
ATOM     13  C   UNL d   1      46.067 -13.499  44.935  0.00  0.00     0.000 A 
ATOM     14  C   UNL d   1      45.964 -14.310  44.955  0.00  0.00     0.001 A 
ENDBRANCH   8   9
ENDBRANCH   7   8
ENDBRANCH   4   7
BRANCH   3  15
ATOM     15  C   UNL d   1      46.377 -18.879  43.404  0.00  0.00     0.101 A 
ATOM     16  N   UNL d   1      46.478 -18.915  42.597  0.00  0.00    -0.242 NA
ATOM     17  C   UNL d   1      46.611 -19.635  42.232  0.00  0.00     0.099 A 
ATOM     18  C   UNL d   1      46.643 -20.330  42.689  0.00  0.00     0.021 A 
ATOM     19  C   UNL d   1      46.541 -20.289  43.500  0.00  0.00     0.003 A 
ATOM     20  C   UNL d   1      46.407 -19.564  43.872  0.00  0.00     0.021 A 
ENDBRANCH   3  15
TORSDOF 4
ENDMDL
