MODEL 1
REMARK VINA RESULT:      68.1      0.000      0.000
REMARK  6 active torsions:
REMARK  status: ('A' for Active; 'I' for Inactive)
REMARK    1  A    between atoms: C_6  and  C_2 
REMARK    2  A    between atoms: C_7  and  C_6 
REMARK    3  A    between atoms: C_8  and  C_15 
REMARK       I    between atoms: N_9  and  C_8 
REMARK    4  A    between atoms: C_16  and  N_9 
REMARK    5  A    between atoms: O_13  and  C_12 
REMARK    6  A    between atoms: C_15  and  O_13 
ROOT
ATOM      1  C   UNL d   1     -49.907  27.220  33.551  0.00  0.00     0.023 A 
ATOM      2  C   UNL d   1     -49.490  27.856  33.865  0.00  0.00     0.100 A 
ATOM      3  C   UNL d   1     -50.681  27.315  33.306  0.00  0.00     0.002 A 
ATOM      4  C   UNL d   1     -49.851  28.591  33.934  0.00  0.00     0.025 A 
ATOM      5  C   UNL d   1     -51.050  28.048  33.371  0.00  0.00     0.000 A 
ATOM      6  C   UNL d   1     -50.629  28.687  33.687  0.00  0.00     0.002 A 
ENDROOT
BRANCH   2   7
ATOM      7  O   UNL d   1     -48.709  27.759  34.112  0.00  0.00    -0.300 OA
BRANCH   7   8
ATOM      8  C   UNL d   1     -48.404  28.260  34.698  0.00  0.00     0.185 C 
BRANCH   8   9
ATOM      9  C   UNL d   1     -47.761  28.011  35.157  0.00  0.00     0.304 C 
ATOM     10  N   UNL d   1     -47.256  28.574  35.488  0.00  0.00    -0.206 NA
ATOM     11  O   UNL d   1     -47.628  27.209  35.280  0.00  0.00    -0.263 OA
BRANCH  10  12
ATOM     12  C   UNL d   1     -47.388  29.375  35.365  0.00  0.00     0.085 A 
ATOM     13  C   UNL d   1     -46.872  29.819  34.902  0.00  0.00     0.021 A 
ATOM     14  C   UNL d   1     -47.005  30.627  34.778  0.00  0.00     0.031 A 
ATOM     15  C   UNL d   1     -47.665  30.991  35.123  0.00  0.00     0.140 A 
ATOM     16  C   UNL d   1     -48.184  30.543  35.588  0.00  0.00     0.031 A 
ATOM     17  F   UNL d   1     -47.806  31.796  35.005  0.00  0.00    -0.204 F 
ATOM     18  C   UNL d   1     -48.048  29.739  35.710  0.00  0.00     0.021 A 
ENDBRANCH  10  12
ENDBRANCH   8   9
ENDBRANCH   7   8
ENDBRANCH   2   7
BRANCH   1  19
ATOM     19  C   UNL d   1     -49.547  26.481  33.481  0.00  0.00     0.013 C 
BRANCH  19  20
ATOM     20  C   UNL d   1     -50.002  25.800  33.420  0.00  0.00     0.092 A 
ATOM     21  C   UNL d   1     -49.722  25.034  33.361  0.00  0.00     0.288 A 
ATOM     22  N   UNL d   1     -50.365  24.528  33.311  0.00  0.00    -0.163 NA
ATOM     23  O   UNL d   1     -48.930  24.809  33.353  0.00  0.00    -0.265 OA
ATOM     24  C   UNL d   1     -51.051  24.986  33.339  0.00  0.00     0.313 A 
ATOM     25  S   UNL d   1     -50.826  25.776  33.407  0.00  0.00    -0.021 SA
ATOM     26  O   UNL d   1     -51.829  24.703  33.306  0.00  0.00    -0.258 OA
ENDBRANCH  19  20
ENDBRANCH   1  19
TORSDOF 6
ENDMDL
MODEL 2
REMARK VINA RESULT:      70.0      2.759      5.453
REMARK  6 active torsions:
REMARK  status: ('A' for Active; 'I' for Inactive)
REMARK    1  A    between atoms: C_6  and  C_2 
REMARK    2  A    between atoms: C_7  and  C_6 
REMARK    3  A    between atoms: C_8  and  C_15 
REMARK       I    between atoms: N_9  and  C_8 
REMARK    4  A    between atoms: C_16  and  N_9 
REMARK    5  A    between atoms: O_13  and  C_12 
REMARK    6  A    between atoms: C_15  and  O_13 
ROOT
ATOM      1  C   UNL d   1     -48.057  29.823  34.911  0.00  0.00     0.023 A 
ATOM      2  C   UNL d   1     -48.445  29.124  34.718  0.00  0.00     0.100 A 
ATOM      3  C   UNL d   1     -47.691  29.906  35.637  0.00  0.00     0.002 A 
ATOM      4  C   UNL d   1     -48.466  28.504  35.256  0.00  0.00     0.025 A 
ATOM      5  C   UNL d   1     -47.708  29.289  36.182  0.00  0.00     0.000 A 
ATOM      6  C   UNL d   1     -48.099  28.585  35.987  0.00  0.00     0.002 A 
ENDROOT
BRANCH   2   7
ATOM      7  O   UNL d   1     -48.814  29.042  33.984  0.00  0.00    -0.300 OA
BRANCH   7   8
ATOM      8  C   UNL d   1     -49.457  28.526  33.910  0.00  0.00     0.185 C 
BRANCH   8   9
ATOM      9  C   UNL d   1     -50.167  28.800  33.582  0.00  0.00     0.304 C 
ATOM     10  N   UNL d   1     -50.724  28.256  33.306  0.00  0.00    -0.206 NA
ATOM     11  O   UNL d   1     -50.315  29.607  33.534  0.00  0.00    -0.263 OA
BRANCH  10  12
ATOM     12  C   UNL d   1     -50.576  27.449  33.354  0.00  0.00     0.085 A 
ATOM     13  C   UNL d   1     -49.808  27.168  33.445  0.00  0.00     0.021 A 
ATOM     14  C   UNL d   1     -49.659  26.355  33.493  0.00  0.00     0.031 A 
ATOM     15  C   UNL d   1     -50.291  25.820  33.450  0.00  0.00     0.140 A 
ATOM     16  C   UNL d   1     -51.063  26.103  33.358  0.00  0.00     0.031 A 
ATOM     17  F   UNL d   1     -50.152  25.008  33.498  0.00  0.00    -0.204 F 
ATOM     18  C   UNL d   1     -51.208  26.914  33.310  0.00  0.00     0.021 A 
ENDBRANCH  10  12
ENDBRANCH   8   9
ENDBRANCH   7   8
ENDBRANCH   2   7
BRANCH   1  19
ATOM     19  C   UNL d   1     -48.034  30.448  34.372  0.00  0.00     0.013 C 
BRANCH  19  20
ATOM     20  C   UNL d   1     -47.744  31.182  34.597  0.00  0.00     0.092 A 
ATOM     21  C   UNL d   1     -48.125  31.901  34.511  0.00  0.00     0.288 A 
ATOM     22  N   UNL d   1     -47.637  32.488  34.809  0.00  0.00    -0.163 NA
ATOM     23  O   UNL d   1     -48.870  32.015  34.180  0.00  0.00    -0.265 OA
ATOM     24  C   UNL d   1     -46.946  32.130  35.085  0.00  0.00     0.313 A 
ATOM     25  S   UNL d   1     -47.013  31.319  34.953  0.00  0.00    -0.021 SA
ATOM     26  O   UNL d   1     -46.301  32.514  35.431  0.00  0.00    -0.258 OA
ENDBRANCH  19  20
ENDBRANCH   1  19
TORSDOF 6
ENDMDL
