MODEL 1
REMARK VINA RESULT:      99.9      0.000      0.000
REMARK  12 active torsions:
REMARK  status: ('A' for Active; 'I' for Inactive)
REMARK    1  A    between atoms: C_23  and  N_1 
REMARK    2  A    between atoms: S_8  and  C_2 
REMARK    3  A    between atoms: C_7  and  C_11 
REMARK       I    between atoms: N_12  and  C_7 
REMARK    4  A    between atoms: C_24  and  S_8 
REMARK    5  A    between atoms: C_25  and  N_12 
REMARK    6  A    between atoms: C_13  and  C_25 
REMARK    7  A    between atoms: C_15  and  C_24 
REMARK    8  A    between atoms: O_26  and  C_15 
REMARK    9  A    between atoms: C_28  and  C_23 
REMARK   10  A    between atoms: C_27  and  O_26 
REMARK   11  A    between atoms: C_30  and  C_28 
REMARK   12  A    between atoms: C_29  and  C_30 
ROOT
ATOM      1  N   UNL d   1     -55.557-102.110 -41.690  0.00  0.00    -0.253 N 
ATOM      2  C   UNL d   1     -55.124-101.438 -41.521  0.00  0.00     0.182 A 
ATOM      3  C   UNL d   1     -55.966-102.173 -42.400  0.00  0.00     0.268 A 
ATOM      4  N   UNL d   1     -55.102-100.827 -42.067  0.00  0.00    -0.222 NA
ATOM      5  C   UNL d   1     -55.945-101.565 -42.945  0.00  0.00     0.074 A 
ATOM      6  C   UNL d   1     -55.507-100.879 -42.780  0.00  0.00     0.088 A 
ATOM      7  C   UNL d   1     -55.481-100.258 -43.329  0.00  0.00     0.024 A 
ATOM      8  C   UNL d   1     -56.352-101.618 -43.662  0.00  0.00     0.006 A 
ATOM      9  C   UNL d   1     -55.892-100.322 -44.042  0.00  0.00     0.059 A 
ATOM     10  O   UNL d   1     -56.404-102.859 -42.565  0.00  0.00    -0.267 OA
ATOM     11  C   UNL d   1     -56.330-101.006 -44.207  0.00  0.00     0.005 A 
ENDROOT
BRANCH   9  12
ATOM     12  C   UNL d   1     -55.868 -99.700 -44.594  0.00  0.00     0.279 C 
ATOM     13  N   UNL d   1     -56.528 -99.240 -44.698  0.00  0.00    -0.204 NA
ATOM     14  O   UNL d   1     -55.175 -99.570 -45.018  0.00  0.00    -0.265 OA
BRANCH  13  15
ATOM     15  C   UNL d   1     -57.212 -99.385 -44.266  0.00  0.00     0.127 C 
BRANCH  15  16
ATOM     16  C   UNL d   1     -57.949 -99.357 -44.636  0.00  0.00     0.119 A 
ATOM     17  O   UNL d   1     -58.332 -98.784 -45.062  0.00  0.00    -0.304 OA
ATOM     18  C   UNL d   1     -59.066 -99.061 -45.303  0.00  0.00     0.123 A 
ATOM     19  C   UNL d   1     -59.127 -99.834 -45.008  0.00  0.00     0.029 A 
ATOM     20  C   UNL d   1     -58.451-100.020 -44.602  0.00  0.00     0.028 A 
ENDBRANCH  15  16
ENDBRANCH  13  15
ENDBRANCH   9  12
BRANCH   2  21
ATOM     21  S   UNL d   1     -54.713-101.375 -40.808  0.00  0.00    -0.044 SA
BRANCH  21  22
ATOM     22  C   UNL d   1     -55.070-101.032 -40.154  0.00  0.00     0.107 C 
BRANCH  22  23
ATOM     23  C   UNL d   1     -55.026-100.214 -40.051  0.00  0.00     0.307 C 
ATOM     24  O   UNL d   1     -54.837 -99.716 -40.687  0.00  0.00    -0.258 OA
BRANCH  23  25
ATOM     25  O   UNL d   1     -55.175 -99.895 -39.299  0.00  0.00    -0.271 OA
BRANCH  25  26
ATOM     26  C   UNL d   1     -54.908 -99.131 -39.132  0.00  0.00     0.126 C 
ATOM     27  C   UNL d   1     -54.775 -98.928 -38.355  0.00  0.00     0.029 C 
ENDBRANCH  25  26
ENDBRANCH  23  25
ENDBRANCH  22  23
ENDBRANCH  21  22
ENDBRANCH   2  21
BRANCH   1  28
ATOM     28  C   UNL d   1     -55.577-102.731 -41.131  0.00  0.00     0.085 C 
BRANCH  28  29
ATOM     29  C   UNL d   1     -56.223-102.815 -40.626  0.00  0.00     0.019 C 
BRANCH  29  30
ATOM     30  C   UNL d   1     -56.126-102.855 -39.819  0.00  0.00     0.002 C 
BRANCH  30  31
ATOM     31  C   UNL d   1     -56.639-102.464 -39.307  0.00  0.00     0.000 C 
ATOM     32  C   UNL d   1     -57.054-102.868 -38.749  0.00  0.00     0.000 C 
ENDBRANCH  30  31
ENDBRANCH  29  30
ENDBRANCH  28  29
ENDBRANCH   1  28
TORSDOF 12
ENDMDL
