MODEL 1
REMARK VINA RESULT:      -3.1      0.000      0.000
REMARK  6 active torsions:
REMARK  status: ('A' for Active; 'I' for Inactive)
REMARK    1  A    between atoms: C_10  and  C_3 
REMARK    2  A    between atoms: N_12  and  C_4 
REMARK    3  A    between atoms: N_11  and  C_14 
REMARK    4  A    between atoms: C_19  and  N_12 
REMARK    5  A    between atoms: C_14  and  C_15 
REMARK    6  A    between atoms: C_15  and  C_19 
ROOT
ATOM      1  C   UNL d   1      56.566  -0.472  32.570  0.00  0.00     0.167 A 
ATOM      2  N   UNL d   1      56.631  -0.994  31.935  0.00  0.00    -0.195 N 
ATOM      3  C   UNL d   1      55.866  -0.640  32.964  0.00  0.00     0.057 A 
ATOM      4  C   UNL d   1      57.284  -0.957  31.435  0.00  0.00     0.167 A 
ATOM      5  N   UNL d   1      55.970  -1.481  31.942  0.00  0.00    -0.161 NA
ATOM      6  N   UNL d   1      57.154   0.089  32.706  0.00  0.00    -0.227 NA
ATOM      7  C   UNL d   1      57.876  -0.392  31.573  0.00  0.00     0.058 A 
ATOM      8  C   UNL d   1      55.501  -1.267  32.569  0.00  0.00     0.124 A 
ATOM      9  C   UNL d   1      57.811   0.125  32.201  0.00  0.00     0.086 A 
ATOM     10  C   UNL d   1      58.413   0.679  32.318  0.00  0.00     0.021 C 
ENDROOT
BRANCH   4  11
ATOM     11  N   UNL d   1      57.349  -1.479  30.800  0.00  0.00    -0.225 NA
BRANCH  11  12
ATOM     12  C   UNL d   1      57.892  -1.333  30.199  0.00  0.00     0.102 C 
BRANCH  12  13
ATOM     13  C   UNL d   1      58.301  -1.966  29.841  0.00  0.00     0.040 C 
BRANCH  13  14
ATOM     14  C   UNL d   1      58.825  -1.817  29.226  0.00  0.00     0.082 C 
BRANCH  14  15
ATOM     15  N   UNL d   1      59.402  -2.380  29.033  0.00  0.00    -0.299 N 
ATOM     16  C   UNL d   1      60.199  -2.156  28.971  0.00  0.00     0.107 A 
ATOM     17  C   UNL d   1      60.773  -2.716  28.779  0.00  0.00     0.142 A 
ATOM     18  O   UNL d   1      60.554  -3.502  28.647  0.00  0.00    -0.300 OA
ATOM     19  C   UNL d   1      59.764  -3.727  28.707  0.00  0.00     0.142 A 
ATOM     20  C   UNL d   1      59.190  -3.167  28.899  0.00  0.00     0.107 A 
ENDBRANCH  14  15
ENDBRANCH  13  14
ENDBRANCH  12  13
ENDBRANCH  11  12
ENDBRANCH   4  11
BRANCH   3  21
ATOM     21  C   UNL d   1      55.643  -0.206  33.632  0.00  0.00     0.004 A 
ATOM     22  C   UNL d   1      56.101  -0.232  34.308  0.00  0.00     0.000 A 
ATOM     23  C   UNL d   1      55.886   0.196  34.974  0.00  0.00     0.000 A 
ATOM     24  C   UNL d   1      55.194   0.660  34.955  0.00  0.00     0.000 A 
ATOM     25  C   UNL d   1      54.738   0.680  34.267  0.00  0.00     0.000 A 
ATOM     26  C   UNL d   1      54.961   0.252  33.613  0.00  0.00     0.000 A 
ENDBRANCH   3  21
TORSDOF 6
ENDMDL
MODEL 2
REMARK VINA RESULT:      -2.5      1.876      5.730
REMARK  6 active torsions:
REMARK  status: ('A' for Active; 'I' for Inactive)
REMARK    1  A    between atoms: C_10  and  C_3 
REMARK    2  A    between atoms: N_12  and  C_4 
REMARK    3  A    between atoms: N_11  and  C_14 
REMARK    4  A    between atoms: C_19  and  N_12 
REMARK    5  A    between atoms: C_14  and  C_15 
REMARK    6  A    between atoms: C_15  and  C_19 
ROOT
ATOM      1  C   UNL d   1      59.248  -1.745  29.358  0.00  0.00     0.167 A 
ATOM      2  N   UNL d   1      58.551  -1.397  29.629  0.00  0.00    -0.195 N 
ATOM      3  C   UNL d   1      59.143  -2.558  29.370  0.00  0.00     0.057 A 
ATOM      4  C   UNL d   1      58.492  -0.577  29.677  0.00  0.00     0.167 A 
ATOM      5  N   UNL d   1      58.022  -1.998  29.806  0.00  0.00    -0.161 NA
ATOM      6  N   UNL d   1      59.886  -1.273  29.135  0.00  0.00    -0.227 NA
ATOM      7  C   UNL d   1      59.134  -0.103  29.453  0.00  0.00     0.058 A 
ATOM      8  C   UNL d   1      58.381  -2.709  29.649  0.00  0.00     0.124 A 
ATOM      9  C   UNL d   1      59.824  -0.447  29.185  0.00  0.00     0.086 A 
ATOM     10  C   UNL d   1      60.451   0.044  28.967  0.00  0.00     0.021 C 
ENDROOT
BRANCH   4  11
ATOM     11  N   UNL d   1      57.794  -0.229  29.948  0.00  0.00    -0.225 NA
BRANCH  11  12
ATOM     12  C   UNL d   1      57.772   0.127  30.692  0.00  0.00     0.102 C 
BRANCH  12  13
ATOM     13  C   UNL d   1      57.077   0.090  31.152  0.00  0.00     0.040 C 
BRANCH  13  14
ATOM     14  C   UNL d   1      57.093   0.339  31.934  0.00  0.00     0.082 C 
BRANCH  14  15
ATOM     15  N   UNL d   1      56.483   0.116  32.450  0.00  0.00    -0.299 N 
ATOM     16  C   UNL d   1      55.946   0.682  32.731  0.00  0.00     0.107 A 
ATOM     17  C   UNL d   1      55.339   0.459  33.243  0.00  0.00     0.142 A 
ATOM     18  O   UNL d   1      55.267  -0.330  33.478  0.00  0.00    -0.300 OA
ATOM     19  C   UNL d   1      55.799  -0.894  33.200  0.00  0.00     0.142 A 
ATOM     20  C   UNL d   1      56.406  -0.671  32.687  0.00  0.00     0.107 A 
ENDBRANCH  14  15
ENDBRANCH  13  14
ENDBRANCH  12  13
ENDBRANCH  11  12
ENDBRANCH   4  11
BRANCH   3  21
ATOM     21  C   UNL d   1      59.751  -3.065  29.127  0.00  0.00     0.004 A 
ATOM     22  C   UNL d   1      59.576  -3.738  28.699  0.00  0.00     0.000 A 
ATOM     23  C   UNL d   1      60.173  -4.245  28.455  0.00  0.00     0.000 A 
ATOM     24  C   UNL d   1      60.964  -4.065  28.648  0.00  0.00     0.000 A 
ATOM     25  C   UNL d   1      61.131  -3.383  29.081  0.00  0.00     0.000 A 
ATOM     26  C   UNL d   1      60.531  -2.888  29.318  0.00  0.00     0.000 A 
ENDBRANCH   3  21
TORSDOF 6
ENDMDL
