MODEL 1
REMARK VINA RESULT:      -7.1      0.000      0.000
REMARK  8 active torsions:
REMARK  status: ('A' for Active; 'I' for Inactive)
REMARK    1  A    between atoms: N_9  and  C_1 
REMARK    2  A    between atoms: C_4  and  S_15 
REMARK    3  A    between atoms: C_18  and  C_8 
REMARK       I    between atoms: C_13  and  N_9 
REMARK       I    between atoms: C_10  and  N_14 
REMARK    4  A    between atoms: C_16  and  C_10 
REMARK    5  A    between atoms: C_22  and  C_13 
REMARK    6  A    between atoms: N_14  and  C_18 
REMARK    7  A    between atoms: S_15  and  C_22 
REMARK    8  A    between atoms: O_26  and  C_23 
ROOT
ATOM      1  O   UNL d   1     -43.303  13.494  21.450  0.00  0.00    -0.262 OA
ATOM      2  C   UNL d   1     -43.863  12.896  21.597  0.00  0.00     0.236 A 
ATOM      3  N   UNL d   1     -43.454  12.200  21.742  0.00  0.00    -0.114 NA
ATOM      4  N   UNL d   1     -42.647  12.362  21.685  0.00  0.00    -0.119 NA
ATOM      5  C   UNL d   1     -42.555  13.157  21.505  0.00  0.00     0.224 A 
ENDROOT
BRANCH   2   6
ATOM      6  S   UNL d   1     -44.684  12.994  21.597  0.00  0.00    -0.036 SA
BRANCH   6   7
ATOM      7  C   UNL d   1     -45.074  13.203  22.284  0.00  0.00     0.101 C 
BRANCH   7   8
ATOM      8  C   UNL d   1     -45.891  13.400  22.263  0.00  0.00     0.288 C 
ATOM      9  N   UNL d   1     -46.238  13.779  22.911  0.00  0.00    -0.182 NA
ATOM     10  O   UNL d   1     -46.339  13.218  21.602  0.00  0.00    -0.265 OA
BRANCH   9  11
ATOM     11  C   UNL d   1     -47.045  13.978  22.899  0.00  0.00     0.197 A 
ATOM     12  N   UNL d   1     -47.355  14.710  22.655  0.00  0.00    -0.221 NA
ATOM     13  C   UNL d   1     -48.177  14.673  22.731  0.00  0.00     0.090 A 
ATOM     14  C   UNL d   1     -48.769  15.218  22.577  0.00  0.00     0.020 A 
ATOM     15  C   UNL d   1     -48.375  13.914  23.023  0.00  0.00     0.050 A 
ATOM     16  C   UNL d   1     -49.566  15.028  22.706  0.00  0.00     0.002 A 
ATOM     17  C   UNL d   1     -49.758  14.272  22.997  0.00  0.00     0.001 A 
ATOM     18  C   UNL d   1     -49.166  13.727  23.151  0.00  0.00     0.008 A 
ATOM     19  S   UNL d   1     -47.673  13.485  23.126  0.00  0.00    -0.047 SA
ENDBRANCH   9  11
ENDBRANCH   7   8
ENDBRANCH   6   7
ENDBRANCH   2   6
BRANCH   5  20
ATOM     20  C   UNL d   1     -41.835  13.550  21.399  0.00  0.00     0.149 C 
BRANCH  20  21
ATOM     21  N   UNL d   1     -41.665  13.924  20.686  0.00  0.00    -0.203 NA
ATOM     22  C   UNL d   1     -40.932  14.297  20.580  0.00  0.00     0.279 C 
ATOM     23  O   UNL d   1     -40.373  14.298  21.183  0.00  0.00    -0.265 OA
BRANCH  22  24
ATOM     24  C   UNL d   1     -40.767  14.672  19.859  0.00  0.00     0.058 A 
ATOM     25  C   UNL d   1     -40.789  15.496  19.805  0.00  0.00     0.007 A 
ATOM     26  C   UNL d   1     -40.623  15.862  19.085  0.00  0.00     0.024 A 
ATOM     27  C   UNL d   1     -40.439  15.397  18.431  0.00  0.00     0.094 A 
ATOM     28  C   UNL d   1     -40.419  14.589  18.485  0.00  0.00     0.024 A 
ATOM     29  C   UNL d   1     -40.584  14.224  19.204  0.00  0.00     0.007 A 
BRANCH  27  30
ATOM     30  O   UNL d   1     -40.273  15.766  17.707  0.00  0.00    -0.328 OA
ATOM     31  C   UNL d   1     -40.832  15.758  17.087  0.00  0.00     0.181 C 
ENDBRANCH  27  30
ENDBRANCH  22  24
ENDBRANCH  20  21
ENDBRANCH   5  20
TORSDOF 8
ENDMDL
MODEL 2
REMARK VINA RESULT:      -6.5      1.835      7.669
REMARK  8 active torsions:
REMARK  status: ('A' for Active; 'I' for Inactive)
REMARK    1  A    between atoms: N_9  and  C_1 
REMARK    2  A    between atoms: C_4  and  S_15 
REMARK    3  A    between atoms: C_18  and  C_8 
REMARK       I    between atoms: C_13  and  N_9 
REMARK       I    between atoms: C_10  and  N_14 
REMARK    4  A    between atoms: C_16  and  C_10 
REMARK    5  A    between atoms: C_22  and  C_13 
REMARK    6  A    between atoms: N_14  and  C_18 
REMARK    7  A    between atoms: S_15  and  C_22 
REMARK    8  A    between atoms: O_26  and  C_23 
ROOT
ATOM      1  O   UNL d   1     -44.001  13.429  21.723  0.00  0.00    -0.262 OA
ATOM      2  C   UNL d   1     -43.399  12.900  21.495  0.00  0.00     0.236 A 
ATOM      3  N   UNL d   1     -43.580  12.165  21.811  0.00  0.00    -0.114 NA
ATOM      4  N   UNL d   1     -44.286  12.234  22.232  0.00  0.00    -0.119 NA
ATOM      5  C   UNL d   1     -44.544  13.011  22.177  0.00  0.00     0.224 A 
ENDROOT
BRANCH   2   6
ATOM      6  S   UNL d   1     -42.741  13.089  21.032  0.00  0.00    -0.036 SA
BRANCH   6   7
ATOM      7  C   UNL d   1     -42.256  13.713  21.242  0.00  0.00     0.101 C 
BRANCH   7   8
ATOM      8  C   UNL d   1     -41.627  13.949  20.736  0.00  0.00     0.288 C 
ATOM      9  N   UNL d   1     -41.107  14.544  20.979  0.00  0.00    -0.182 NA
ATOM     10  O   UNL d   1     -41.532  13.589  20.006  0.00  0.00    -0.265 OA
BRANCH   9  11
ATOM     11  C   UNL d   1     -40.482  14.783  20.485  0.00  0.00     0.197 A 
ATOM     12  N   UNL d   1     -39.723  14.444  20.474  0.00  0.00    -0.221 NA
ATOM     13  C   UNL d   1     -39.276  14.846  19.906  0.00  0.00     0.090 A 
ATOM     14  C   UNL d   1     -38.502  14.760  19.652  0.00  0.00     0.020 A 
ATOM     15  C   UNL d   1     -39.763  15.435  19.565  0.00  0.00     0.050 A 
ATOM     16  C   UNL d   1     -38.192  15.251  19.059  0.00  0.00     0.002 A 
ATOM     17  C   UNL d   1     -38.680  15.835  18.724  0.00  0.00     0.001 A 
ATOM     18  C   UNL d   1     -39.454  15.921  18.977  0.00  0.00     0.008 A 
ATOM     19  S   UNL d   1     -40.509  15.395  19.925  0.00  0.00    -0.047 SA
ENDBRANCH   9  11
ENDBRANCH   7   8
ENDBRANCH   6   7
ENDBRANCH   2   6
BRANCH   5  20
ATOM     20  C   UNL d   1     -45.231  13.319  22.519  0.00  0.00     0.149 C 
BRANCH  20  21
ATOM     21  N   UNL d   1     -45.921  12.872  22.544  0.00  0.00    -0.203 NA
ATOM     22  C   UNL d   1     -46.604  13.186  22.895  0.00  0.00     0.279 C 
ATOM     23  O   UNL d   1     -46.596  13.943  23.219  0.00  0.00    -0.265 OA
BRANCH  22  24
ATOM     24  C   UNL d   1     -47.296  12.731  22.917  0.00  0.00     0.058 A 
ATOM     25  C   UNL d   1     -47.884  12.841  22.345  0.00  0.00     0.007 A 
ATOM     26  C   UNL d   1     -48.569  12.385  22.373  0.00  0.00     0.024 A 
ATOM     27  C   UNL d   1     -48.657  11.826  22.971  0.00  0.00     0.094 A 
ATOM     28  C   UNL d   1     -48.081  11.719  23.531  0.00  0.00     0.024 A 
ATOM     29  C   UNL d   1     -47.395  12.175  23.503  0.00  0.00     0.007 A 
BRANCH  27  30
ATOM     30  O   UNL d   1     -49.347  11.368  22.999  0.00  0.00    -0.328 OA
ATOM     31  C   UNL d   1     -50.086  11.720  23.158  0.00  0.00     0.181 C 
ENDBRANCH  27  30
ENDBRANCH  22  24
ENDBRANCH  20  21
ENDBRANCH   5  20
TORSDOF 8
ENDMDL
MODEL 3
REMARK VINA RESULT:      -6.2      1.545      7.306
REMARK  8 active torsions:
REMARK  status: ('A' for Active; 'I' for Inactive)
REMARK    1  A    between atoms: N_9  and  C_1 
REMARK    2  A    between atoms: C_4  and  S_15 
REMARK    3  A    between atoms: C_18  and  C_8 
REMARK       I    between atoms: C_13  and  N_9 
REMARK       I    between atoms: C_10  and  N_14 
REMARK    4  A    between atoms: C_16  and  C_10 
REMARK    5  A    between atoms: C_22  and  C_13 
REMARK    6  A    between atoms: N_14  and  C_18 
REMARK    7  A    between atoms: S_15  and  C_22 
REMARK    8  A    between atoms: O_26  and  C_23 
ROOT
ATOM      1  O   UNL d   1     -43.963  13.206  21.819  0.00  0.00    -0.262 OA
ATOM      2  C   UNL d   1     -43.243  13.012  21.448  0.00  0.00     0.236 A 
ATOM      3  N   UNL d   1     -43.076  12.229  21.619  0.00  0.00    -0.114 NA
ATOM      4  N   UNL d   1     -43.684  11.935  22.092  0.00  0.00    -0.119 NA
ATOM      5  C   UNL d   1     -44.229  12.536  22.215  0.00  0.00     0.224 A 
ENDROOT
BRANCH   2   6
ATOM      6  S   UNL d   1     -42.785  13.526  20.989  0.00  0.00    -0.036 SA
BRANCH   6   7
ATOM      7  C   UNL d   1     -41.972  13.537  21.071  0.00  0.00     0.101 C 
BRANCH   7   8
ATOM      8  C   UNL d   1     -41.507  14.058  20.604  0.00  0.00     0.288 C 
ATOM      9  N   UNL d   1     -41.042  13.756  19.991  0.00  0.00    -0.182 NA
ATOM     10  O   UNL d   1     -41.515  14.863  20.758  0.00  0.00    -0.265 OA
BRANCH   9  11
ATOM     11  C   UNL d   1     -40.578  14.264  19.524  0.00  0.00     0.197 A 
ATOM     12  N   UNL d   1     -40.795  14.561  18.778  0.00  0.00    -0.221 NA
ATOM     13  C   UNL d   1     -40.178  15.042  18.510  0.00  0.00     0.090 A 
ATOM     14  C   UNL d   1     -40.078  15.476  17.823  0.00  0.00     0.020 A 
ATOM     15  C   UNL d   1     -39.578  15.041  19.094  0.00  0.00     0.050 A 
ATOM     16  C   UNL d   1     -39.387  15.918  17.697  0.00  0.00     0.002 A 
ATOM     17  C   UNL d   1     -38.793  15.915  18.280  0.00  0.00     0.001 A 
ATOM     18  C   UNL d   1     -38.894  15.480  18.967  0.00  0.00     0.008 A 
ATOM     19  S   UNL d   1     -39.827  14.559  19.721  0.00  0.00    -0.047 SA
ENDBRANCH   9  11
ENDBRANCH   7   8
ENDBRANCH   6   7
ENDBRANCH   2   6
BRANCH   5  20
ATOM     20  C   UNL d   1     -44.924  12.477  22.659  0.00  0.00     0.149 C 
BRANCH  20  21
ATOM     21  N   UNL d   1     -45.591  12.911  22.449  0.00  0.00    -0.203 NA
ATOM     22  C   UNL d   1     -46.234  12.958  22.970  0.00  0.00     0.279 C 
ATOM     23  O   UNL d   1     -46.210  12.575  23.698  0.00  0.00    -0.265 OA
BRANCH  22  24
ATOM     24  C   UNL d   1     -46.903  13.396  22.752  0.00  0.00     0.058 A 
ATOM     25  C   UNL d   1     -47.529  13.030  22.356  0.00  0.00     0.007 A 
ATOM     26  C   UNL d   1     -48.191  13.471  22.143  0.00  0.00     0.024 A 
ATOM     27  C   UNL d   1     -48.217  14.272  22.329  0.00  0.00     0.094 A 
ATOM     28  C   UNL d   1     -47.603  14.631  22.717  0.00  0.00     0.024 A 
ATOM     29  C   UNL d   1     -46.941  14.190  22.931  0.00  0.00     0.007 A 
BRANCH  27  30
ATOM     30  O   UNL d   1     -48.884  14.716  22.113  0.00  0.00    -0.328 OA
ATOM     31  C   UNL d   1     -49.306  15.152  22.685  0.00  0.00     0.181 C 
ENDBRANCH  27  30
ENDBRANCH  22  24
ENDBRANCH  20  21
ENDBRANCH   5  20
TORSDOF 8
ENDMDL
MODEL 4
REMARK VINA RESULT:      -4.5      1.911      2.906
REMARK  8 active torsions:
REMARK  status: ('A' for Active; 'I' for Inactive)
REMARK    1  A    between atoms: N_9  and  C_1 
REMARK    2  A    between atoms: C_4  and  S_15 
REMARK    3  A    between atoms: C_18  and  C_8 
REMARK       I    between atoms: C_13  and  N_9 
REMARK       I    between atoms: C_10  and  N_14 
REMARK    4  A    between atoms: C_16  and  C_10 
REMARK    5  A    between atoms: C_22  and  C_13 
REMARK    6  A    between atoms: N_14  and  C_18 
REMARK    7  A    between atoms: S_15  and  C_22 
REMARK    8  A    between atoms: O_26  and  C_23 
ROOT
ATOM      1  O   UNL d   1     -41.014  13.684  20.868  0.00  0.00    -0.262 OA
ATOM      2  C   UNL d   1     -41.802  13.865  21.072  0.00  0.00     0.236 A 
ATOM      3  N   UNL d   1     -41.952  14.633  20.830  0.00  0.00    -0.114 NA
ATOM      4  N   UNL d   1     -41.267  14.930  20.479  0.00  0.00    -0.119 NA
ATOM      5  C   UNL d   1     -40.691  14.346  20.503  0.00  0.00     0.224 A 
ENDROOT
BRANCH   2   6
ATOM      6  S   UNL d   1     -42.331  13.354  21.450  0.00  0.00    -0.036 SA
BRANCH   6   7
ATOM      7  C   UNL d   1     -43.060  13.196  21.117  0.00  0.00     0.101 C 
BRANCH   7   8
ATOM      8  C   UNL d   1     -43.688  12.904  21.593  0.00  0.00     0.288 C 
ATOM      9  N   UNL d   1     -44.405  13.316  21.624  0.00  0.00    -0.182 NA
ATOM     10  O   UNL d   1     -43.589  12.215  22.024  0.00  0.00    -0.265 OA
BRANCH   9  11
ATOM     11  C   UNL d   1     -45.032  13.034  22.092  0.00  0.00     0.197 A 
ATOM     12  N   UNL d   1     -45.047  12.300  22.482  0.00  0.00    -0.221 NA
ATOM     13  C   UNL d   1     -45.768  12.243  22.882  0.00  0.00     0.090 A 
ATOM     14  C   UNL d   1     -46.091  11.656  23.354  0.00  0.00     0.020 A 
ATOM     15  C   UNL d   1     -46.200  12.945  22.738  0.00  0.00     0.050 A 
ATOM     16  C   UNL d   1     -46.843  11.748  23.692  0.00  0.00     0.002 A 
ATOM     17  C   UNL d   1     -47.268  12.448  23.544  0.00  0.00     0.001 A 
ATOM     18  C   UNL d   1     -46.946  13.035  23.073  0.00  0.00     0.008 A 
ATOM     19  S   UNL d   1     -45.742  13.434  22.248  0.00  0.00    -0.047 SA
ENDBRANCH   9  11
ENDBRANCH   7   8
ENDBRANCH   6   7
ENDBRANCH   2   6
BRANCH   5  20
ATOM     20  C   UNL d   1     -39.921  14.412  20.211  0.00  0.00     0.149 C 
BRANCH  20  21
ATOM     21  N   UNL d   1     -39.750  14.206  19.433  0.00  0.00    -0.203 NA
ATOM     22  C   UNL d   1     -38.972  14.263  19.151  0.00  0.00     0.279 C 
ATOM     23  O   UNL d   1     -38.368  14.525  19.645  0.00  0.00    -0.265 OA
BRANCH  22  24
ATOM     24  C   UNL d   1     -38.807  14.053  18.367  0.00  0.00     0.058 A 
ATOM     25  C   UNL d   1     -38.854  13.263  18.129  0.00  0.00     0.007 A 
ATOM     26  C   UNL d   1     -38.689  13.061  17.348  0.00  0.00     0.024 A 
ATOM     27  C   UNL d   1     -38.479  13.653  16.815  0.00  0.00     0.094 A 
ATOM     28  C   UNL d   1     -38.434  14.428  17.049  0.00  0.00     0.024 A 
ATOM     29  C   UNL d   1     -38.599  14.629  17.830  0.00  0.00     0.007 A 
BRANCH  27  30
ATOM     30  O   UNL d   1     -38.313  13.450  16.029  0.00  0.00    -0.328 OA
ATOM     31  C   UNL d   1     -38.300  14.034  15.433  0.00  0.00     0.181 C 
ENDBRANCH  27  30
ENDBRANCH  22  24
ENDBRANCH  20  21
ENDBRANCH   5  20
TORSDOF 8
ENDMDL
