MODEL 1
REMARK VINA RESULT:      51.4      0.000      0.000
REMARK  7 active torsions:
REMARK  status: ('A' for Active; 'I' for Inactive)
REMARK    1  A    between atoms: C_7  and  N_1 
REMARK    2  A    between atoms: S_15  and  C_3 
REMARK    3  A    between atoms: O_8  and  C_7 
REMARK    4  A    between atoms: C_10  and  O_8 
REMARK    5  A    between atoms: C_19  and  C_10 
REMARK    6  A    between atoms: C_13  and  O_14 
REMARK    7  A    between atoms: O_14  and  C_19 
ROOT
ATOM      1  O   UNL d   1      58.929  49.069  50.751  0.00  0.00    -0.251 OA
ENDROOT
BRANCH   1   2
ATOM      2  C   UNL d   1      58.417  49.655  51.024  0.00  0.00     0.215 C 
BRANCH   2   3
ATOM      3  N   UNL d   1      57.627  49.666  50.778  0.00  0.00    -0.229 N 
ATOM      4  C   UNL d   1      57.448  49.652  49.972  0.00  0.00     0.287 A 
ATOM      5  C   UNL d   1      56.661  49.663  49.724  0.00  0.00     0.159 A 
ATOM      6  O   UNL d   1      58.056  49.627  49.415  0.00  0.00    -0.265 OA
ATOM      7  C   UNL d   1      56.492  49.648  48.909  0.00  0.00     0.028 C 
ATOM      8  N   UNL d   1      56.053  49.687  50.281  0.00  0.00    -0.141 NA
ATOM      9  N   UNL d   1      56.232  49.701  51.086  0.00  0.00    -0.123 NA
ATOM     10  C   UNL d   1      57.019  49.691  51.335  0.00  0.00     0.200 A 
BRANCH  10  11
ATOM     11  S   UNL d   1      57.198  49.705  52.140  0.00  0.00    -0.074 SA
ATOM     12  C   UNL d   1      56.646  49.433  52.690  0.00  0.00     0.077 C 
ENDBRANCH  10  11
ENDBRANCH   2   3
ENDBRANCH   1   2
BRANCH   1  13
ATOM     13  C   UNL d   1      59.735  49.230  50.667  0.00  0.00     0.327 C 
ATOM     14  O   UNL d   1      60.001  49.677  50.025  0.00  0.00    -0.256 OA
BRANCH  13  15
ATOM     15  C   UNL d   1      60.273  48.945  51.223  0.00  0.00     0.191 C 
BRANCH  15  16
ATOM     16  O   UNL d   1      61.050  48.795  51.005  0.00  0.00    -0.299 OA
BRANCH  16  17
ATOM     17  C   UNL d   1      61.247  48.084  50.636  0.00  0.00     0.111 A 
ATOM     18  C   UNL d   1      61.146  47.373  51.029  0.00  0.00     0.081 A 
ATOM     19  C   UNL d   1      61.343  46.662  50.660  0.00  0.00     0.025 A 
ATOM     20 CL   UNL d   1      60.841  47.373  51.810  0.00  0.00    -0.080 Cl
ATOM     21  C   UNL d   1      61.641  46.662  49.898  0.00  0.00     0.059 A 
ATOM     22  C   UNL d   1      61.744  47.376  49.498  0.00  0.00     0.013 A 
ATOM     23 CL   UNL d   1      61.836  45.948  49.533  0.00  0.00    -0.082 Cl
ATOM     24  C   UNL d   1      61.547  48.087  49.867  0.00  0.00     0.026 A 
ENDBRANCH  16  17
ENDBRANCH  15  16
ENDBRANCH  13  15
ENDBRANCH   1  13
TORSDOF 7
ENDMDL
