MODEL 1
REMARK VINA RESULT:      -2.4      0.000      0.000
REMARK  9 active torsions:
REMARK  status: ('A' for Active; 'I' for Inactive)
REMARK    1  A    between atoms: C_5  and  C_1 
REMARK    2  A    between atoms: N_4  and  C_2 
REMARK       I    between atoms: C_3  and  N_4 
REMARK    3  A    between atoms: C_10  and  C_3 
REMARK    4  A    between atoms: N_6  and  C_5 
REMARK    5  A    between atoms: C_12  and  C_5 
REMARK    6  A    between atoms: C_14  and  N_6 
REMARK    7  A    between atoms: C_8  and  C_14 
REMARK    8  A    between atoms: O_17  and  C_8 
REMARK    9  A    between atoms: C_23  and  O_17 
ROOT
ATOM      1  C   UNL d   1     -47.470  13.297  22.687  0.00  0.00     0.036 A 
ATOM      2  C   UNL d   1     -48.180  12.966  22.475  0.00  0.00     0.086 A 
ATOM      3  C   UNL d   1     -47.442  14.083  22.915  0.00  0.00     0.010 A 
ATOM      4  C   UNL d   1     -48.877  13.408  22.486  0.00  0.00     0.020 A 
ATOM      5  C   UNL d   1     -48.129  14.540  22.931  0.00  0.00     0.035 A 
ATOM      6  C   UNL d   1     -48.863  14.181  22.708  0.00  0.00     0.008 A 
ATOM      7 BR   UNL d   1     -48.099  15.345  23.166  0.00  0.00    -0.049 Br
ENDROOT
BRANCH   1   8
ATOM      8  C   UNL d   1     -46.773  12.855  22.676  0.00  0.00     0.083 C 
BRANCH   8   9
ATOM      9  N   UNL d   1     -46.724  12.131  23.045  0.00  0.00    -0.238 NA
BRANCH   9  10
ATOM     10  C   UNL d   1     -46.019  11.943  23.442  0.00  0.00     0.167 C 
BRANCH  10  11
ATOM     11  C   UNL d   1     -45.853  11.130  23.587  0.00  0.00     0.320 C 
ATOM     12  O   UNL d   1     -46.504  10.594  23.673  0.00  0.00    -0.257 OA
BRANCH  11  13
ATOM     13  O   UNL d   1     -45.079  10.853  23.647  0.00  0.00    -0.270 OA
BRANCH  13  14
ATOM     14  C   UNL d   1     -44.937  10.068  23.698  0.00  0.00     0.126 C 
ATOM     15  C   UNL d   1     -44.230   9.786  23.439  0.00  0.00     0.029 C 
ENDBRANCH  13  14
ENDBRANCH  11  13
ENDBRANCH  10  11
ENDBRANCH   9  10
ENDBRANCH   8   9
BRANCH   8  16
ATOM     16  C   UNL d   1     -46.113  13.148  22.285  0.00  0.00     0.018 A 
ATOM     17  C   UNL d   1     -45.630  13.716  22.638  0.00  0.00     0.002 A 
ATOM     18  C   UNL d   1     -44.971  14.020  22.267  0.00  0.00     0.000 A 
ATOM     19  C   UNL d   1     -44.784  13.730  21.483  0.00  0.00     0.000 A 
ATOM     20  C   UNL d   1     -45.263  13.162  21.123  0.00  0.00     0.000 A 
ATOM     21  C   UNL d   1     -45.925  12.871  21.522  0.00  0.00     0.002 A 
ENDBRANCH   8  16
ENDBRANCH   1   8
BRANCH   2  22
ATOM     22  N   UNL d   1     -48.202  12.154  22.240  0.00  0.00    -0.208 NA
ATOM     23  C   UNL d   1     -48.922  11.808  22.019  0.00  0.00     0.279 C 
ATOM     24  O   UNL d   1     -48.941  11.034  21.796  0.00  0.00    -0.265 OA
BRANCH  23  25
ATOM     25  C   UNL d   1     -49.617  12.239  22.023  0.00  0.00     0.058 A 
ATOM     26  C   UNL d   1     -49.831  12.700  21.379  0.00  0.00     0.005 A 
ATOM     27  C   UNL d   1     -50.537  13.128  21.401  0.00  0.00     0.000 A 
ATOM     28  C   UNL d   1     -51.017  13.090  22.060  0.00  0.00     0.000 A 
ATOM     29  C   UNL d   1     -50.804  12.634  22.694  0.00  0.00     0.000 A 
ATOM     30  C   UNL d   1     -50.098  12.206  22.673  0.00  0.00     0.005 A 
ENDBRANCH  23  25
ENDBRANCH   2  22
TORSDOF 9
ENDMDL
MODEL 2
REMARK VINA RESULT:      -2.4      1.891      2.916
REMARK  9 active torsions:
REMARK  status: ('A' for Active; 'I' for Inactive)
REMARK    1  A    between atoms: C_5  and  C_1 
REMARK    2  A    between atoms: N_4  and  C_2 
REMARK       I    between atoms: C_3  and  N_4 
REMARK    3  A    between atoms: C_10  and  C_3 
REMARK    4  A    between atoms: N_6  and  C_5 
REMARK    5  A    between atoms: C_12  and  C_5 
REMARK    6  A    between atoms: C_14  and  N_6 
REMARK    7  A    between atoms: C_8  and  C_14 
REMARK    8  A    between atoms: O_17  and  C_8 
REMARK    9  A    between atoms: C_23  and  O_17 
ROOT
ATOM      1  C   UNL d   1     -48.139  13.132  21.984  0.00  0.00     0.036 A 
ATOM      2  C   UNL d   1     -48.434  13.880  22.101  0.00  0.00     0.086 A 
ATOM      3  C   UNL d   1     -48.565  12.597  21.534  0.00  0.00     0.010 A 
ATOM      4  C   UNL d   1     -49.156  14.110  21.775  0.00  0.00     0.020 A 
ATOM      5  C   UNL d   1     -49.289  12.809  21.200  0.00  0.00     0.035 A 
ATOM      6  C   UNL d   1     -49.583  13.593  21.331  0.00  0.00     0.008 A 
ATOM      7 BR   UNL d   1     -49.724  12.259  20.740  0.00  0.00    -0.049 Br
ENDROOT
BRANCH   1   8
ATOM      8  C   UNL d   1     -47.417  12.902  22.310  0.00  0.00     0.083 C 
BRANCH   8   9
ATOM      9  N   UNL d   1     -46.739  13.336  22.187  0.00  0.00    -0.238 NA
BRANCH   9  10
ATOM     10  C   UNL d   1     -46.045  12.926  21.985  0.00  0.00     0.167 C 
BRANCH  10  11
ATOM     11  C   UNL d   1     -45.342  13.374  21.873  0.00  0.00     0.320 C 
ATOM     12  O   UNL d   1     -45.232  14.076  22.333  0.00  0.00    -0.257 OA
BRANCH  11  13
ATOM     13  O   UNL d   1     -44.766  13.142  21.329  0.00  0.00    -0.270 OA
BRANCH  13  14
ATOM     14  C   UNL d   1     -43.991  13.234  21.502  0.00  0.00     0.126 C 
ATOM     15  C   UNL d   1     -43.476  12.657  21.284  0.00  0.00     0.029 C 
ENDBRANCH  13  14
ENDBRANCH  11  13
ENDBRANCH  10  11
ENDBRANCH   9  10
ENDBRANCH   8   9
BRANCH   8  16
ATOM     16  C   UNL d   1     -47.378  12.222  22.767  0.00  0.00     0.018 A 
ATOM     17  C   UNL d   1     -47.999  11.679  22.773  0.00  0.00     0.002 A 
ATOM     18  C   UNL d   1     -47.978  10.997  23.220  0.00  0.00     0.000 A 
ATOM     19  C   UNL d   1     -47.282  10.853  23.698  0.00  0.00     0.000 A 
ATOM     20  C   UNL d   1     -46.657  11.392  23.698  0.00  0.00     0.000 A 
ATOM     21  C   UNL d   1     -46.704  12.074  23.235  0.00  0.00     0.002 A 
ENDBRANCH   8  16
ENDBRANCH   1   8
BRANCH   2  22
ATOM     22  N   UNL d   1     -47.989  14.429  22.566  0.00  0.00    -0.208 NA
ATOM     23  C   UNL d   1     -48.384  14.982  23.039  0.00  0.00     0.279 C 
ATOM     24  O   UNL d   1     -47.960  15.504  23.482  0.00  0.00    -0.265 OA
BRANCH  23  25
ATOM     25  C   UNL d   1     -49.201  15.009  23.067  0.00  0.00     0.058 A 
ATOM     26  C   UNL d   1     -49.628  15.440  22.514  0.00  0.00     0.005 A 
ATOM     27  C   UNL d   1     -50.452  15.457  22.558  0.00  0.00     0.000 A 
ATOM     28  C   UNL d   1     -50.838  15.045  23.149  0.00  0.00     0.000 A 
ATOM     29  C   UNL d   1     -50.414  14.621  23.692  0.00  0.00     0.000 A 
ATOM     30  C   UNL d   1     -49.590  14.604  23.649  0.00  0.00     0.005 A 
ENDBRANCH  23  25
ENDBRANCH   2  22
TORSDOF 9
ENDMDL
MODEL 3
REMARK VINA RESULT:      -1.5      2.055      4.703
REMARK  9 active torsions:
REMARK  status: ('A' for Active; 'I' for Inactive)
REMARK    1  A    between atoms: C_5  and  C_1 
REMARK    2  A    between atoms: N_4  and  C_2 
REMARK       I    between atoms: C_3  and  N_4 
REMARK    3  A    between atoms: C_10  and  C_3 
REMARK    4  A    between atoms: N_6  and  C_5 
REMARK    5  A    between atoms: C_12  and  C_5 
REMARK    6  A    between atoms: C_14  and  N_6 
REMARK    7  A    between atoms: C_8  and  C_14 
REMARK    8  A    between atoms: O_17  and  C_8 
REMARK    9  A    between atoms: C_23  and  O_17 
ROOT
ATOM      1  C   UNL d   1     -47.974  12.813  22.991  0.00  0.00     0.036 A 
ATOM      2  C   UNL d   1     -47.212  13.069  23.103  0.00  0.00     0.086 A 
ATOM      3  C   UNL d   1     -48.174  12.043  23.187  0.00  0.00     0.010 A 
ATOM      4  C   UNL d   1     -46.634  12.568  23.412  0.00  0.00     0.020 A 
ATOM      5  C   UNL d   1     -47.609  11.528  23.497  0.00  0.00     0.035 A 
ATOM      6  C   UNL d   1     -46.819  11.810  23.608  0.00  0.00     0.008 A 
ATOM      7 BR   UNL d   1     -47.817  10.739  23.697  0.00  0.00    -0.049 Br
ENDROOT
BRANCH   1   8
ATOM      8  C   UNL d   1     -48.552  13.314  22.682  0.00  0.00     0.083 C 
BRANCH   8   9
ATOM      9  N   UNL d   1     -48.643  14.076  22.956  0.00  0.00    -0.238 NA
BRANCH   9  10
ATOM     10  C   UNL d   1     -49.388  14.433  22.873  0.00  0.00     0.167 C 
BRANCH  10  11
ATOM     11  C   UNL d   1     -49.435  15.270  22.956  0.00  0.00     0.320 C 
ATOM     12  O   UNL d   1     -49.197  15.755  22.304  0.00  0.00    -0.257 OA
BRANCH  11  13
ATOM     13  O   UNL d   1     -49.706  15.618  23.653  0.00  0.00    -0.270 OA
BRANCH  13  14
ATOM     14  C   UNL d   1     -50.452  15.901  23.696  0.00  0.00     0.126 C 
ATOM     15  C   UNL d   1     -51.064  15.379  23.691  0.00  0.00     0.029 C 
ENDBRANCH  13  14
ENDBRANCH  11  13
ENDBRANCH  10  11
ENDBRANCH   9  10
ENDBRANCH   8   9
BRANCH   8  16
ATOM     16  C   UNL d   1     -49.047  13.043  22.087  0.00  0.00     0.018 A 
ATOM     17  C   UNL d   1     -49.784  12.716  22.264  0.00  0.00     0.002 A 
ATOM     18  C   UNL d   1     -50.290  12.442  21.687  0.00  0.00     0.000 A 
ATOM     19  C   UNL d   1     -50.035  12.501  20.871  0.00  0.00     0.000 A 
ATOM     20  C   UNL d   1     -49.300  12.827  20.685  0.00  0.00     0.000 A 
ATOM     21  C   UNL d   1     -48.807  13.098  21.290  0.00  0.00     0.002 A 
ENDBRANCH   8  16
ENDBRANCH   1   8
BRANCH   2  22
ATOM     22  N   UNL d   1     -47.012  13.865  22.899  0.00  0.00    -0.208 NA
ATOM     23  C   UNL d   1     -46.267  14.031  22.575  0.00  0.00     0.279 C 
ATOM     24  O   UNL d   1     -46.077  14.790  22.381  0.00  0.00    -0.265 OA
BRANCH  23  25
ATOM     25  C   UNL d   1     -45.718  13.439  22.448  0.00  0.00     0.058 A 
ATOM     26  C   UNL d   1     -45.233  13.176  23.055  0.00  0.00     0.005 A 
ATOM     27  C   UNL d   1     -44.684  12.577  22.909  0.00  0.00     0.000 A 
ATOM     28  C   UNL d   1     -44.627  12.250  22.162  0.00  0.00     0.000 A 
ATOM     29  C   UNL d   1     -45.106  12.512  21.565  0.00  0.00     0.000 A 
ATOM     30  C   UNL d   1     -45.655  13.111  21.712  0.00  0.00     0.005 A 
ENDBRANCH  23  25
ENDBRANCH   2  22
TORSDOF 9
ENDMDL
MODEL 4
REMARK VINA RESULT:      -0.3      8.306     10.202
REMARK  9 active torsions:
REMARK  status: ('A' for Active; 'I' for Inactive)
REMARK    1  A    between atoms: C_5  and  C_1 
REMARK    2  A    between atoms: N_4  and  C_2 
REMARK       I    between atoms: C_3  and  N_4 
REMARK    3  A    between atoms: C_10  and  C_3 
REMARK    4  A    between atoms: N_6  and  C_5 
REMARK    5  A    between atoms: C_12  and  C_5 
REMARK    6  A    between atoms: C_14  and  N_6 
REMARK    7  A    between atoms: C_8  and  C_14 
REMARK    8  A    between atoms: O_17  and  C_8 
REMARK    9  A    between atoms: C_23  and  O_17 
ROOT
ATOM      1  C   UNL d   1     -38.655  14.109  19.089  0.00  0.00     0.036 A 
ATOM      2  C   UNL d   1     -38.472  14.296  19.858  0.00  0.00     0.086 A 
ATOM      3  C   UNL d   1     -38.482  13.361  18.804  0.00  0.00     0.010 A 
ATOM      4  C   UNL d   1     -38.114  13.746  20.358  0.00  0.00     0.020 A 
ATOM      5  C   UNL d   1     -38.124  12.798  19.290  0.00  0.00     0.035 A 
ATOM      6  C   UNL d   1     -37.940  13.008  20.089  0.00  0.00     0.008 A 
ATOM      7 BR   UNL d   1     -37.948  12.032  18.996  0.00  0.00    -0.049 Br
ENDROOT
BRANCH   1   8
ATOM      8  C   UNL d   1     -39.013  14.659  18.590  0.00  0.00     0.083 C 
BRANCH   8   9
ATOM      9  N   UNL d   1     -38.576  15.222  18.197  0.00  0.00    -0.238 NA
BRANCH   9  10
ATOM     10  C   UNL d   1     -37.940  14.964  17.728  0.00  0.00     0.167 C 
BRANCH  10  11
ATOM     11  C   UNL d   1     -37.972  15.117  16.901  0.00  0.00     0.320 C 
ATOM     12  O   UNL d   1     -38.026  15.922  16.641  0.00  0.00    -0.257 OA
BRANCH  11  13
ATOM     13  O   UNL d   1     -37.952  14.505  16.349  0.00  0.00    -0.270 OA
BRANCH  13  14
ATOM     14  C   UNL d   1     -38.003  14.667  15.568  0.00  0.00     0.126 C 
ATOM     15  C   UNL d   1     -37.983  14.058  15.045  0.00  0.00     0.029 C 
ENDBRANCH  13  14
ENDBRANCH  11  13
ENDBRANCH  10  11
ENDBRANCH   9  10
ENDBRANCH   8   9
BRANCH   8  16
ATOM     16  C   UNL d   1     -39.827  14.641  18.484  0.00  0.00     0.018 A 
ATOM     17  C   UNL d   1     -40.267  15.339  18.465  0.00  0.00     0.002 A 
ATOM     18  C   UNL d   1     -41.076  15.341  18.361  0.00  0.00     0.000 A 
ATOM     19  C   UNL d   1     -41.470  14.586  18.270  0.00  0.00     0.000 A 
ATOM     20  C   UNL d   1     -41.037  13.884  18.288  0.00  0.00     0.000 A 
ATOM     21  C   UNL d   1     -40.218  13.910  18.395  0.00  0.00     0.002 A 
ENDBRANCH   8  16
ENDBRANCH   1   8
BRANCH   2  22
ATOM     22  N   UNL d   1     -38.654  15.070  20.146  0.00  0.00    -0.208 NA
ATOM     23  C   UNL d   1     -38.803  15.184  20.953  0.00  0.00     0.279 C 
ATOM     24  O   UNL d   1     -38.976  15.922  21.227  0.00  0.00    -0.265 OA
BRANCH  23  25
ATOM     25  C   UNL d   1     -38.780  14.559  21.481  0.00  0.00     0.058 A 
ATOM     26  C   UNL d   1     -39.459  14.137  21.665  0.00  0.00     0.005 A 
ATOM     27  C   UNL d   1     -39.417  13.510  22.200  0.00  0.00     0.000 A 
ATOM     28  C   UNL d   1     -38.702  13.313  22.542  0.00  0.00     0.000 A 
ATOM     29  C   UNL d   1     -38.033  13.731  22.358  0.00  0.00     0.000 A 
ATOM     30  C   UNL d   1     -38.076  14.358  21.823  0.00  0.00     0.005 A 
ENDBRANCH  23  25
ENDBRANCH   2  22
TORSDOF 9
ENDMDL
MODEL 5
REMARK VINA RESULT:       0.1      1.843      2.367
REMARK  9 active torsions:
REMARK  status: ('A' for Active; 'I' for Inactive)
REMARK    1  A    between atoms: C_5  and  C_1 
REMARK    2  A    between atoms: N_4  and  C_2 
REMARK       I    between atoms: C_3  and  N_4 
REMARK    3  A    between atoms: C_10  and  C_3 
REMARK    4  A    between atoms: N_6  and  C_5 
REMARK    5  A    between atoms: C_12  and  C_5 
REMARK    6  A    between atoms: C_14  and  N_6 
REMARK    7  A    between atoms: C_8  and  C_14 
REMARK    8  A    between atoms: O_17  and  C_8 
REMARK    9  A    between atoms: C_23  and  O_17 
ROOT
ATOM      1  C   UNL d   1     -47.370  12.651  22.310  0.00  0.00     0.036 A 
ATOM      2  C   UNL d   1     -48.066  12.676  21.894  0.00  0.00     0.086 A 
ATOM      3  C   UNL d   1     -47.275  12.096  22.905  0.00  0.00     0.010 A 
ATOM      4  C   UNL d   1     -48.682  12.152  22.059  0.00  0.00     0.020 A 
ATOM      5  C   UNL d   1     -47.880  11.564  23.083  0.00  0.00     0.035 A 
ATOM      6  C   UNL d   1     -48.600  11.603  22.640  0.00  0.00     0.008 A 
ATOM      7 BR   UNL d   1     -47.781  10.995  23.693  0.00  0.00    -0.049 Br
ENDROOT
BRANCH   1   8
ATOM      8  C   UNL d   1     -46.755  13.175  22.145  0.00  0.00     0.083 C 
BRANCH   8   9
ATOM      9  N   UNL d   1     -46.156  12.978  21.630  0.00  0.00    -0.238 NA
BRANCH   9  10
ATOM     10  C   UNL d   1     -45.381  12.943  21.928  0.00  0.00     0.167 C 
BRANCH  10  11
ATOM     11  C   UNL d   1     -44.765  12.719  21.400  0.00  0.00     0.320 C 
ATOM     12  O   UNL d   1     -44.947  12.645  20.576  0.00  0.00    -0.257 OA
BRANCH  11  13
ATOM     13  O   UNL d   1     -44.000  12.571  21.669  0.00  0.00    -0.270 OA
BRANCH  13  14
ATOM     14  C   UNL d   1     -43.383  12.981  21.370  0.00  0.00     0.126 C 
ATOM     15  C   UNL d   1     -42.648  12.659  21.411  0.00  0.00     0.029 C 
ENDBRANCH  13  14
ENDBRANCH  11  13
ENDBRANCH  10  11
ENDBRANCH   9  10
ENDBRANCH   8   9
BRANCH   8  16
ATOM     16  C   UNL d   1     -46.743  13.912  22.506  0.00  0.00     0.018 A 
ATOM     17  C   UNL d   1     -46.634  13.983  23.321  0.00  0.00     0.002 A 
ATOM     18  C   UNL d   1     -46.619  14.706  23.698  0.00  0.00     0.000 A 
ATOM     19  C   UNL d   1     -46.721  15.409  23.219  0.00  0.00     0.000 A 
ATOM     20  C   UNL d   1     -46.830  15.346  22.404  0.00  0.00     0.000 A 
ATOM     21  C   UNL d   1     -46.841  14.601  22.047  0.00  0.00     0.002 A 
ENDBRANCH   8  16
ENDBRANCH   1   8
BRANCH   2  22
ATOM     22  N   UNL d   1     -48.158  13.252  21.281  0.00  0.00    -0.208 NA
ATOM     23  C   UNL d   1     -48.915  13.524  21.082  0.00  0.00     0.279 C 
ATOM     24  O   UNL d   1     -49.001  14.072  20.498  0.00  0.00    -0.265 OA
BRANCH  23  25
ATOM     25  C   UNL d   1     -49.581  13.246  21.468  0.00  0.00     0.058 A 
ATOM     26  C   UNL d   1     -49.879  13.634  22.126  0.00  0.00     0.005 A 
ATOM     27  C   UNL d   1     -50.552  13.339  22.503  0.00  0.00     0.000 A 
ATOM     28  C   UNL d   1     -50.916  12.665  22.220  0.00  0.00     0.000 A 
ATOM     29  C   UNL d   1     -50.619  12.284  21.570  0.00  0.00     0.000 A 
ATOM     30  C   UNL d   1     -49.946  12.579  21.193  0.00  0.00     0.005 A 
ENDBRANCH  23  25
ENDBRANCH   2  22
TORSDOF 9
ENDMDL
