MODEL 1
REMARK VINA RESULT:     103.2      0.000      0.000
REMARK  9 active torsions:
REMARK  status: ('A' for Active; 'I' for Inactive)
REMARK    1  A    between atoms: C_19  and  N_1 
REMARK    2  A    between atoms: S_15  and  C_2 
REMARK    3  A    between atoms: C_7  and  C_10 
REMARK       I    between atoms: N_12  and  C_7 
REMARK    4  A    between atoms: C_20  and  N_12 
REMARK    5  A    between atoms: C_22  and  S_15 
REMARK    6  A    between atoms: C_24  and  C_19 
REMARK    7  A    between atoms: C_21  and  C_20 
REMARK    8  A    between atoms: C_27  and  C_24 
REMARK    9  A    between atoms: C_26  and  C_27 
ROOT
ATOM      1  N   UNL d   1      60.627  42.872  52.895  0.00  0.00    -0.195 NA
ATOM      2  C   UNL d   1      60.857  43.537  52.461  0.00  0.00     0.086 C 
ATOM      3  C   UNL d   1      61.085  44.201  52.030  0.00  0.00     0.170 C 
ENDROOT
BRANCH   3   4
ATOM      4  S   UNL d   1      61.363  44.117  51.262  0.00  0.00    -0.060 SA
BRANCH   4   5
ATOM      5  C   UNL d   1      61.466  44.799  50.774  0.00  0.00     0.178 A 
ATOM      6  N   UNL d   1      61.867  44.741  50.055  0.00  0.00    -0.253 N 
ATOM      7  C   UNL d   1      61.966  45.406  49.582  0.00  0.00     0.268 A 
ATOM      8  C   UNL d   1      61.658  46.139  49.834  0.00  0.00     0.074 A 
ATOM      9  O   UNL d   1      62.366  45.354  48.862  0.00  0.00    -0.267 OA
ATOM     10  C   UNL d   1      61.261  46.197  50.546  0.00  0.00     0.088 A 
ATOM     11  C   UNL d   1      61.758  46.808  49.359  0.00  0.00     0.006 A 
ATOM     12  C   UNL d   1      60.959  46.925  50.791  0.00  0.00     0.024 A 
ATOM     13  N   UNL d   1      61.163  45.530  51.019  0.00  0.00    -0.222 NA
ATOM     14  C   UNL d   1      61.058  47.590  50.319  0.00  0.00     0.059 A 
ATOM     15  C   UNL d   1      61.454  47.532  49.607  0.00  0.00     0.005 A 
BRANCH   6  16
ATOM     16  C   UNL d   1      62.172  43.999  49.811  0.00  0.00     0.085 C 
BRANCH  16  17
ATOM     17  C   UNL d   1      62.712  43.614  50.302  0.00  0.00     0.019 C 
BRANCH  17  18
ATOM     18  C   UNL d   1      63.142  42.968  49.995  0.00  0.00     0.002 C 
BRANCH  18  19
ATOM     19  C   UNL d   1      62.734  42.367  49.579  0.00  0.00     0.000 C 
ATOM     20  C   UNL d   1      62.928  41.583  49.720  0.00  0.00     0.000 C 
ENDBRANCH  18  19
ENDBRANCH  17  18
ENDBRANCH  16  17
ENDBRANCH   6  16
BRANCH  14  21
ATOM     21  C   UNL d   1      60.756  48.316  50.564  0.00  0.00     0.279 C 
ATOM     22  N   UNL d   1      60.049  48.601  50.253  0.00  0.00    -0.204 NA
ATOM     23  O   UNL d   1      61.162  48.764  51.127  0.00  0.00    -0.265 OA
BRANCH  22  24
ATOM     24  C   UNL d   1      59.746  49.331  50.500  0.00  0.00     0.127 C 
BRANCH  24  25
ATOM     25  C   UNL d   1      58.925  49.436  50.574  0.00  0.00     0.119 A 
ATOM     26  O   UNL d   1      58.529  49.666  51.257  0.00  0.00    -0.304 OA
ATOM     27  C   UNL d   1      57.721  49.701  51.085  0.00  0.00     0.123 A 
ATOM     28  C   UNL d   1      57.623  49.490  50.290  0.00  0.00     0.029 A 
ATOM     29  C   UNL d   1      58.365  49.327  49.980  0.00  0.00     0.028 A 
ENDBRANCH  24  25
ENDBRANCH  22  24
ENDBRANCH  14  21
ENDBRANCH   4   5
ENDBRANCH   3   4
TORSDOF 9
ENDMDL
