MODEL 1
REMARK VINA RESULT:      65.3      0.000      0.000
REMARK  2 active torsions:
REMARK  status: ('A' for Active; 'I' for Inactive)
REMARK    1  A    between atoms: C_4  and  C_1 
REMARK    2  A    between atoms: C_8  and  C_2 
REMARK       I    between atoms: N_7  and  C_4 
ROOT
ATOM      1  C   UNL d   1     -58.157 -98.940 -45.118  0.00  0.00     0.081 A 
ATOM      2  C   UNL d   1     -58.885 -98.912 -45.474  0.00  0.00     0.104 A 
ATOM      3  C   UNL d   1     -58.239 -98.886 -44.305  0.00  0.00     0.033 A 
ATOM      4  O   UNL d   1     -59.458 -98.837 -44.867  0.00  0.00    -0.307 OA
ATOM      5  C   UNL d   1     -59.054 -98.822 -44.147  0.00  0.00     0.100 A 
ATOM      6  C   UNL d   1     -57.700 -98.886 -43.680  0.00  0.00     0.044 A 
ATOM      7  C   UNL d   1     -59.318 -98.758 -43.368  0.00  0.00     0.028 A 
ATOM      8  C   UNL d   1     -57.961 -98.821 -42.895  0.00  0.00     0.196 A 
ATOM      9  C   UNL d   1     -58.777 -98.757 -42.738  0.00  0.00     0.044 A 
ATOM     10  O   UNL d   1     -57.426 -98.821 -42.286  0.00  0.00    -0.287 OA
ENDROOT
BRANCH   1  11
ATOM     11  C   UNL d   1     -57.423 -99.014 -45.519  0.00  0.00     0.267 C 
ATOM     12  N   UNL d   1     -56.724 -98.955 -45.107  0.00  0.00    -0.268 N 
ATOM     13  C   UNL d   1     -55.990 -99.028 -45.506  0.00  0.00     0.110 A 
ATOM     14  C   UNL d   1     -56.720 -98.822 -44.283  0.00  0.00     0.110 A 
ATOM     15  C   UNL d   1     -55.287 -98.968 -45.080  0.00  0.00     0.142 A 
ATOM     16  O   UNL d   1     -55.286 -98.838 -44.271  0.00  0.00    -0.300 OA
ATOM     17  C   UNL d   1     -56.013 -98.764 -43.868  0.00  0.00     0.142 A 
ATOM     18  O   UNL d   1     -57.424 -99.144 -46.328  0.00  0.00    -0.267 OA
ENDBRANCH   1  11
BRANCH   2  19
ATOM     19  C   UNL d   1     -59.046 -98.950 -46.290  0.00  0.00     0.023 A 
ATOM     20  C   UNL d   1     -58.463 -98.756 -46.817  0.00  0.00     0.002 A 
ATOM     21  C   UNL d   1     -58.624 -98.793 -47.634  0.00  0.00     0.000 A 
ATOM     22  C   UNL d   1     -59.364 -99.024 -47.905  0.00  0.00     0.000 A 
ATOM     23  C   UNL d   1     -59.954 -99.221 -47.362  0.00  0.00     0.000 A 
ATOM     24  C   UNL d   1     -59.794 -99.184 -46.549  0.00  0.00     0.002 A 
ENDBRANCH   2  19
TORSDOF 2
ENDMDL
MODEL 2
REMARK VINA RESULT:      67.6      3.168      5.498
REMARK  2 active torsions:
REMARK  status: ('A' for Active; 'I' for Inactive)
REMARK    1  A    between atoms: C_4  and  C_1 
REMARK    2  A    between atoms: C_8  and  C_2 
REMARK       I    between atoms: N_7  and  C_4 
ROOT
ATOM      1  C   UNL d   1     -54.958-101.283 -43.316  0.00  0.00     0.081 A 
ATOM      2  C   UNL d   1     -54.828-101.873 -42.774  0.00  0.00     0.104 A 
ATOM      3  C   UNL d   1     -54.930-101.589 -44.076  0.00  0.00     0.033 A 
ATOM      4  O   UNL d   1     -54.712-102.585 -43.202  0.00  0.00    -0.307 OA
ATOM      5  C   UNL d   1     -54.776-102.404 -44.004  0.00  0.00     0.100 A 
ATOM      6  C   UNL d   1     -55.021-101.254 -44.824  0.00  0.00     0.044 A 
ATOM      7  C   UNL d   1     -54.715-102.871 -44.682  0.00  0.00     0.028 A 
ATOM      8  C   UNL d   1     -54.960-101.720 -45.508  0.00  0.00     0.196 A 
ATOM      9  C   UNL d   1     -54.806-102.536 -45.436  0.00  0.00     0.044 A 
ATOM     10  O   UNL d   1     -55.051-101.384 -46.241  0.00  0.00    -0.287 OA
ENDROOT
BRANCH   1  11
ATOM     11  C   UNL d   1     -55.100-100.478 -43.132  0.00  0.00     0.267 C 
ATOM     12  N   UNL d   1     -55.617-100.039 -43.583  0.00  0.00    -0.268 N 
ATOM     13  C   UNL d   1     -55.760 -99.234 -43.400  0.00  0.00     0.110 A 
ATOM     14  C   UNL d   1     -56.013-100.378 -44.235  0.00  0.00     0.110 A 
ATOM     15  C   UNL d   1     -56.284 -98.797 -43.862  0.00  0.00     0.142 A 
ATOM     16  O   UNL d   1     -56.672 -99.133 -44.502  0.00  0.00    -0.300 OA
ATOM     17  C   UNL d   1     -56.534 -99.934 -44.689  0.00  0.00     0.142 A 
ATOM     18  O   UNL d   1     -54.712-100.142 -42.492  0.00  0.00    -0.267 OA
ENDBRANCH   1  11
BRANCH   2  19
ATOM     19  C   UNL d   1     -54.810-101.797 -41.945  0.00  0.00     0.023 A 
ATOM     20  C   UNL d   1     -54.828-101.058 -41.616  0.00  0.00     0.002 A 
ATOM     21  C   UNL d   1     -54.811-100.982 -40.786  0.00  0.00     0.000 A 
ATOM     22  C   UNL d   1     -54.776-101.646 -40.305  0.00  0.00     0.000 A 
ATOM     23  C   UNL d   1     -54.757-102.397 -40.648  0.00  0.00     0.000 A 
ATOM     24  C   UNL d   1     -54.775-102.473 -41.473  0.00  0.00     0.002 A 
ENDBRANCH   2  19
TORSDOF 2
ENDMDL
