MODEL 1
REMARK VINA RESULT:      -7.5      0.000      0.000
REMARK  7 active torsions:
REMARK  status: ('A' for Active; 'I' for Inactive)
REMARK    1  A    between atoms: C_7  and  C_1 
REMARK    2  A    between atoms: C_9  and  N_2 
REMARK    3  A    between atoms: C_6  and  C_3 
REMARK    4  A    between atoms: C_8  and  C_7 
REMARK    5  A    between atoms: C_20  and  C_9 
REMARK    6  A    between atoms: O_24  and  C_10 
REMARK    7  A    between atoms: O_26  and  C_22 
ROOT
ATOM      1  C   UNL d   1     -48.475  14.448  22.501  0.00  0.00     0.101 A 
ATOM      2  N   UNL d   1     -47.533  13.599  22.904  0.00  0.00    -0.270 N 
ATOM      3  C   UNL d   1     -48.303  13.656  22.644  0.00  0.00     0.075 A 
ATOM      4  C   UNL d   1     -47.794  14.890  22.677  0.00  0.00     0.256 A 
ATOM      5  C   UNL d   1     -47.211  14.366  22.926  0.00  0.00     0.304 A 
ATOM      6  O   UNL d   1     -46.443  14.567  23.157  0.00  0.00    -0.263 OA
ATOM      7  O   UNL d   1     -47.713  15.710  22.614  0.00  0.00    -0.281 OA
ENDROOT
BRANCH   3   8
ATOM      8  C   UNL d   1     -48.839  13.030  22.536  0.00  0.00     0.041 A 
ATOM      9  C   UNL d   1     -48.856  12.640  21.812  0.00  0.00     0.096 A 
ATOM     10  C   UNL d   1     -49.387  12.012  21.692  0.00  0.00     0.026 A 
ATOM     11  C   UNL d   1     -49.897  11.786  22.308  0.00  0.00     0.026 A 
ATOM     12  C   UNL d   1     -49.876  12.183  23.035  0.00  0.00     0.094 A 
ATOM     13  C   UNL d   1     -49.347  12.804  23.146  0.00  0.00     0.028 A 
BRANCH   9  14
ATOM     14  O   UNL d   1     -48.353  12.863  21.204  0.00  0.00    -0.328 OA
ATOM     15  C   UNL d   1     -48.457  12.569  20.441  0.00  0.00     0.181 C 
ENDBRANCH   9  14
BRANCH  12  16
ATOM     16  O   UNL d   1     -50.385  11.957  23.648  0.00  0.00    -0.328 OA
ATOM     17  C   UNL d   1     -50.640  11.167  23.698  0.00  0.00     0.181 C 
ENDBRANCH  12  16
ENDBRANCH   3   8
BRANCH   2  18
ATOM     18  C   UNL d   1     -47.132  12.900  23.113  0.00  0.00     0.085 C 
BRANCH  18  19
ATOM     19  C   UNL d   1     -46.345  12.792  22.880  0.00  0.00     0.037 A 
ATOM     20  C   UNL d   1     -45.949  12.090  23.090  0.00  0.00     0.100 A 
ATOM     21  N   UNL d   1     -45.169  11.983  22.860  0.00  0.00    -0.242 NA
ATOM     22  C   UNL d   1     -44.776  12.563  22.424  0.00  0.00     0.099 A 
ATOM     23  C   UNL d   1     -45.172  13.256  22.218  0.00  0.00     0.021 A 
ATOM     24  C   UNL d   1     -45.959  13.370  22.448  0.00  0.00     0.005 A 
ENDBRANCH  18  19
ENDBRANCH   2  18
BRANCH   1  25
ATOM     25  C   UNL d   1     -49.196  14.758  22.229  0.00  0.00     0.223 C 
ATOM     26  O   UNL d   1     -49.433  14.623  21.455  0.00  0.00    -0.284 OA
BRANCH  25  27
ATOM     27  C   UNL d   1     -49.665  15.194  22.735  0.00  0.00     0.139 A 
ATOM     28  O   UNL d   1     -49.552  15.535  23.477  0.00  0.00    -0.302 OA
ATOM     29  C   UNL d   1     -50.251  15.911  23.698  0.00  0.00     0.123 A 
ATOM     30  C   UNL d   1     -50.793  15.803  23.097  0.00  0.00     0.029 A 
ATOM     31  C   UNL d   1     -50.434  15.361  22.503  0.00  0.00     0.030 A 
ENDBRANCH  25  27
ENDBRANCH   1  25
TORSDOF 7
ENDMDL
MODEL 2
REMARK VINA RESULT:      -5.0      6.606      9.121
REMARK  7 active torsions:
REMARK  status: ('A' for Active; 'I' for Inactive)
REMARK    1  A    between atoms: C_7  and  C_1 
REMARK    2  A    between atoms: C_9  and  N_2 
REMARK    3  A    between atoms: C_6  and  C_3 
REMARK    4  A    between atoms: C_8  and  C_7 
REMARK    5  A    between atoms: C_20  and  C_9 
REMARK    6  A    between atoms: O_24  and  C_10 
REMARK    7  A    between atoms: O_26  and  C_22 
ROOT
ATOM      1  C   UNL d   1     -39.379  14.565  20.946  0.00  0.00     0.101 A 
ATOM      2  N   UNL d   1     -39.585  14.297  19.659  0.00  0.00    -0.270 N 
ATOM      3  C   UNL d   1     -39.939  14.328  20.393  0.00  0.00     0.075 A 
ATOM      4  C   UNL d   1     -38.660  14.683  20.544  0.00  0.00     0.256 A 
ATOM      5  C   UNL d   1     -38.788  14.518  19.748  0.00  0.00     0.304 A 
ATOM      6  O   UNL d   1     -38.224  14.563  19.146  0.00  0.00    -0.263 OA
ATOM      7  O   UNL d   1     -37.945  14.924  20.879  0.00  0.00    -0.281 OA
ENDROOT
BRANCH   3   8
ATOM      8  C   UNL d   1     -40.732  14.153  20.570  0.00  0.00     0.041 A 
ATOM      9  C   UNL d   1     -41.314  14.701  20.379  0.00  0.00     0.096 A 
ATOM     10  C   UNL d   1     -42.110  14.538  20.551  0.00  0.00     0.026 A 
ATOM     11  C   UNL d   1     -42.309  13.818  20.916  0.00  0.00     0.026 A 
ATOM     12  C   UNL d   1     -41.719  13.269  21.106  0.00  0.00     0.094 A 
ATOM     13  C   UNL d   1     -40.932  13.438  20.932  0.00  0.00     0.028 A 
BRANCH   9  14
ATOM     14  O   UNL d   1     -41.118  15.412  20.019  0.00  0.00    -0.328 OA
ATOM     15  C   UNL d   1     -41.704  15.913  19.727  0.00  0.00     0.181 C 
ENDBRANCH   9  14
BRANCH  12  16
ATOM     16  O   UNL d   1     -41.918  12.552  21.470  0.00  0.00    -0.328 OA
ATOM     17  C   UNL d   1     -42.718  12.373  21.610  0.00  0.00     0.181 C 
ENDBRANCH  12  16
ENDBRANCH   3   8
BRANCH   2  18
ATOM     18  C   UNL d   1     -39.951  14.083  18.942  0.00  0.00     0.085 C 
BRANCH  18  19
ATOM     19  C   UNL d   1     -39.498  13.759  18.331  0.00  0.00     0.037 A 
ATOM     20  C   UNL d   1     -39.304  12.949  18.351  0.00  0.00     0.100 A 
ATOM     21  N   UNL d   1     -38.855  12.627  17.745  0.00  0.00    -0.242 NA
ATOM     22  C   UNL d   1     -38.595  13.097  17.119  0.00  0.00     0.099 A 
ATOM     23  C   UNL d   1     -38.790  13.898  17.103  0.00  0.00     0.021 A 
ATOM     24  C   UNL d   1     -39.243  14.228  17.711  0.00  0.00     0.005 A 
ENDBRANCH  18  19
ENDBRANCH   2  18
BRANCH   1  25
ATOM     25  C   UNL d   1     -39.499  14.669  21.761  0.00  0.00     0.223 C 
ATOM     26  O   UNL d   1     -39.990  15.271  22.027  0.00  0.00    -0.284 OA
BRANCH  25  27
ATOM     27  C   UNL d   1     -39.128  14.173  22.291  0.00  0.00     0.139 A 
ATOM     28  O   UNL d   1     -38.899  13.381  22.278  0.00  0.00    -0.302 OA
ATOM     29  C   UNL d   1     -38.542  13.203  22.999  0.00  0.00     0.123 A 
ATOM     30  C   UNL d   1     -38.550  13.880  23.456  0.00  0.00     0.029 A 
ATOM     31  C   UNL d   1     -38.910  14.479  23.021  0.00  0.00     0.030 A 
ENDBRANCH  25  27
ENDBRANCH   1  25
TORSDOF 7
ENDMDL
