MODEL 1
REMARK VINA RESULT:      -7.8      0.000      0.000
REMARK  1 active torsions:
REMARK  status: ('A' for Active; 'I' for Inactive)
REMARK    1  A    between atoms: C_6  and  C_1 
ROOT
ATOM      1  C   UNL d   1     -47.845  13.591  22.667  0.00  0.00     0.148 A 
ATOM      2  N   UNL d   1     -47.659  12.860  23.005  0.00  0.00    -0.289 N 
ATOM      3  N   UNL d   1     -47.170  14.051  22.635  0.00  0.00    -0.225 NA
ATOM      4  C   UNL d   1     -46.869  12.867  23.182  0.00  0.00     0.085 A 
ATOM      5  C   UNL d   1     -46.565  13.603  22.954  0.00  0.00     0.118 A 
ATOM      6  C   UNL d   1     -48.131  12.203  23.164  0.00  0.00     0.082 A 
ATOM      7  C   UNL d   1     -46.493  12.218  23.530  0.00  0.00     0.019 A 
ATOM      8  C   UNL d   1     -47.762  11.526  23.521  0.00  0.00     0.019 A 
ATOM      9  C   UNL d   1     -46.972  11.533  23.698  0.00  0.00     0.003 A 
ENDROOT
BRANCH   1  10
ATOM     10  C   UNL d   1     -48.622  13.740  22.430  0.00  0.00     0.035 A 
ATOM     11  C   UNL d   1     -48.921  13.494  21.675  0.00  0.00     0.004 A 
ATOM     12  C   UNL d   1     -49.691  13.645  21.447  0.00  0.00     0.011 A 
ATOM     13  C   UNL d   1     -50.174  14.040  21.963  0.00  0.00     0.058 A 
ATOM     14  C   UNL d   1     -49.910  14.289  22.700  0.00  0.00     0.011 A 
ATOM     15 CL   UNL d   1     -50.982  14.192  21.709  0.00  0.00    -0.082 Cl
ATOM     16  C   UNL d   1     -49.138  14.141  22.934  0.00  0.00     0.004 A 
ENDBRANCH   1  10
TORSDOF 1
ENDMDL
MODEL 2
REMARK VINA RESULT:      -7.6      1.897      3.052
REMARK  1 active torsions:
REMARK  status: ('A' for Active; 'I' for Inactive)
REMARK    1  A    between atoms: C_6  and  C_1 
ROOT
ATOM      1  C   UNL d   1     -49.037  13.382  22.068  0.00  0.00     0.148 A 
ATOM      2  N   UNL d   1     -49.507  12.939  22.584  0.00  0.00    -0.289 N 
ATOM      3  N   UNL d   1     -49.492  13.628  21.435  0.00  0.00    -0.225 NA
ATOM      4  C   UNL d   1     -50.253  12.912  22.271  0.00  0.00     0.085 A 
ATOM      5  C   UNL d   1     -50.246  13.338  21.560  0.00  0.00     0.118 A 
ATOM      6  C   UNL d   1     -49.324  12.568  23.296  0.00  0.00     0.082 A 
ATOM      7  C   UNL d   1     -50.871  12.511  22.647  0.00  0.00     0.019 A 
ATOM      8  C   UNL d   1     -49.947  12.150  23.698  0.00  0.00     0.019 A 
ATOM      9  C   UNL d   1     -50.692  12.123  23.384  0.00  0.00     0.003 A 
ENDROOT
BRANCH   1  10
ATOM     10  C   UNL d   1     -48.240  13.501  22.251  0.00  0.00     0.035 A 
ATOM     11  C   UNL d   1     -47.974  14.162  22.712  0.00  0.00     0.004 A 
ATOM     12  C   UNL d   1     -47.185  14.275  22.889  0.00  0.00     0.011 A 
ATOM     13  C   UNL d   1     -46.649  13.735  22.612  0.00  0.00     0.058 A 
ATOM     14  C   UNL d   1     -46.879  13.086  22.164  0.00  0.00     0.011 A 
ATOM     15 CL   UNL d   1     -45.821  13.866  22.807  0.00  0.00    -0.082 Cl
ATOM     16  C   UNL d   1     -47.670  12.968  21.983  0.00  0.00     0.004 A 
ENDBRANCH   1  10
TORSDOF 1
ENDMDL
