MODEL 1
REMARK VINA RESULT:      43.2      0.000      0.000
REMARK  3 active torsions:
REMARK  status: ('A' for Active; 'I' for Inactive)
REMARK    1  A    between atoms: C_9  and  N_1 
REMARK    2  A    between atoms: C_2  and  C_9 
REMARK    3  A    between atoms: S_13  and  C_5 
ROOT
ATOM      1  N   UNL d   1     -50.777  25.297  33.309  0.00  0.00    -0.265 N 
ATOM      2  C   UNL d   1     -50.138  24.770  33.309  0.00  0.00     0.296 A 
ATOM      3  S   UNL d   1     -50.447  24.007  33.311  0.00  0.00    -0.025 SA
ATOM      4  C   UNL d   1     -51.474  24.870  33.312  0.00  0.00     0.074 A 
ATOM      5  C   UNL d   1     -51.279  24.070  33.313  0.00  0.00     0.050 A 
ATOM      6  O   UNL d   1     -49.341  24.974  33.307  0.00  0.00    -0.259 OA
ATOM      7  C   UNL d   1     -52.273  25.098  33.313  0.00  0.00     0.018 A 
ATOM      8  C   UNL d   1     -51.875  23.496  33.315  0.00  0.00     0.008 A 
ATOM      9  C   UNL d   1     -52.871  24.527  33.315  0.00  0.00     0.002 A 
ATOM     10  C   UNL d   1     -52.661  23.723  33.316  0.00  0.00     0.001 A 
ENDROOT
BRANCH   1  11
ATOM     11  C   UNL d   1     -50.723  26.121  33.307  0.00  0.00     0.123 C 
BRANCH  11  12
ATOM     12  C   UNL d   1     -50.565  26.527  33.999  0.00  0.00     0.189 A 
ATOM     13  N   UNL d   1     -50.075  27.183  33.985  0.00  0.00    -0.265 N 
ATOM     14  C   UNL d   1     -50.018  27.473  34.753  0.00  0.00     0.197 A 
ATOM     15  C   UNL d   1     -49.698  27.508  33.327  0.00  0.00     0.103 C 
ATOM     16  N   UNL d   1     -50.474  26.994  35.242  0.00  0.00    -0.122 NA
ATOM     17  N   UNL d   1     -50.812  26.409  34.771  0.00  0.00    -0.126 NA
BRANCH  14  18
ATOM     18  S   UNL d   1     -49.581  28.128  34.995  0.00  0.00    -0.074 SA
ATOM     19  C   UNL d   1     -48.790  28.047  35.220  0.00  0.00     0.077 C 
ENDBRANCH  14  18
ENDBRANCH  11  12
ENDBRANCH   1  11
TORSDOF 3
ENDMDL
