MODEL 1
REMARK VINA RESULT:      93.7      0.000      0.000
REMARK  6 active torsions:
REMARK  status: ('A' for Active; 'I' for Inactive)
REMARK    1  A    between atoms: C_12  and  N_3 
REMARK    2  A    between atoms: C_8  and  C_4 
REMARK    3  A    between atoms: O_23  and  C_11 
REMARK    4  A    between atoms: C_19  and  C_12 
REMARK    5  A    between atoms: N_13  and  C_19 
REMARK    6  A    between atoms: O_26  and  C_17 
ROOT
ATOM      1  C   UNL d   1      14.333  15.293  -3.930  0.00  0.00     0.083 A 
ATOM      2  C   UNL d   1      14.784  15.729  -3.395  0.00  0.00     0.161 A 
ATOM      3  N   UNL d   1      14.659  14.487  -2.931  0.00  0.00    -0.270 N 
ATOM      4  C   UNL d   1      14.260  14.534  -3.641  0.00  0.00     0.074 A 
ATOM      5  C   UNL d   1      14.988  15.227  -2.771  0.00  0.00     0.288 A 
ATOM      6  C   UNL d   1      14.047  15.648  -4.615  0.00  0.00     0.201 A 
ATOM      7  O   UNL d   1      14.949  16.521  -3.544  0.00  0.00    -0.302 OA
ATOM      8  C   UNL d   1      14.212  16.441  -4.765  0.00  0.00     0.064 A 
ATOM      9  C   UNL d   1      14.663  16.878  -4.229  0.00  0.00     0.103 A 
ATOM     10  O   UNL d   1      15.437  15.433  -2.111  0.00  0.00    -0.264 OA
ATOM     11  O   UNL d   1      13.596  15.211  -5.151  0.00  0.00    -0.286 OA
ATOM     12  C   UNL d   1      13.927  16.790  -5.445  0.00  0.00     0.035 A 
ATOM     13  C   UNL d   1      14.828  17.670  -4.379  0.00  0.00     0.027 A 
ATOM     14  C   UNL d   1      14.091  17.590  -5.600  0.00  0.00     0.140 A 
ATOM     15  C   UNL d   1      14.543  18.019  -5.059  0.00  0.00     0.032 A 
ATOM     16  F   UNL d   1      13.805  17.945  -6.285  0.00  0.00    -0.204 F 
ENDROOT
BRANCH   4  17
ATOM     17  C   UNL d   1      13.852  13.909  -4.001  0.00  0.00     0.041 A 
ATOM     18  C   UNL d   1      14.105  13.607  -4.725  0.00  0.00     0.118 A 
ATOM     19  C   UNL d   1      13.696  12.987  -5.077  0.00  0.00     0.116 A 
ATOM     20  C   UNL d   1      13.030  12.666  -4.707  0.00  0.00     0.026 A 
ATOM     21  C   UNL d   1      12.775  12.968  -3.981  0.00  0.00     0.002 A 
ATOM     22  C   UNL d   1      13.188  13.591  -3.628  0.00  0.00     0.004 A 
BRANCH  18  23
ATOM     23  O   UNL d   1      14.768  13.929  -5.090  0.00  0.00    -0.326 OA
ATOM     24  C   UNL d   1      14.848  13.788  -5.904  0.00  0.00     0.181 C 
ENDBRANCH  18  23
BRANCH  19  25
ATOM     25  O   UNL d   1      13.951  12.685  -5.803  0.00  0.00    -0.326 OA
ATOM     26  C   UNL d   1      14.097  11.880  -5.886  0.00  0.00     0.181 C 
ENDBRANCH  19  25
ENDBRANCH   4  17
BRANCH   3  27
ATOM     27  C   UNL d   1      14.729  13.822  -2.447  0.00  0.00     0.102 C 
BRANCH  27  28
ATOM     28  C   UNL d   1      14.428  13.828  -1.677  0.00  0.00     0.100 C 
BRANCH  28  29
ATOM     29  N   UNL d   1      14.561  13.189  -1.174  0.00  0.00    -0.298 N 
ATOM     30  C   UNL d   1      15.072  13.271  -0.533  0.00  0.00     0.107 A 
ATOM     31  C   UNL d   1      15.206  12.640  -0.032  0.00  0.00     0.142 A 
ATOM     32  O   UNL d   1      14.825  11.916  -0.171  0.00  0.00    -0.300 OA
ATOM     33  C   UNL d   1      14.313  11.832  -0.811  0.00  0.00     0.142 A 
ATOM     34  C   UNL d   1      14.178  12.470  -1.317  0.00  0.00     0.107 A 
ENDBRANCH  28  29
ENDBRANCH  27  28
ENDBRANCH   3  27
TORSDOF 6
ENDMDL
MODEL 2
REMARK VINA RESULT:      95.3      1.844      3.779
REMARK  6 active torsions:
REMARK  status: ('A' for Active; 'I' for Inactive)
REMARK    1  A    between atoms: C_12  and  N_3 
REMARK    2  A    between atoms: C_8  and  C_4 
REMARK    3  A    between atoms: O_23  and  C_11 
REMARK    4  A    between atoms: C_19  and  C_12 
REMARK    5  A    between atoms: N_13  and  C_19 
REMARK    6  A    between atoms: O_26  and  C_17 
ROOT
ATOM      1  C   UNL d   1      13.898  14.475  -3.985  0.00  0.00     0.083 A 
ATOM      2  C   UNL d   1      13.891  14.017  -3.298  0.00  0.00     0.161 A 
ATOM      3  N   UNL d   1      14.294  15.248  -2.985  0.00  0.00    -0.270 N 
ATOM      4  C   UNL d   1      14.145  15.226  -3.787  0.00  0.00     0.074 A 
ATOM      5  C   UNL d   1      14.138  14.500  -2.674  0.00  0.00     0.288 A 
ATOM      6  C   UNL d   1      13.676  14.143  -4.704  0.00  0.00     0.201 A 
ATOM      7  O   UNL d   1      13.662  13.228  -3.331  0.00  0.00    -0.302 OA
ATOM      8  C   UNL d   1      13.447  13.352  -4.737  0.00  0.00     0.064 A 
ATOM      9  C   UNL d   1      13.440  12.895  -4.051  0.00  0.00     0.103 A 
ATOM     10  O   UNL d   1      14.213  14.269  -1.886  0.00  0.00    -0.264 OA
ATOM     11  O   UNL d   1      13.683  14.600  -5.391  0.00  0.00    -0.286 OA
ATOM     12  C   UNL d   1      13.227  13.026  -5.453  0.00  0.00     0.035 A 
ATOM     13  C   UNL d   1      13.211  12.105  -4.084  0.00  0.00     0.027 A 
ATOM     14  C   UNL d   1      12.995  12.229  -5.490  0.00  0.00     0.140 A 
ATOM     15  C   UNL d   1      12.991  11.779  -4.799  0.00  0.00     0.032 A 
ATOM     16  F   UNL d   1      12.774  11.897  -6.210  0.00  0.00    -0.204 F 
ENDROOT
BRANCH   4  17
ATOM     17  C   UNL d   1      14.234  15.867  -4.306  0.00  0.00     0.041 A 
ATOM     18  C   UNL d   1      14.981  16.176  -4.462  0.00  0.00     0.118 A 
ATOM     19  C   UNL d   1      15.062  16.811  -4.978  0.00  0.00     0.116 A 
ATOM     20  C   UNL d   1      14.396  17.140  -5.341  0.00  0.00     0.026 A 
ATOM     21  C   UNL d   1      13.646  16.829  -5.184  0.00  0.00     0.002 A 
ATOM     22  C   UNL d   1      13.565  16.191  -4.665  0.00  0.00     0.004 A 
BRANCH  18  23
ATOM     23  O   UNL d   1      15.642  15.847  -4.100  0.00  0.00    -0.326 OA
ATOM     24  C   UNL d   1      16.350  16.276  -4.160  0.00  0.00     0.181 C 
ENDBRANCH  18  23
BRANCH  19  25
ATOM     25  O   UNL d   1      15.812  17.121  -5.135  0.00  0.00    -0.326 OA
ATOM     26  C   UNL d   1      16.220  16.894  -5.812  0.00  0.00     0.181 C 
ENDBRANCH  19  25
ENDBRANCH   4  17
BRANCH   3  27
ATOM     27  C   UNL d   1      14.555  15.898  -2.549  0.00  0.00     0.102 C 
BRANCH  27  28
ATOM     28  C   UNL d   1      14.433  15.933  -1.732  0.00  0.00     0.100 C 
BRANCH  28  29
ATOM     29  N   UNL d   1      14.935  16.381  -1.255  0.00  0.00    -0.298 N 
ATOM     30  C   UNL d   1      15.360  16.016  -0.651  0.00  0.00     0.107 A 
ATOM     31  C   UNL d   1      15.858  16.456  -0.176  0.00  0.00     0.142 A 
ATOM     32  O   UNL d   1      15.934  17.273  -0.306  0.00  0.00    -0.300 OA
ATOM     33  C   UNL d   1      15.510  17.639  -0.909  0.00  0.00     0.142 A 
ATOM     34  C   UNL d   1      15.007  17.194  -1.388  0.00  0.00     0.107 A 
ENDBRANCH  28  29
ENDBRANCH  27  28
ENDBRANCH   3  27
TORSDOF 6
ENDMDL
MODEL 3
REMARK VINA RESULT:      96.4      2.231      4.715
REMARK  6 active torsions:
REMARK  status: ('A' for Active; 'I' for Inactive)
REMARK    1  A    between atoms: C_12  and  N_3 
REMARK    2  A    between atoms: C_8  and  C_4 
REMARK    3  A    between atoms: O_23  and  C_11 
REMARK    4  A    between atoms: C_19  and  C_12 
REMARK    5  A    between atoms: N_13  and  C_19 
REMARK    6  A    between atoms: O_26  and  C_17 
ROOT
ATOM      1  C   UNL d   1      14.701  16.060  -2.808  0.00  0.00     0.083 A 
ATOM      2  C   UNL d   1      15.026  16.723  -2.440  0.00  0.00     0.161 A 
ATOM      3  N   UNL d   1      14.678  17.054  -3.682  0.00  0.00    -0.270 N 
ATOM      4  C   UNL d   1      14.490  16.268  -3.567  0.00  0.00     0.074 A 
ATOM      5  C   UNL d   1      15.011  17.344  -2.985  0.00  0.00     0.288 A 
ATOM      6  C   UNL d   1      14.641  15.348  -2.398  0.00  0.00     0.201 A 
ATOM      7  O   UNL d   1      15.290  16.674  -1.662  0.00  0.00    -0.302 OA
ATOM      8  C   UNL d   1      14.905  15.300  -1.619  0.00  0.00     0.064 A 
ATOM      9  C   UNL d   1      15.230  15.963  -1.251  0.00  0.00     0.103 A 
ATOM     10  O   UNL d   1      15.283  18.110  -2.851  0.00  0.00    -0.264 OA
ATOM     11  O   UNL d   1      14.316  14.685  -2.766  0.00  0.00    -0.286 OA
ATOM     12  C   UNL d   1      14.844  14.593  -1.216  0.00  0.00     0.035 A 
ATOM     13  C   UNL d   1      15.494  15.915  -0.474  0.00  0.00     0.027 A 
ATOM     14  C   UNL d   1      15.110  14.541  -0.431  0.00  0.00     0.140 A 
ATOM     15  C   UNL d   1      15.433  15.209  -0.070  0.00  0.00     0.032 A 
ATOM     16  F   UNL d   1      15.049  13.829  -0.021  0.00  0.00    -0.204 F 
ENDROOT
BRANCH   4  17
ATOM     17  C   UNL d   1      14.143  15.772  -4.134  0.00  0.00     0.041 A 
ATOM     18  C   UNL d   1      14.567  15.540  -4.800  0.00  0.00     0.118 A 
ATOM     19  C   UNL d   1      14.218  15.048  -5.359  0.00  0.00     0.116 A 
ATOM     20  C   UNL d   1      13.441  14.786  -5.253  0.00  0.00     0.026 A 
ATOM     21  C   UNL d   1      13.014  15.019  -4.584  0.00  0.00     0.002 A 
ATOM     22  C   UNL d   1      13.367  15.514  -4.023  0.00  0.00     0.004 A 
BRANCH  18  23
ATOM     23  O   UNL d   1      15.340  15.802  -4.903  0.00  0.00    -0.326 OA
ATOM     24  C   UNL d   1      15.732  15.546  -5.588  0.00  0.00     0.181 C 
ENDBRANCH  18  23
BRANCH  19  25
ATOM     25  O   UNL d   1      14.645  14.815  -6.028  0.00  0.00    -0.326 OA
ATOM     26  C   UNL d   1      14.487  14.092  -6.387  0.00  0.00     0.181 C 
ENDBRANCH  19  25
ENDBRANCH   4  17
BRANCH   3  27
ATOM     27  C   UNL d   1      14.559  17.494  -4.370  0.00  0.00     0.102 C 
BRANCH  27  28
ATOM     28  C   UNL d   1      14.521  18.319  -4.340  0.00  0.00     0.100 C 
BRANCH  28  29
ATOM     29  N   UNL d   1      14.366  18.753  -5.024  0.00  0.00    -0.298 N 
ATOM     30  C   UNL d   1      13.859  18.448  -5.597  0.00  0.00     0.107 A 
ATOM     31  C   UNL d   1      13.703  18.876  -6.276  0.00  0.00     0.142 A 
ATOM     32  O   UNL d   1      14.059  19.618  -6.386  0.00  0.00    -0.300 OA
ATOM     33  C   UNL d   1      14.566  19.924  -5.814  0.00  0.00     0.142 A 
ATOM     34  C   UNL d   1      14.723  19.492  -5.129  0.00  0.00     0.107 A 
ENDBRANCH  28  29
ENDBRANCH  27  28
ENDBRANCH   3  27
TORSDOF 6
ENDMDL
