MODEL 1
REMARK VINA RESULT:      32.7      0.000      0.000
REMARK  4 active torsions:
REMARK  status: ('A' for Active; 'I' for Inactive)
REMARK    1  A    between atoms: C_6  and  C_1 
REMARK    2  A    between atoms: S_7  and  C_3 
REMARK    3  A    between atoms: C_17  and  S_7 
REMARK    4  A    between atoms: C_18  and  C_17 
ROOT
ATOM      1  C   UNL d   1     -51.603  24.622  33.312  0.00  0.00     0.087 A 
ATOM      2  N   UNL d   1     -52.073  23.941  33.309  0.00  0.00    -0.245 NA
ATOM      3  C   UNL d   1     -52.102  25.282  33.315  0.00  0.00     0.049 A 
ATOM      4  C   UNL d   1     -52.883  25.018  33.314  0.00  0.00     0.025 A 
ATOM      5  C   UNL d   1     -52.863  24.186  33.310  0.00  0.00     0.082 A 
ATOM      6  C   UNL d   1     -53.599  25.411  33.316  0.00  0.00     0.002 A 
ATOM      7  C   UNL d   1     -53.569  23.758  33.309  0.00  0.00     0.019 A 
ATOM      8  C   UNL d   1     -54.305  24.983  33.314  0.00  0.00     0.000 A 
ATOM      9  C   UNL d   1     -54.288  24.160  33.311  0.00  0.00     0.002 A 
ENDROOT
BRANCH   1  10
ATOM     10  C   UNL d   1     -50.790  24.595  33.311  0.00  0.00     0.018 A 
ATOM     11  C   UNL d   1     -50.402  23.857  33.314  0.00  0.00     0.004 A 
ATOM     12  C   UNL d   1     -49.579  23.830  33.314  0.00  0.00     0.030 A 
ATOM     13  C   UNL d   1     -49.136  24.529  33.311  0.00  0.00     0.140 A 
ATOM     14  C   UNL d   1     -49.519  25.265  33.308  0.00  0.00     0.030 A 
ATOM     15  F   UNL d   1     -48.304  24.509  33.310  0.00  0.00    -0.204 F 
ATOM     16  C   UNL d   1     -50.343  25.292  33.309  0.00  0.00     0.004 A 
ENDBRANCH   1  10
BRANCH   3  17
ATOM     17  S   UNL d   1     -51.862  26.070  33.318  0.00  0.00    -0.083 SA
BRANCH  17  18
ATOM     18  C   UNL d   1     -52.354  26.644  33.680  0.00  0.00     0.058 C 
BRANCH  18  19
ATOM     19  C   UNL d   1     -52.023  27.379  33.889  0.00  0.00     0.129 C 
ATOM     20  N   UNL d   1     -51.665  27.826  33.309  0.00  0.00    -0.146 N 
ENDBRANCH  18  19
ENDBRANCH  17  18
ENDBRANCH   3  17
TORSDOF 4
ENDMDL
