MODEL 1
REMARK VINA RESULT:      67.8      0.000      0.000
REMARK  5 active torsions:
REMARK  status: ('A' for Active; 'I' for Inactive)
REMARK    1  A    between atoms: C_2  and  S_1 
REMARK    2  A    between atoms: N_3  and  S_1 
REMARK    3  A    between atoms: C_18  and  N_7 
REMARK    4  A    between atoms: O_27  and  C_9 
REMARK    5  A    between atoms: C_17  and  C_18 
ROOT
ATOM      1  N   UNL d   1     -50.198  27.092  33.543  0.00  0.00    -0.226 N 
ATOM      2  N   UNL d   1     -49.162  28.379  33.642  0.00  0.00    -0.300 N 
ATOM      3  C   UNL d   1     -50.489  27.868  33.479  0.00  0.00     0.111 A 
ATOM      4  C   UNL d   1     -49.387  26.968  33.657  0.00  0.00     0.111 A 
ATOM      5  C   UNL d   1     -49.965  28.508  33.529  0.00  0.00     0.100 A 
ATOM      6  C   UNL d   1     -48.871  27.603  33.706  0.00  0.00     0.100 A 
ENDROOT
BRANCH   1   7
ATOM      7  S   UNL d   1     -50.718  26.455  33.493  0.00  0.00     0.273 S 
ATOM      8  O   UNL d   1     -51.352  26.966  33.667  0.00  0.00    -0.200 OA
ATOM      9  O   UNL d   1     -50.092  25.950  33.321  0.00  0.00    -0.200 OA
BRANCH   7  10
ATOM     10  C   UNL d   1     -51.238  25.822  33.444  0.00  0.00     0.128 A 
ATOM     11  C   UNL d   1     -50.955  25.044  33.484  0.00  0.00     0.044 A 
ATOM     12  C   UNL d   1     -51.476  24.407  33.434  0.00  0.00     0.141 A 
ATOM     13  F   UNL d   1     -51.192  23.642  33.474  0.00  0.00    -0.204 F 
ATOM     14  C   UNL d   1     -52.291  24.545  33.345  0.00  0.00     0.032 A 
ATOM     15  C   UNL d   1     -52.573  25.318  33.306  0.00  0.00     0.027 A 
ATOM     16  C   UNL d   1     -52.052  25.960  33.355  0.00  0.00     0.106 A 
BRANCH  16  17
ATOM     17  O   UNL d   1     -52.343  26.730  33.315  0.00  0.00    -0.327 OA
ATOM     18  C   UNL d   1     -53.151  26.865  33.315  0.00  0.00     0.181 C 
ENDBRANCH  16  17
ENDBRANCH   7  10
ENDBRANCH   1   7
BRANCH   2  19
ATOM     19  C   UNL d   1     -48.642  29.018  33.692  0.00  0.00     0.080 C 
BRANCH  19  20
ATOM     20  C   UNL d   1     -48.293  29.220  34.414  0.00  0.00     0.020 A 
ATOM     21  C   UNL d   1     -48.102  30.001  34.579  0.00  0.00     0.028 A 
ATOM     22  C   UNL d   1     -47.754  30.201  35.300  0.00  0.00     0.119 A 
ATOM     23  O   UNL d   1     -47.506  30.921  35.616  0.00  0.00    -0.300 OA
ATOM     24  C   UNL d   1     -47.597  29.609  35.861  0.00  0.00     0.119 A 
ATOM     25  C   UNL d   1     -47.197  30.777  36.368  0.00  0.00     0.304 A 
ATOM     26  O   UNL d   1     -47.254  29.972  36.515  0.00  0.00    -0.300 OA
ATOM     27  C   UNL d   1     -47.789  28.825  35.693  0.00  0.00     0.026 A 
ATOM     28  C   UNL d   1     -48.135  28.627  34.975  0.00  0.00     0.004 A 
ENDBRANCH  19  20
ENDBRANCH   2  19
TORSDOF 5
ENDMDL
MODEL 2
REMARK VINA RESULT:      68.2      1.435      2.188
REMARK  5 active torsions:
REMARK  status: ('A' for Active; 'I' for Inactive)
REMARK    1  A    between atoms: C_2  and  S_1 
REMARK    2  A    between atoms: N_3  and  S_1 
REMARK    3  A    between atoms: C_18  and  N_7 
REMARK    4  A    between atoms: O_27  and  C_9 
REMARK    5  A    between atoms: C_17  and  C_18 
ROOT
ATOM      1  N   UNL d   1     -49.192  27.787  34.446  0.00  0.00    -0.226 N 
ATOM      2  N   UNL d   1     -47.972  28.740  35.030  0.00  0.00    -0.300 N 
ATOM      3  C   UNL d   1     -49.146  27.954  35.258  0.00  0.00     0.111 A 
ATOM      4  C   UNL d   1     -48.624  28.100  33.931  0.00  0.00     0.111 A 
ATOM      5  C   UNL d   1     -48.532  28.431  35.545  0.00  0.00     0.100 A 
ATOM      6  C   UNL d   1     -48.018  28.572  34.217  0.00  0.00     0.100 A 
ENDROOT
BRANCH   1   7
ATOM      7  S   UNL d   1     -49.801  27.312  34.160  0.00  0.00     0.273 S 
ATOM      8  O   UNL d   1     -50.072  27.199  34.939  0.00  0.00    -0.200 OA
ATOM      9  O   UNL d   1     -49.535  27.423  33.389  0.00  0.00    -0.200 OA
BRANCH   7  10
ATOM     10  C   UNL d   1     -50.409  26.838  33.878  0.00  0.00     0.128 A 
ATOM     11  C   UNL d   1     -51.189  27.117  33.871  0.00  0.00     0.044 A 
ATOM     12  C   UNL d   1     -51.801  26.643  33.588  0.00  0.00     0.141 A 
ATOM     13  F   UNL d   1     -52.569  26.924  33.585  0.00  0.00    -0.204 F 
ATOM     14  C   UNL d   1     -51.636  25.879  33.307  0.00  0.00     0.032 A 
ATOM     15  C   UNL d   1     -50.861  25.600  33.313  0.00  0.00     0.027 A 
ATOM     16  C   UNL d   1     -50.244  26.074  33.596  0.00  0.00     0.106 A 
BRANCH  16  17
ATOM     17  O   UNL d   1     -49.471  25.787  33.599  0.00  0.00    -0.327 OA
ATOM     18  C   UNL d   1     -49.311  25.037  33.312  0.00  0.00     0.181 C 
ENDBRANCH  16  17
ENDBRANCH   7  10
ENDBRANCH   1   7
BRANCH   2  19
ATOM     19  C   UNL d   1     -47.362  29.215  35.317  0.00  0.00     0.080 C 
BRANCH  19  20
ATOM     20  C   UNL d   1     -47.418  30.040  35.278  0.00  0.00     0.020 A 
ATOM     21  C   UNL d   1     -47.646  30.408  34.581  0.00  0.00     0.028 A 
ATOM     22  C   UNL d   1     -47.702  31.230  34.544  0.00  0.00     0.119 A 
ATOM     23  O   UNL d   1     -47.912  31.746  33.936  0.00  0.00    -0.300 OA
ATOM     24  C   UNL d   1     -47.527  31.687  35.215  0.00  0.00     0.119 A 
ATOM     25  C   UNL d   1     -47.867  32.517  34.227  0.00  0.00     0.304 A 
ATOM     26  O   UNL d   1     -47.631  32.477  35.012  0.00  0.00    -0.300 OA
ATOM     27  C   UNL d   1     -47.298  31.314  35.915  0.00  0.00     0.026 A 
ATOM     28  C   UNL d   1     -47.243  30.497  35.950  0.00  0.00     0.004 A 
ENDBRANCH  19  20
ENDBRANCH   2  19
TORSDOF 5
ENDMDL
MODEL 3
REMARK VINA RESULT:      70.5      2.127      5.569
REMARK  5 active torsions:
REMARK  status: ('A' for Active; 'I' for Inactive)
REMARK    1  A    between atoms: C_2  and  S_1 
REMARK    2  A    between atoms: N_3  and  S_1 
REMARK    3  A    between atoms: C_18  and  N_7 
REMARK    4  A    between atoms: O_27  and  C_9 
REMARK    5  A    between atoms: C_17  and  C_18 
ROOT
ATOM      1  N   UNL d   1     -48.853  28.523  34.626  0.00  0.00    -0.226 N 
ATOM      2  N   UNL d   1     -49.882  27.567  33.751  0.00  0.00    -0.300 N 
ATOM      3  C   UNL d   1     -49.155  27.823  34.957  0.00  0.00     0.111 A 
ATOM      4  C   UNL d   1     -49.070  28.739  33.857  0.00  0.00     0.111 A 
ATOM      5  C   UNL d   1     -49.670  27.349  34.514  0.00  0.00     0.100 A 
ATOM      6  C   UNL d   1     -49.580  28.267  33.421  0.00  0.00     0.100 A 
ENDROOT
BRANCH   1   7
ATOM      7  S   UNL d   1     -48.342  28.995  35.066  0.00  0.00     0.273 S 
ATOM      8  O   UNL d   1     -48.925  29.069  35.656  0.00  0.00    -0.200 OA
ATOM      9  O   UNL d   1     -47.765  28.923  34.484  0.00  0.00    -0.200 OA
BRANCH   7  10
ATOM     10  C   UNL d   1     -47.834  29.467  35.506  0.00  0.00     0.128 A 
ATOM     11  C   UNL d   1     -47.327  29.126  36.066  0.00  0.00     0.044 A 
ATOM     12  C   UNL d   1     -46.816  29.598  36.509  0.00  0.00     0.141 A 
ATOM     13  F   UNL d   1     -46.318  29.256  37.060  0.00  0.00    -0.204 F 
ATOM     14  C   UNL d   1     -46.809  30.421  36.394  0.00  0.00     0.032 A 
ATOM     15  C   UNL d   1     -47.312  30.760  35.838  0.00  0.00     0.027 A 
ATOM     16  C   UNL d   1     -47.827  30.290  35.391  0.00  0.00     0.106 A 
BRANCH  16  17
ATOM     17  O   UNL d   1     -48.327  30.637  34.837  0.00  0.00    -0.327 OA
ATOM     18  C   UNL d   1     -48.264  31.437  34.670  0.00  0.00     0.181 C 
ENDBRANCH  16  17
ENDBRANCH   7  10
ENDBRANCH   1   7
BRANCH   2  19
ATOM     19  C   UNL d   1     -50.395  27.093  33.311  0.00  0.00     0.080 C 
BRANCH  19  20
ATOM     20  C   UNL d   1     -50.333  26.268  33.339  0.00  0.00     0.020 A 
ATOM     21  C   UNL d   1     -51.008  25.803  33.384  0.00  0.00     0.028 A 
ATOM     22  C   UNL d   1     -50.944  24.981  33.411  0.00  0.00     0.119 A 
ATOM     23  O   UNL d   1     -51.508  24.381  33.457  0.00  0.00    -0.300 OA
ATOM     24  C   UNL d   1     -50.194  24.624  33.394  0.00  0.00     0.119 A 
ATOM     25  C   UNL d   1     -51.112  23.657  33.467  0.00  0.00     0.304 A 
ATOM     26  O   UNL d   1     -50.307  23.809  33.428  0.00  0.00    -0.300 OA
ATOM     27  C   UNL d   1     -49.518  25.094  33.348  0.00  0.00     0.026 A 
ATOM     28  C   UNL d   1     -49.583  25.911  33.321  0.00  0.00     0.004 A 
ENDBRANCH  19  20
ENDBRANCH   2  19
TORSDOF 5
ENDMDL
