MODEL 1
REMARK VINA RESULT:      -4.1      0.000      0.000
REMARK  5 active torsions:
REMARK  status: ('A' for Active; 'I' for Inactive)
REMARK    1  A    between atoms: C_11  and  N_1 
REMARK    2  A    between atoms: C_5  and  C_3 
REMARK       I    between atoms: N_14  and  C_5 
REMARK    3  A    between atoms: N_7  and  C_18 
REMARK    4  A    between atoms: C_17  and  N_14 
REMARK    5  A    between atoms: C_18  and  C_17 
ROOT
ATOM      1  C   UNL d   1      32.877  18.572 -23.405  0.00  0.00     0.281 C 
ATOM      2  O   UNL d   1      33.239  18.974 -24.026  0.00  0.00    -0.265 OA
ATOM      3  N   UNL d   1      32.768  18.950 -22.686  0.00  0.00    -0.205 NA
ENDROOT
BRANCH   1   4
ATOM      4  C   UNL d   1      32.626  17.788 -23.509  0.00  0.00     0.080 A 
ATOM      5  C   UNL d   1      31.857  17.545 -23.685  0.00  0.00     0.088 A 
ATOM      6  N   UNL d   1      31.863  16.722 -23.738  0.00  0.00    -0.273 N 
ATOM      7  C   UNL d   1      32.626  16.457 -23.596  0.00  0.00     0.265 A 
ATOM      8  C   UNL d   1      33.102  17.118 -23.454  0.00  0.00     0.067 A 
ATOM      9  O   UNL d   1      32.836  15.655 -23.605  0.00  0.00    -0.267 OA
BRANCH   6  10
ATOM     10  C   UNL d   1      31.210  16.245 -23.905  0.00  0.00     0.067 A 
ATOM     11  C   UNL d   1      30.712  15.898 -23.344  0.00  0.00     0.018 A 
ATOM     12  C   UNL d   1      30.136  15.470 -23.750  0.00  0.00     0.002 A 
ATOM     13  C   UNL d   1      30.283  15.556 -24.557  0.00  0.00     0.002 A 
ATOM     14  C   UNL d   1      30.940  16.030 -24.657  0.00  0.00     0.018 A 
ENDBRANCH   6  10
ENDBRANCH   1   4
BRANCH   3  15
ATOM     15  C   UNL d   1      33.017  19.725 -22.585  0.00  0.00     0.121 C 
BRANCH  15  16
ATOM     16  C   UNL d   1      32.998  20.077 -21.843  0.00  0.00     0.101 C 
BRANCH  16  17
ATOM     17  N   UNL d   1      32.931  20.903 -21.789  0.00  0.00    -0.301 N 
ATOM     18  C   UNL d   1      32.556  21.238 -21.137  0.00  0.00     0.080 A 
ATOM     19  C   UNL d   1      32.492  22.061 -21.088  0.00  0.00     0.018 A 
ATOM     20  C   UNL d   1      32.122  22.405 -20.445  0.00  0.00     0.002 A 
ATOM     21  C   UNL d   1      32.798  22.540 -21.683  0.00  0.00     0.003 A 
ATOM     22  C   UNL d   1      32.055  23.218 -20.390  0.00  0.00     0.000 A 
ATOM     23  C   UNL d   1      32.361  23.702 -20.987  0.00  0.00     0.000 A 
ATOM     24  C   UNL d   1      32.735  23.361 -21.637  0.00  0.00     0.000 A 
ATOM     25  C   UNL d   1      33.172  22.194 -22.334  0.00  0.00     0.019 A 
ATOM     26  C   UNL d   1      33.240  21.370 -22.389  0.00  0.00     0.080 A 
ENDBRANCH  16  17
ENDBRANCH  15  16
ENDBRANCH   3  15
TORSDOF 5
ENDMDL
MODEL 2
REMARK VINA RESULT:      -3.9      1.152      6.106
REMARK  5 active torsions:
REMARK  status: ('A' for Active; 'I' for Inactive)
REMARK    1  A    between atoms: C_11  and  N_1 
REMARK    2  A    between atoms: C_5  and  C_3 
REMARK       I    between atoms: N_14  and  C_5 
REMARK    3  A    between atoms: N_7  and  C_18 
REMARK    4  A    between atoms: C_17  and  N_14 
REMARK    5  A    between atoms: C_18  and  C_17 
ROOT
ATOM      1  C   UNL d   1      33.018  19.840 -22.061  0.00  0.00     0.281 C 
ATOM      2  O   UNL d   1      33.236  19.387 -21.410  0.00  0.00    -0.265 OA
ATOM      3  N   UNL d   1      32.836  19.471 -22.770  0.00  0.00    -0.205 NA
ENDROOT
BRANCH   1   4
ATOM      4  C   UNL d   1      32.982  20.667 -21.998  0.00  0.00     0.080 A 
ATOM      5  C   UNL d   1      32.699  21.091 -21.350  0.00  0.00     0.088 A 
ATOM      6  N   UNL d   1      32.768  21.894 -21.529  0.00  0.00    -0.273 N 
ATOM      7  C   UNL d   1      33.090  21.966 -22.280  0.00  0.00     0.265 A 
ATOM      8  C   UNL d   1      33.224  21.204 -22.574  0.00  0.00     0.067 A 
ATOM      9  O   UNL d   1      33.239  22.697 -22.641  0.00  0.00    -0.267 OA
BRANCH   6  10
ATOM     10  C   UNL d   1      32.550  22.519 -21.036  0.00  0.00     0.067 A 
ATOM     11  C   UNL d   1      32.878  22.683 -20.295  0.00  0.00     0.018 A 
ATOM     12  C   UNL d   1      32.500  23.352 -19.996  0.00  0.00     0.002 A 
ATOM     13  C   UNL d   1      31.944  23.595 -20.555  0.00  0.00     0.002 A 
ATOM     14  C   UNL d   1      31.971  23.088 -21.193  0.00  0.00     0.018 A 
ENDBRANCH   6  10
ENDBRANCH   1   4
BRANCH   3  15
ATOM     15  C   UNL d   1      32.872  18.654 -22.831  0.00  0.00     0.121 C 
BRANCH  15  16
ATOM     16  C   UNL d   1      32.828  18.287 -23.564  0.00  0.00     0.101 C 
BRANCH  16  17
ATOM     17  N   UNL d   1      32.400  17.579 -23.637  0.00  0.00    -0.301 N 
ATOM     18  C   UNL d   1      31.658  17.587 -23.994  0.00  0.00     0.080 A 
ATOM     19  C   UNL d   1      31.236  16.879 -24.064  0.00  0.00     0.018 A 
ATOM     20  C   UNL d   1      30.498  16.876 -24.417  0.00  0.00     0.002 A 
ATOM     21  C   UNL d   1      31.553  16.175 -23.782  0.00  0.00     0.003 A 
ATOM     22  C   UNL d   1      30.076  16.180 -24.490  0.00  0.00     0.000 A 
ATOM     23  C   UNL d   1      30.392  15.469 -24.206  0.00  0.00     0.000 A 
ATOM     24  C   UNL d   1      31.135  15.467 -23.850  0.00  0.00     0.000 A 
ATOM     25  C   UNL d   1      32.299  16.176 -23.425  0.00  0.00     0.019 A 
ATOM     26  C   UNL d   1      32.727  16.882 -23.351  0.00  0.00     0.080 A 
ENDBRANCH  16  17
ENDBRANCH  15  16
ENDBRANCH   3  15
TORSDOF 5
ENDMDL
MODEL 3
REMARK VINA RESULT:      -2.5      1.251      6.007
REMARK  5 active torsions:
REMARK  status: ('A' for Active; 'I' for Inactive)
REMARK    1  A    between atoms: C_11  and  N_1 
REMARK    2  A    between atoms: C_5  and  C_3 
REMARK       I    between atoms: N_14  and  C_5 
REMARK    3  A    between atoms: N_7  and  C_18 
REMARK    4  A    between atoms: C_17  and  N_14 
REMARK    5  A    between atoms: C_18  and  C_17 
ROOT
ATOM      1  C   UNL d   1      33.035  19.633 -22.353  0.00  0.00     0.281 C 
ATOM      2  O   UNL d   1      33.237  19.052 -21.806  0.00  0.00    -0.265 OA
ATOM      3  N   UNL d   1      32.847  19.418 -23.121  0.00  0.00    -0.205 NA
ENDROOT
BRANCH   1   4
ATOM      4  C   UNL d   1      33.023  20.431 -22.126  0.00  0.00     0.080 A 
ATOM      5  C   UNL d   1      32.826  21.069 -22.609  0.00  0.00     0.088 A 
ATOM      6  N   UNL d   1      32.888  21.754 -22.154  0.00  0.00    -0.273 N 
ATOM      7  C   UNL d   1      33.122  21.543 -21.396  0.00  0.00     0.265 A 
ATOM      8  C   UNL d   1      33.206  20.720 -21.376  0.00  0.00     0.067 A 
ATOM      9  O   UNL d   1      33.241  22.094 -20.788  0.00  0.00    -0.267 OA
BRANCH   6  10
ATOM     10  C   UNL d   1      32.741  22.523 -22.416  0.00  0.00     0.067 A 
ATOM     11  C   UNL d   1      32.062  22.965 -22.249  0.00  0.00     0.018 A 
ATOM     12  C   UNL d   1      32.144  23.698 -22.618  0.00  0.00     0.002 A 
ATOM     13  C   UNL d   1      32.871  23.702 -23.008  0.00  0.00     0.002 A 
ATOM     14  C   UNL d   1      33.240  22.984 -22.887  0.00  0.00     0.018 A 
ENDBRANCH   6  10
ENDBRANCH   1   4
BRANCH   3  15
ATOM     15  C   UNL d   1      32.859  18.629 -23.345  0.00  0.00     0.121 C 
BRANCH  15  16
ATOM     16  C   UNL d   1      32.584  18.399 -24.084  0.00  0.00     0.101 C 
BRANCH  16  17
ATOM     17  N   UNL d   1      32.193  17.671 -24.161  0.00  0.00    -0.301 N 
ATOM     18  C   UNL d   1      31.373  17.656 -24.236  0.00  0.00     0.080 A 
ATOM     19  C   UNL d   1      30.989  16.927 -24.313  0.00  0.00     0.018 A 
ATOM     20  C   UNL d   1      30.175  16.901 -24.388  0.00  0.00     0.002 A 
ATOM     21  C   UNL d   1      31.419  16.226 -24.314  0.00  0.00     0.003 A 
ATOM     22  C   UNL d   1      29.788  16.184 -24.464  0.00  0.00     0.000 A 
ATOM     23  C   UNL d   1      30.218  15.477 -24.466  0.00  0.00     0.000 A 
ATOM     24  C   UNL d   1      31.038  15.498 -24.390  0.00  0.00     0.000 A 
ATOM     25  C   UNL d   1      32.242  16.252 -24.238  0.00  0.00     0.019 A 
ATOM     26  C   UNL d   1      32.633  16.978 -24.161  0.00  0.00     0.080 A 
ENDBRANCH  16  17
ENDBRANCH  15  16
ENDBRANCH   3  15
TORSDOF 5
ENDMDL
