MODEL 1
REMARK VINA RESULT:      59.3      0.000      0.000
REMARK  11 active torsions:
REMARK  status: ('A' for Active; 'I' for Inactive)
REMARK    1  A    between atoms: C_3  and  C_1 
REMARK    2  A    between atoms: N_4  and  C_1 
REMARK    3  A    between atoms: C_5  and  C_1 
REMARK       I    between atoms: C_2  and  N_4 
REMARK    4  A    between atoms: O_10  and  C_2 
REMARK    5  A    between atoms: O_7  and  C_3 
REMARK    6  A    between atoms: C_12  and  C_5 
REMARK    7  A    between atoms: C_6  and  C_12 
REMARK    8  A    between atoms: C_13  and  O_7 
REMARK    9  A    between atoms: C_15  and  O_10 
REMARK   10  A    between atoms: C_16  and  C_13 
REMARK   11  A    between atoms: C_17  and  C_15 
ROOT
ATOM      1  C   UNL d   1     -50.349  27.102  35.187  0.00  0.00     0.150 C 
ENDROOT
BRANCH   1   2
ATOM      2  C   UNL d   1     -49.531  27.177  35.259  0.00  0.00     0.318 C 
ATOM      3  O   UNL d   1     -49.067  26.512  35.423  0.00  0.00    -0.257 OA
BRANCH   2   4
ATOM      4  O   UNL d   1     -49.169  27.920  35.167  0.00  0.00    -0.270 OA
BRANCH   4   5
ATOM      5  C   UNL d   1     -48.729  28.459  34.720  0.00  0.00     0.126 C 
BRANCH   5   6
ATOM      6  C   UNL d   1     -48.262  29.019  35.105  0.00  0.00     0.025 A 
ATOM      7  C   UNL d   1     -47.953  29.652  34.688  0.00  0.00     0.002 A 
ATOM      8  C   UNL d   1     -47.491  30.208  35.063  0.00  0.00     0.000 A 
ATOM      9  C   UNL d   1     -47.327  30.140  35.875  0.00  0.00     0.000 A 
ATOM     10  C   UNL d   1     -47.644  29.493  36.297  0.00  0.00     0.000 A 
ATOM     11  C   UNL d   1     -48.107  28.941  35.911  0.00  0.00     0.002 A 
ENDBRANCH   5   6
ENDBRANCH   4   5
ENDBRANCH   2   4
ENDBRANCH   1   2
BRANCH   1  12
ATOM     12  N   UNL d   1     -50.741  27.461  34.556  0.00  0.00    -0.180 NA
ATOM     13  C   UNL d   1     -51.047  26.999  33.942  0.00  0.00     0.393 C 
ATOM     14  O   UNL d   1     -51.440  27.361  33.309  0.00  0.00    -0.236 OA
BRANCH  13  15
ATOM     15  O   UNL d   1     -50.962  26.179  33.960  0.00  0.00    -0.256 OA
BRANCH  15  16
ATOM     16  C   UNL d   1     -51.237  25.720  33.329  0.00  0.00     0.128 C 
BRANCH  16  17
ATOM     17  C   UNL d   1     -51.168  24.899  33.365  0.00  0.00     0.025 A 
ATOM     18  C   UNL d   1     -51.847  24.439  33.458  0.00  0.00     0.002 A 
ATOM     19  C   UNL d   1     -51.783  23.609  33.495  0.00  0.00     0.000 A 
ATOM     20  C   UNL d   1     -51.042  23.248  33.439  0.00  0.00     0.000 A 
ATOM     21  C   UNL d   1     -50.364  23.719  33.346  0.00  0.00     0.000 A 
ATOM     22  C   UNL d   1     -50.430  24.542  33.309  0.00  0.00     0.002 A 
ENDBRANCH  16  17
ENDBRANCH  15  16
ENDBRANCH  13  15
ENDBRANCH   1  12
BRANCH   1  23
ATOM     23  C   UNL d   1     -50.776  26.668  35.746  0.00  0.00     0.031 C 
BRANCH  23  24
ATOM     24  C   UNL d   1     -50.924  26.987  36.493  0.00  0.00     0.072 C 
BRANCH  24  25
ATOM     25  C   UNL d   1     -51.254  26.517  37.086  0.00  0.00     0.211 C 
ATOM     26  O   UNL d   1     -50.807  26.299  37.750  0.00  0.00    -0.644 OA
ATOM     27  O   UNL d   1     -52.038  26.254  37.029  0.00  0.00    -0.644 OA
ENDBRANCH  24  25
ENDBRANCH  23  24
ENDBRANCH   1  23
TORSDOF 11
ENDMDL
MODEL 2
REMARK VINA RESULT:      62.2      1.720      5.387
REMARK  11 active torsions:
REMARK  status: ('A' for Active; 'I' for Inactive)
REMARK    1  A    between atoms: C_3  and  C_1 
REMARK    2  A    between atoms: N_4  and  C_1 
REMARK    3  A    between atoms: C_5  and  C_1 
REMARK       I    between atoms: C_2  and  N_4 
REMARK    4  A    between atoms: O_10  and  C_2 
REMARK    5  A    between atoms: O_7  and  C_3 
REMARK    6  A    between atoms: C_12  and  C_5 
REMARK    7  A    between atoms: C_6  and  C_12 
REMARK    8  A    between atoms: C_13  and  O_7 
REMARK    9  A    between atoms: C_15  and  O_10 
REMARK   10  A    between atoms: C_16  and  C_13 
REMARK   11  A    between atoms: C_17  and  C_15 
ROOT
ATOM      1  C   UNL d   1     -48.598  28.509  35.178  0.00  0.00     0.150 C 
ENDROOT
BRANCH   1   2
ATOM      2  C   UNL d   1     -48.970  28.411  34.448  0.00  0.00     0.318 C 
ATOM      3  O   UNL d   1     -49.394  29.036  34.113  0.00  0.00    -0.257 OA
BRANCH   2   4
ATOM      4  O   UNL d   1     -48.920  27.684  34.048  0.00  0.00    -0.270 OA
BRANCH   4   5
ATOM      5  C   UNL d   1     -49.113  27.197  33.408  0.00  0.00     0.126 C 
BRANCH   5   6
ATOM      6  C   UNL d   1     -49.860  26.848  33.374  0.00  0.00     0.025 A 
ATOM      7  C   UNL d   1     -50.531  27.316  33.370  0.00  0.00     0.002 A 
ATOM      8  C   UNL d   1     -51.271  26.977  33.337  0.00  0.00     0.000 A 
ATOM      9  C   UNL d   1     -51.354  26.150  33.308  0.00  0.00     0.000 A 
ATOM     10  C   UNL d   1     -50.666  25.676  33.312  0.00  0.00     0.000 A 
ATOM     11  C   UNL d   1     -49.929  26.026  33.345  0.00  0.00     0.002 A 
ENDBRANCH   5   6
ENDBRANCH   4   5
ENDBRANCH   2   4
ENDBRANCH   1   2
BRANCH   1  12
ATOM     12  N   UNL d   1     -47.775  28.552  35.217  0.00  0.00    -0.180 NA
ATOM     13  C   UNL d   1     -47.392  29.273  35.086  0.00  0.00     0.393 C 
ATOM     14  O   UNL d   1     -46.566  29.315  35.126  0.00  0.00    -0.236 OA
BRANCH  13  15
ATOM     15  O   UNL d   1     -47.832  29.950  34.916  0.00  0.00    -0.256 OA
BRANCH  15  16
ATOM     16  C   UNL d   1     -47.677  30.657  35.317  0.00  0.00     0.128 C 
BRANCH  16  17
ATOM     17  C   UNL d   1     -47.687  31.369  34.901  0.00  0.00     0.025 A 
ATOM     18  C   UNL d   1     -48.405  31.660  34.613  0.00  0.00     0.002 A 
ATOM     19  C   UNL d   1     -48.421  32.379  34.193  0.00  0.00     0.000 A 
ATOM     20  C   UNL d   1     -47.722  32.799  34.065  0.00  0.00     0.000 A 
ATOM     21  C   UNL d   1     -47.005  32.499  34.358  0.00  0.00     0.000 A 
ATOM     22  C   UNL d   1     -46.991  31.786  34.775  0.00  0.00     0.002 A 
ENDBRANCH  16  17
ENDBRANCH  15  16
ENDBRANCH  13  15
ENDBRANCH   1  12
BRANCH   1  23
ATOM     23  C   UNL d   1     -49.049  28.563  35.869  0.00  0.00     0.031 C 
BRANCH  23  24
ATOM     24  C   UNL d   1     -49.086  27.925  36.391  0.00  0.00     0.072 C 
BRANCH  24  25
ATOM     25  C   UNL d   1     -49.671  27.899  36.973  0.00  0.00     0.211 C 
ATOM     26  O   UNL d   1     -49.703  28.477  37.566  0.00  0.00    -0.644 OA
ATOM     27  O   UNL d   1     -50.239  27.293  36.974  0.00  0.00    -0.644 OA
ENDBRANCH  24  25
ENDBRANCH  23  24
ENDBRANCH   1  23
TORSDOF 11
ENDMDL
