MODEL 1
REMARK VINA RESULT:      -2.3      0.000      0.000
REMARK  4 active torsions:
REMARK  status: ('A' for Active; 'I' for Inactive)
REMARK    1  A    between atoms: N_2  and  C_1 
REMARK    2  A    between atoms: N_4  and  C_1 
REMARK       I    between atoms: C_3  and  N_2 
REMARK    3  A    between atoms: C_6  and  C_3 
REMARK    4  A    between atoms: C_9  and  N_5 
ROOT
ATOM      1  N   UNL d   1      58.114  -0.656  30.421  0.00  0.00    -0.278 N 
ATOM      2  N   UNL d   1      59.112  -1.787  29.765  0.00  0.00    -0.301 N 
ATOM      3  C   UNL d   1      57.800  -1.354  30.101  0.00  0.00     0.101 A 
ATOM      4  C   UNL d   1      58.931  -0.519  30.415  0.00  0.00     0.101 A 
ATOM      5  C   UNL d   1      58.307  -1.916  29.774  0.00  0.00     0.100 A 
ATOM      6  C   UNL d   1      59.435  -1.082  30.088  0.00  0.00     0.100 A 
ENDROOT
BRANCH   1   7
ATOM      7  C   UNL d   1      57.601  -0.099  30.746  0.00  0.00     0.209 C 
ATOM      8  S   UNL d   1      57.664   0.682  30.520  0.00  0.00    -0.038 SA
BRANCH   7   9
ATOM      9  N   UNL d   1      57.042  -0.350  31.288  0.00  0.00    -0.179 NA
ATOM     10  C   UNL d   1      56.966   0.036  31.998  0.00  0.00     0.287 C 
ATOM     11  O   UNL d   1      57.464   0.667  32.134  0.00  0.00    -0.265 OA
BRANCH  10  12
ATOM     12  C   UNL d   1      56.421  -0.194  32.550  0.00  0.00     0.087 A 
ATOM     13  S   UNL d   1      56.068   0.309  33.088  0.00  0.00    -0.082 SA
ATOM     14  C   UNL d   1      55.533  -0.136  33.570  0.00  0.00     0.036 A 
ATOM     15  C   UNL d   1      55.580  -0.922  33.298  0.00  0.00     0.008 A 
ATOM     16  C   UNL d   1      56.107  -0.977  32.687  0.00  0.00     0.012 A 
ENDBRANCH  10  12
ENDBRANCH   7   9
ENDBRANCH   1   7
BRANCH   2  17
ATOM     17  C   UNL d   1      59.616  -2.350  29.438  0.00  0.00     0.064 A 
ATOM     18  C   UNL d   1      60.433  -2.317  29.594  0.00  0.00     0.020 A 
ATOM     19  C   UNL d   1      60.926  -2.885  29.262  0.00  0.00     0.031 A 
ATOM     20  C   UNL d   1      60.625  -3.486  28.776  0.00  0.00     0.140 A 
ATOM     21  C   UNL d   1      59.809  -3.519  28.620  0.00  0.00     0.031 A 
ATOM     22  F   UNL d   1      61.132  -4.042  28.455  0.00  0.00    -0.204 F 
ATOM     23  C   UNL d   1      59.307  -2.945  28.956  0.00  0.00     0.020 A 
ENDBRANCH   2  17
TORSDOF 4
ENDMDL
MODEL 2
REMARK VINA RESULT:      -0.1      2.123      3.227
REMARK  4 active torsions:
REMARK  status: ('A' for Active; 'I' for Inactive)
REMARK    1  A    between atoms: N_2  and  C_1 
REMARK    2  A    between atoms: N_4  and  C_1 
REMARK       I    between atoms: C_3  and  N_2 
REMARK    3  A    between atoms: C_6  and  C_3 
REMARK    4  A    between atoms: C_9  and  N_5 
ROOT
ATOM      1  N   UNL d   1      56.657   0.141  32.998  0.00  0.00    -0.278 N 
ATOM      2  N   UNL d   1      57.353  -0.282  31.569  0.00  0.00    -0.301 N 
ATOM      3  C   UNL d   1      56.484  -0.592  32.651  0.00  0.00     0.101 A 
ATOM      4  C   UNL d   1      57.180   0.669  32.632  0.00  0.00     0.101 A 
ATOM      5  C   UNL d   1      56.837  -0.797  31.934  0.00  0.00     0.100 A 
ATOM      6  C   UNL d   1      57.531   0.462  31.916  0.00  0.00     0.100 A 
ENDROOT
BRANCH   1   7
ATOM      7  C   UNL d   1      56.300   0.339  33.714  0.00  0.00     0.209 C 
ATOM      8  S   UNL d   1      56.765   0.456  34.373  0.00  0.00    -0.038 SA
BRANCH   7   9
ATOM      9  N   UNL d   1      55.486   0.412  33.740  0.00  0.00    -0.179 NA
ATOM     10  C   UNL d   1      55.107   0.460  34.456  0.00  0.00     0.287 C 
ATOM     11  O   UNL d   1      55.571   0.433  35.126  0.00  0.00    -0.265 OA
BRANCH  10  12
ATOM     12  C   UNL d   1      54.303   0.533  34.507  0.00  0.00     0.087 A 
ATOM     13  S   UNL d   1      53.880   0.516  35.206  0.00  0.00    -0.082 SA
ATOM     14  C   UNL d   1      53.057   0.608  35.032  0.00  0.00     0.036 A 
ATOM     15  C   UNL d   1      53.006   0.681  34.204  0.00  0.00     0.008 A 
ATOM     16  C   UNL d   1      53.741   0.638  33.871  0.00  0.00     0.012 A 
ENDBRANCH  10  12
ENDBRANCH   7   9
ENDBRANCH   1   7
BRANCH   2  17
ATOM     17  C   UNL d   1      57.704  -0.489  30.853  0.00  0.00     0.064 A 
ATOM     18  C   UNL d   1      57.953  -1.272  30.725  0.00  0.00     0.020 A 
ATOM     19  C   UNL d   1      58.302  -1.468  30.006  0.00  0.00     0.031 A 
ATOM     20  C   UNL d   1      58.409  -0.900  29.411  0.00  0.00     0.140 A 
ATOM     21  C   UNL d   1      58.160  -0.117  29.540  0.00  0.00     0.031 A 
ATOM     22  F   UNL d   1      58.759  -1.115  28.703  0.00  0.00    -0.204 F 
ATOM     23  C   UNL d   1      57.806   0.083  30.267  0.00  0.00     0.020 A 
ENDBRANCH   2  17
TORSDOF 4
ENDMDL
