MODEL 1
REMARK VINA RESULT:      -4.7      0.000      0.000
REMARK  5 active torsions:
REMARK  status: ('A' for Active; 'I' for Inactive)
REMARK    1  A    between atoms: C_6  and  C_1 
REMARK    2  A    between atoms: C_8  and  N_3 
REMARK    3  A    between atoms: O_7  and  C_6 
REMARK    4  A    between atoms: C_9  and  O_7 
REMARK    5  A    between atoms: O_16  and  C_10 
ROOT
ATOM      1  C   UNL d   1     -41.507-123.335 -52.159  0.00  0.00     0.173 A 
ATOM      2  N   UNL d   1     -41.501-123.809 -52.804  0.00  0.00    -0.225 NA
ATOM      3  N   UNL d   1     -41.467-122.554 -52.357  0.00  0.00    -0.287 N 
ATOM      4  C   UNL d   1     -41.431-122.513 -53.225  0.00  0.00     0.083 A 
ATOM      5  C   UNL d   1     -41.452-123.270 -53.494  0.00  0.00     0.099 A 
ATOM      6  C   UNL d   1     -41.384-121.905 -53.776  0.00  0.00     0.019 A 
ATOM      7  C   UNL d   1     -41.426-123.472 -54.335  0.00  0.00     0.021 A 
ATOM      8  C   UNL d   1     -41.357-122.029 -54.589  0.00  0.00     0.002 A 
ATOM      9  C   UNL d   1     -41.377-122.786 -54.859  0.00  0.00     0.002 A 
ENDROOT
BRANCH   1  10
ATOM     10  C   UNL d   1     -41.532-123.174 -51.365  0.00  0.00     0.160 C 
BRANCH  10  11
ATOM     11  O   UNL d   1     -41.719-123.791 -50.831  0.00  0.00    -0.302 OA
BRANCH  11  12
ATOM     12  C   UNL d   1     -41.787-123.631 -50.012  0.00  0.00     0.100 A 
ATOM     13  C   UNL d   1     -42.543-123.539 -49.665  0.00  0.00     0.027 A 
ATOM     14  C   UNL d   1     -42.611-123.379 -48.846  0.00  0.00     0.026 A 
ATOM     15  C   UNL d   1     -41.946-123.313 -48.391  0.00  0.00     0.094 A 
ATOM     16  C   UNL d   1     -41.191-123.404 -48.739  0.00  0.00     0.026 A 
ATOM     17  C   UNL d   1     -41.123-123.564 -49.558  0.00  0.00     0.027 A 
BRANCH  15  18
ATOM     18  O   UNL d   1     -42.223-123.153 -47.612  0.00  0.00    -0.328 OA
ATOM     19  C   UNL d   1     -41.688-122.937 -46.999  0.00  0.00     0.181 C 
ENDBRANCH  15  18
ENDBRANCH  11  12
ENDBRANCH  10  11
ENDBRANCH   1  10
BRANCH   3  20
ATOM     20  C   UNL d   1     -41.470-122.029 -51.752  0.00  0.00     0.082 C 
ATOM     21  C   UNL d   1     -41.134-121.278 -51.823  0.00  0.00     0.021 C 
ENDBRANCH   3  20
TORSDOF 5
ENDMDL
MODEL 2
REMARK VINA RESULT:      -4.4      1.127      1.650
REMARK  5 active torsions:
REMARK  status: ('A' for Active; 'I' for Inactive)
REMARK    1  A    between atoms: C_6  and  C_1 
REMARK    2  A    between atoms: C_8  and  N_3 
REMARK    3  A    between atoms: O_7  and  C_6 
REMARK    4  A    between atoms: C_9  and  O_7 
REMARK    5  A    between atoms: O_16  and  C_10 
ROOT
ATOM      1  C   UNL d   1     -42.151-122.050 -52.969  0.00  0.00     0.173 A 
ATOM      2  N   UNL d   1     -42.607-121.582 -53.432  0.00  0.00    -0.225 NA
ATOM      3  N   UNL d   1     -41.657-122.516 -53.404  0.00  0.00    -0.287 N 
ATOM      4  C   UNL d   1     -41.806-122.333 -54.241  0.00  0.00     0.083 A 
ATOM      5  C   UNL d   1     -42.380-121.770 -54.257  0.00  0.00     0.099 A 
ATOM      6  C   UNL d   1     -41.503-122.600 -54.957  0.00  0.00     0.019 A 
ATOM      7  C   UNL d   1     -42.689-121.434 -54.991  0.00  0.00     0.021 A 
ATOM      8  C   UNL d   1     -41.754-122.322 -55.690  0.00  0.00     0.002 A 
ATOM      9  C   UNL d   1     -42.327-121.759 -55.706  0.00  0.00     0.002 A 
ENDROOT
BRANCH   1  10
ATOM     10  C   UNL d   1     -41.878-122.348 -52.266  0.00  0.00     0.160 C 
BRANCH  10  11
ATOM     11  O   UNL d   1     -41.876-121.856 -51.590  0.00  0.00    -0.302 OA
BRANCH  11  12
ATOM     12  C   UNL d   1     -41.915-122.193 -50.825  0.00  0.00     0.100 A 
ATOM     13  C   UNL d   1     -42.658-122.345 -50.471  0.00  0.00     0.027 A 
ATOM     14  C   UNL d   1     -42.697-122.682 -49.706  0.00  0.00     0.026 A 
ATOM     15  C   UNL d   1     -42.017-122.862 -49.309  0.00  0.00     0.094 A 
ATOM     16  C   UNL d   1     -41.274-122.710 -49.663  0.00  0.00     0.026 A 
ATOM     17  C   UNL d   1     -41.235-122.372 -50.428  0.00  0.00     0.027 A 
BRANCH  15  18
ATOM     18  O   UNL d   1     -42.266-123.186 -48.573  0.00  0.00    -0.328 OA
ATOM     19  C   UNL d   1     -41.703-123.433 -47.997  0.00  0.00     0.181 C 
ENDBRANCH  15  18
ENDBRANCH  11  12
ENDBRANCH  10  11
ENDBRANCH   1  10
BRANCH   3  20
ATOM     20  C   UNL d   1     -41.174-123.008 -52.996  0.00  0.00     0.082 C 
ATOM     21  C   UNL d   1     -41.123-123.814 -53.168  0.00  0.00     0.021 C 
ENDBRANCH   3  20
TORSDOF 5
ENDMDL
MODEL 3
REMARK VINA RESULT:      -4.4      1.518      4.936
REMARK  5 active torsions:
REMARK  status: ('A' for Active; 'I' for Inactive)
REMARK    1  A    between atoms: C_6  and  C_1 
REMARK    2  A    between atoms: C_8  and  N_3 
REMARK    3  A    between atoms: O_7  and  C_6 
REMARK    4  A    between atoms: C_9  and  O_7 
REMARK    5  A    between atoms: O_16  and  C_10 
ROOT
ATOM      1  C   UNL d   1     -41.593-123.104 -49.329  0.00  0.00     0.173 A 
ATOM      2  N   UNL d   1     -41.124-123.205 -48.688  0.00  0.00    -0.225 NA
ATOM      3  N   UNL d   1     -42.373-123.209 -49.154  0.00  0.00    -0.287 N 
ATOM      4  C   UNL d   1     -42.419-123.399 -48.307  0.00  0.00     0.083 A 
ATOM      5  C   UNL d   1     -41.666-123.396 -48.026  0.00  0.00     0.099 A 
ATOM      6  C   UNL d   1     -43.030-123.566 -47.782  0.00  0.00     0.019 A 
ATOM      7  C   UNL d   1     -41.471-123.561 -47.200  0.00  0.00     0.021 A 
ATOM      8  C   UNL d   1     -42.912-123.731 -46.984  0.00  0.00     0.002 A 
ATOM      9  C   UNL d   1     -42.159-123.728 -46.703  0.00  0.00     0.002 A 
ENDROOT
BRANCH   1  10
ATOM     10  C   UNL d   1     -41.748-122.946 -50.110  0.00  0.00     0.160 C 
BRANCH  10  11
ATOM     11  O   UNL d   1     -41.123-122.696 -50.606  0.00  0.00    -0.302 OA
BRANCH  11  12
ATOM     12  C   UNL d   1     -41.232-122.663 -51.435  0.00  0.00     0.100 A 
ATOM     13  C   UNL d   1     -41.454-121.943 -51.800  0.00  0.00     0.027 A 
ATOM     14  C   UNL d   1     -41.564-121.909 -52.628  0.00  0.00     0.026 A 
ATOM     15  C   UNL d   1     -41.456-122.573 -53.077  0.00  0.00     0.094 A 
ATOM     16  C   UNL d   1     -41.235-123.293 -52.712  0.00  0.00     0.026 A 
ATOM     17  C   UNL d   1     -41.125-123.326 -51.883  0.00  0.00     0.027 A 
BRANCH  15  18
ATOM     18  O   UNL d   1     -41.612-122.335 -53.870  0.00  0.00    -0.328 OA
ATOM     19  C   UNL d   1     -41.701-122.906 -54.483  0.00  0.00     0.181 C 
ENDBRANCH  15  18
ENDBRANCH  11  12
ENDBRANCH  10  11
ENDBRANCH   1  10
BRANCH   3  20
ATOM     20  C   UNL d   1     -42.893-123.121 -49.757  0.00  0.00     0.082 C 
ATOM     21  C   UNL d   1     -43.679-123.364 -49.697  0.00  0.00     0.021 C 
ENDBRANCH   3  20
TORSDOF 5
ENDMDL
