MODEL 1
REMARK VINA RESULT:      -4.8      0.000      0.000
REMARK  10 active torsions:
REMARK  status: ('A' for Active; 'I' for Inactive)
REMARK    1  A    between atoms: C_18  and  N_1 
REMARK    2  A    between atoms: S_7  and  C_2 
REMARK       I    between atoms: C_6  and  N_14 
REMARK    3  A    between atoms: C_9  and  C_6 
REMARK    4  A    between atoms: C_15  and  S_7 
REMARK    5  A    between atoms: C_8  and  C_15 
REMARK       I    between atoms: N_10  and  C_8 
REMARK    6  A    between atoms: C_19  and  N_10 
REMARK    7  A    between atoms: N_14  and  C_25 
REMARK    8  A    between atoms: C_25  and  C_18 
REMARK    9  A    between atoms: C_23  and  C_19 
REMARK   10  A    between atoms: O_27  and  C_20 
ROOT
ATOM      1  N   UNL d   1     -41.211  13.900  21.071  0.00  0.00    -0.302 N 
ATOM      2  C   UNL d   1     -40.581  14.521  20.057  0.00  0.00     0.049 A 
ATOM      3  C   UNL d   1     -41.286  14.144  20.277  0.00  0.00     0.087 A 
ATOM      4  C   UNL d   1     -40.069  14.512  20.714  0.00  0.00     0.024 A 
ATOM      5  C   UNL d   1     -40.459  14.129  21.339  0.00  0.00     0.065 A 
ATOM      6  C   UNL d   1     -39.301  14.801  20.827  0.00  0.00     0.002 A 
ATOM      7  C   UNL d   1     -40.086  14.035  22.069  0.00  0.00     0.018 A 
ATOM      8  C   UNL d   1     -38.930  14.708  21.553  0.00  0.00     0.000 A 
ATOM      9  C   UNL d   1     -39.321  14.325  22.178  0.00  0.00     0.002 A 
ENDROOT
BRANCH   1  10
ATOM     10  C   UNL d   1     -41.784  13.502  21.512  0.00  0.00     0.101 C 
BRANCH  10  11
ATOM     11  C   UNL d   1     -42.531  13.373  21.192  0.00  0.00     0.121 C 
BRANCH  11  12
ATOM     12  N   UNL d   1     -43.187  13.310  21.689  0.00  0.00    -0.205 NA
ATOM     13  C   UNL d   1     -43.867  12.917  21.433  0.00  0.00     0.279 C 
ATOM     14  O   UNL d   1     -43.888  12.586  20.676  0.00  0.00    -0.265 OA
BRANCH  13  15
ATOM     15  C   UNL d   1     -44.521  12.854  21.930  0.00  0.00     0.058 A 
ATOM     16  C   UNL d   1     -45.105  13.455  21.932  0.00  0.00     0.007 A 
ATOM     17  C   UNL d   1     -45.759  13.392  22.428  0.00  0.00     0.024 A 
ATOM     18  C   UNL d   1     -45.826  12.728  22.919  0.00  0.00     0.094 A 
ATOM     19  C   UNL d   1     -45.255  12.138  22.918  0.00  0.00     0.024 A 
ATOM     20  C   UNL d   1     -44.604  12.204  22.422  0.00  0.00     0.007 A 
BRANCH  18  21
ATOM     21  O   UNL d   1     -46.488  12.653  23.428  0.00  0.00    -0.328 OA
ATOM     22  C   UNL d   1     -47.187  13.070  23.288  0.00  0.00     0.181 C 
ENDBRANCH  18  21
ENDBRANCH  13  15
ENDBRANCH  11  12
ENDBRANCH  10  11
ENDBRANCH   1  10
BRANCH   2  23
ATOM     23  S   UNL d   1     -40.411  14.850  19.319  0.00  0.00    -0.080 SA
BRANCH  23  24
ATOM     24  C   UNL d   1     -40.589  14.421  18.632  0.00  0.00     0.098 C 
BRANCH  24  25
ATOM     25  C   UNL d   1     -40.411  14.740  17.893  0.00  0.00     0.286 C 
ATOM     26  N   UNL d   1     -39.778  14.445  17.454  0.00  0.00    -0.204 NA
ATOM     27  O   UNL d   1     -40.866  15.356  17.589  0.00  0.00    -0.265 OA
BRANCH  26  28
ATOM     28  C   UNL d   1     -39.601  14.766  16.713  0.00  0.00     0.127 C 
BRANCH  28  29
ATOM     29  C   UNL d   1     -38.980  14.473  16.280  0.00  0.00     0.119 A 
ATOM     30  O   UNL d   1     -38.697  13.703  16.277  0.00  0.00    -0.304 OA
ATOM     31  C   UNL d   1     -38.058  13.651  15.756  0.00  0.00     0.123 A 
ATOM     32  C   UNL d   1     -37.940  14.400  15.429  0.00  0.00     0.029 A 
ATOM     33  C   UNL d   1     -38.502  14.900  15.749  0.00  0.00     0.028 A 
ENDBRANCH  28  29
ENDBRANCH  26  28
ENDBRANCH  24  25
ENDBRANCH  23  24
ENDBRANCH   2  23
TORSDOF 10
ENDMDL
MODEL 2
REMARK VINA RESULT:      -4.4      2.406      7.560
REMARK  10 active torsions:
REMARK  status: ('A' for Active; 'I' for Inactive)
REMARK    1  A    between atoms: C_18  and  N_1 
REMARK    2  A    between atoms: S_7  and  C_2 
REMARK       I    between atoms: C_6  and  N_14 
REMARK    3  A    between atoms: C_9  and  C_6 
REMARK    4  A    between atoms: C_15  and  S_7 
REMARK    5  A    between atoms: C_8  and  C_15 
REMARK       I    between atoms: N_10  and  C_8 
REMARK    6  A    between atoms: C_19  and  N_10 
REMARK    7  A    between atoms: N_14  and  C_25 
REMARK    8  A    between atoms: C_25  and  C_18 
REMARK    9  A    between atoms: C_23  and  C_19 
REMARK   10  A    between atoms: O_27  and  C_20 
ROOT
ATOM      1  N   UNL d   1     -43.869  12.280  22.031  0.00  0.00    -0.302 N 
ATOM      2  C   UNL d   1     -45.087  12.429  22.583  0.00  0.00     0.049 A 
ATOM      3  C   UNL d   1     -44.547  12.765  22.051  0.00  0.00     0.087 A 
ATOM      4  C   UNL d   1     -44.744  11.736  22.893  0.00  0.00     0.024 A 
ATOM      5  C   UNL d   1     -43.993  11.645  22.551  0.00  0.00     0.065 A 
ATOM      6  C   UNL d   1     -45.017  11.176  23.440  0.00  0.00     0.002 A 
ATOM      7  C   UNL d   1     -43.518  11.001  22.754  0.00  0.00     0.018 A 
ATOM      8  C   UNL d   1     -44.544  10.536  23.640  0.00  0.00     0.000 A 
ATOM      9  C   UNL d   1     -43.792  10.446  23.299  0.00  0.00     0.002 A 
ENDROOT
BRANCH   1  10
ATOM     10  C   UNL d   1     -43.194  12.409  21.573  0.00  0.00     0.101 C 
BRANCH  10  11
ATOM     11  C   UNL d   1     -42.913  13.175  21.462  0.00  0.00     0.121 C 
BRANCH  11  12
ATOM     12  N   UNL d   1     -42.156  13.296  21.157  0.00  0.00    -0.205 NA
ATOM     13  C   UNL d   1     -41.873  14.062  21.040  0.00  0.00     0.279 C 
ATOM     14  O   UNL d   1     -42.351  14.710  21.230  0.00  0.00    -0.265 OA
BRANCH  13  15
ATOM     15  C   UNL d   1     -41.117  14.183  20.735  0.00  0.00     0.058 A 
ATOM     16  C   UNL d   1     -41.010  14.296  19.913  0.00  0.00     0.007 A 
ATOM     17  C   UNL d   1     -40.254  14.417  19.609  0.00  0.00     0.024 A 
ATOM     18  C   UNL d   1     -39.610  14.424  20.129  0.00  0.00     0.094 A 
ATOM     19  C   UNL d   1     -39.713  14.313  20.936  0.00  0.00     0.024 A 
ATOM     20  C   UNL d   1     -40.468  14.193  21.236  0.00  0.00     0.007 A 
BRANCH  18  21
ATOM     21  O   UNL d   1     -38.836  14.546  19.831  0.00  0.00    -0.328 OA
ATOM     22  C   UNL d   1     -38.547  15.306  19.684  0.00  0.00     0.181 C 
ENDBRANCH  18  21
ENDBRANCH  13  15
ENDBRANCH  11  12
ENDBRANCH  10  11
ENDBRANCH   1  10
BRANCH   2  23
ATOM     23  S   UNL d   1     -45.833  12.725  22.776  0.00  0.00    -0.080 SA
BRANCH  23  24
ATOM     24  C   UNL d   1     -46.208  13.252  22.257  0.00  0.00     0.098 C 
BRANCH  24  25
ATOM     25  C   UNL d   1     -46.941  13.573  22.458  0.00  0.00     0.286 C 
ATOM     26  N   UNL d   1     -47.634  13.259  22.141  0.00  0.00    -0.204 NA
ATOM     27  O   UNL d   1     -46.982  14.211  22.979  0.00  0.00    -0.265 OA
BRANCH  26  28
ATOM     28  C   UNL d   1     -48.368  13.582  22.344  0.00  0.00     0.127 C 
BRANCH  28  29
ATOM     29  C   UNL d   1     -49.051  13.255  22.054  0.00  0.00     0.119 A 
ATOM     30  O   UNL d   1     -49.336  13.300  21.286  0.00  0.00    -0.304 OA
ATOM     31  C   UNL d   1     -50.050  12.886  21.237  0.00  0.00     0.123 A 
ATOM     32  C   UNL d   1     -50.212  12.578  21.985  0.00  0.00     0.029 A 
ATOM     33  C   UNL d   1     -49.604  12.803  22.482  0.00  0.00     0.028 A 
ENDBRANCH  28  29
ENDBRANCH  26  28
ENDBRANCH  24  25
ENDBRANCH  23  24
ENDBRANCH   2  23
TORSDOF 10
ENDMDL
MODEL 3
REMARK VINA RESULT:      -2.2      3.094      8.277
REMARK  10 active torsions:
REMARK  status: ('A' for Active; 'I' for Inactive)
REMARK    1  A    between atoms: C_18  and  N_1 
REMARK    2  A    between atoms: S_7  and  C_2 
REMARK       I    between atoms: C_6  and  N_14 
REMARK    3  A    between atoms: C_9  and  C_6 
REMARK    4  A    between atoms: C_15  and  S_7 
REMARK    5  A    between atoms: C_8  and  C_15 
REMARK       I    between atoms: N_10  and  C_8 
REMARK    6  A    between atoms: C_19  and  N_10 
REMARK    7  A    between atoms: N_14  and  C_25 
REMARK    8  A    between atoms: C_25  and  C_18 
REMARK    9  A    between atoms: C_23  and  C_19 
REMARK   10  A    between atoms: O_27  and  C_20 
ROOT
ATOM      1  N   UNL d   1     -45.417  13.232  22.115  0.00  0.00    -0.302 N 
ATOM      2  C   UNL d   1     -46.379  12.732  22.913  0.00  0.00     0.049 A 
ATOM      3  C   UNL d   1     -45.715  12.532  22.457  0.00  0.00     0.087 A 
ATOM      4  C   UNL d   1     -46.491  13.555  22.854  0.00  0.00     0.024 A 
ATOM      5  C   UNL d   1     -45.897  13.862  22.361  0.00  0.00     0.065 A 
ATOM      6  C   UNL d   1     -47.056  14.065  23.183  0.00  0.00     0.002 A 
ATOM      7  C   UNL d   1     -45.867  14.671  22.199  0.00  0.00     0.018 A 
ATOM      8  C   UNL d   1     -47.025  14.869  23.021  0.00  0.00     0.000 A 
ATOM      9  C   UNL d   1     -46.431  15.176  22.528  0.00  0.00     0.002 A 
ENDROOT
BRANCH   1  10
ATOM     10  C   UNL d   1     -44.759  13.286  21.619  0.00  0.00     0.101 C 
BRANCH  10  11
ATOM     11  C   UNL d   1     -44.046  12.943  21.844  0.00  0.00     0.121 C 
BRANCH  11  12
ATOM     12  N   UNL d   1     -43.343  13.370  21.772  0.00  0.00    -0.205 NA
ATOM     13  C   UNL d   1     -42.787  13.161  21.199  0.00  0.00     0.279 C 
ATOM     14  O   UNL d   1     -42.937  12.522  20.696  0.00  0.00    -0.265 OA
BRANCH  13  15
ATOM     15  C   UNL d   1     -42.085  13.587  21.126  0.00  0.00     0.058 A 
ATOM     16  C   UNL d   1     -42.067  14.291  20.674  0.00  0.00     0.007 A 
ATOM     17  C   UNL d   1     -41.365  14.717  20.603  0.00  0.00     0.024 A 
ATOM     18  C   UNL d   1     -40.686  14.435  20.984  0.00  0.00     0.094 A 
ATOM     19  C   UNL d   1     -40.702  13.744  21.427  0.00  0.00     0.024 A 
ATOM     20  C   UNL d   1     -41.403  13.322  21.497  0.00  0.00     0.007 A 
BRANCH  18  21
ATOM     21  O   UNL d   1     -39.966  14.859  20.918  0.00  0.00    -0.328 OA
ATOM     22  C   UNL d   1     -39.490  15.002  21.577  0.00  0.00     0.181 C 
ENDBRANCH  18  21
ENDBRANCH  13  15
ENDBRANCH  11  12
ENDBRANCH  10  11
ENDBRANCH   1  10
BRANCH   2  23
ATOM     23  S   UNL d   1     -46.847  12.212  23.350  0.00  0.00    -0.080 SA
BRANCH  23  24
ATOM     24  C   UNL d   1     -47.214  11.574  22.967  0.00  0.00     0.098 C 
BRANCH  24  25
ATOM     25  C   UNL d   1     -47.961  11.324  23.211  0.00  0.00     0.286 C 
ATOM     26  N   UNL d   1     -48.635  11.733  22.970  0.00  0.00    -0.204 NA
ATOM     27  O   UNL d   1     -48.035  10.663  23.698  0.00  0.00    -0.265 OA
BRANCH  26  28
ATOM     28  C   UNL d   1     -49.384  11.480  23.216  0.00  0.00     0.127 C 
BRANCH  28  29
ATOM     29  C   UNL d   1     -50.030  11.958  23.106  0.00  0.00     0.119 A 
ATOM     30  O   UNL d   1     -50.405  12.131  22.397  0.00  0.00    -0.304 OA
ATOM     31  C   UNL d   1     -51.039  12.641  22.544  0.00  0.00     0.123 A 
ATOM     32  C   UNL d   1     -51.060  12.787  23.356  0.00  0.00     0.029 A 
ATOM     33  C   UNL d   1     -50.446  12.371  23.698  0.00  0.00     0.028 A 
ENDBRANCH  28  29
ENDBRANCH  26  28
ENDBRANCH  24  25
ENDBRANCH  23  24
ENDBRANCH   2  23
TORSDOF 10
ENDMDL
