MODEL 1
REMARK VINA RESULT:      54.0      0.000      0.000
REMARK  10 active torsions:
REMARK  status: ('A' for Active; 'I' for Inactive)
REMARK    1  A    between atoms: C_8  and  S_1 
REMARK    2  A    between atoms: N_18  and  S_1 
REMARK    3  A    between atoms: S_2  and  C_9 
REMARK    4  A    between atoms: N_19  and  S_2 
REMARK    5  A    between atoms: C_23  and  N_18 
REMARK    6  A    between atoms: C_24  and  N_19 
REMARK    7  A    between atoms: C_27  and  C_23 
REMARK    8  A    between atoms: C_28  and  C_24 
REMARK    9  A    between atoms: O_25  and  C_27 
REMARK   10  A    between atoms: O_26  and  C_28 
ROOT
ATOM      1  C   UNL d   1      13.874  15.129  -4.465  0.00  0.00     0.040 A 
ATOM      2  C   UNL d   1      14.042  16.344  -5.022  0.00  0.00     0.040 A 
ATOM      3  C   UNL d   1      14.347  15.821  -4.443  0.00  0.00     0.196 A 
ATOM      4  C   UNL d   1      13.401  15.948  -5.366  0.00  0.00     0.003 A 
ATOM      5  C   UNL d   1      13.306  15.203  -5.017  0.00  0.00     0.003 A 
ATOM      6  C   UNL d   1      13.387  13.823  -4.141  0.00  0.00     0.105 A 
ATOM      7  C   UNL d   1      13.836  17.468  -5.861  0.00  0.00     0.105 A 
ATOM      8  C   UNL d   1      13.926  14.433  -4.013  0.00  0.00     0.016 A 
ATOM      9  C   UNL d   1      14.266  17.097  -5.260  0.00  0.00     0.016 A 
ATOM     10  C   UNL d   1      12.977  16.342  -5.976  0.00  0.00     0.001 A 
ATOM     11  C   UNL d   1      12.769  14.593  -5.143  0.00  0.00     0.001 A 
ATOM     12  O   UNL d   1      14.995  15.969  -3.949  0.00  0.00    -0.287 OA
ATOM     13  C   UNL d   1      13.197  17.098  -6.219  0.00  0.00     0.013 A 
ATOM     14  C   UNL d   1      12.820  13.910  -4.700  0.00  0.00     0.013 A 
ENDROOT
BRANCH   6  15
ATOM     15  S   UNL d   1      13.442  13.116  -3.680  0.00  0.00     0.285 S 
ATOM     16  O   UNL d   1      13.697  13.571  -3.012  0.00  0.00    -0.198 OA
ATOM     17  O   UNL d   1      13.194  12.700  -4.341  0.00  0.00    -0.198 OA
BRANCH  15  18
ATOM     18  N   UNL d   1      13.494  12.433  -3.237  0.00  0.00    -0.155 NA
BRANCH  18  19
ATOM     19  C   UNL d   1      13.674  12.453  -2.421  0.00  0.00     0.138 C 
BRANCH  19  20
ATOM     20  C   UNL d   1      13.937  11.780  -2.023  0.00  0.00     0.138 C 
BRANCH  20  21
ATOM     21  O   UNL d   1      14.528  11.830  -1.478  0.00  0.00    -0.325 OA
ATOM     22  C   UNL d   1      14.374  12.066  -0.713  0.00  0.00     0.182 C 
ENDBRANCH  20  21
ENDBRANCH  19  20
ENDBRANCH  18  19
ENDBRANCH  15  18
ENDBRANCH   6  15
BRANCH   7  23
ATOM     23  S   UNL d   1      14.043  18.242  -6.126  0.00  0.00     0.285 S 
ATOM     24  O   UNL d   1      13.236  18.383  -6.333  0.00  0.00    -0.198 OA
ATOM     25  O   UNL d   1      14.841  18.080  -5.913  0.00  0.00    -0.198 OA
BRANCH  23  26
ATOM     26  N   UNL d   1      14.252  18.986  -6.379  0.00  0.00    -0.155 NA
BRANCH  26  27
ATOM     27  C   UNL d   1      14.058  19.651  -5.931  0.00  0.00     0.138 C 
BRANCH  27  28
ATOM     28  C   UNL d   1      14.632  20.153  -5.677  0.00  0.00     0.138 C 
BRANCH  28  29
ATOM     29  O   UNL d   1      14.774  20.867  -6.096  0.00  0.00    -0.325 OA
ATOM     30  C   UNL d   1      14.821  21.580  -5.719  0.00  0.00     0.182 C 
ENDBRANCH  28  29
ENDBRANCH  27  28
ENDBRANCH  26  27
ENDBRANCH  23  26
ENDBRANCH   7  23
TORSDOF 10
ENDMDL
