MODEL 1
REMARK VINA RESULT:      -7.3      0.000      0.000
REMARK  3 active torsions:
REMARK  status: ('A' for Active; 'I' for Inactive)
REMARK    1  A    between atoms: N_7  and  S_1 
REMARK    2  A    between atoms: C_3  and  C_8 
REMARK    3  A    between atoms: C_13  and  N_7 
ROOT
ATOM      1  C   UNL d   1     -48.285  12.729  23.085  0.00  0.00     0.018 A 
ATOM      2  C   UNL d   1     -47.981  13.468  22.907  0.00  0.00     0.003 A 
ATOM      3  C   UNL d   1     -47.784  12.129  23.356  0.00  0.00     0.003 A 
ATOM      4  C   UNL d   1     -46.676  13.035  23.262  0.00  0.00     0.093 A 
ATOM      5  C   UNL d   1     -47.178  13.623  22.994  0.00  0.00     0.020 A 
ATOM      6  C   UNL d   1     -46.982  12.281  23.445  0.00  0.00     0.020 A 
ENDROOT
BRANCH   1   7
ATOM      7  C   UNL d   1     -49.089  12.572  22.997  0.00  0.00     0.088 A 
ATOM      8  N   UNL d   1     -49.623  12.430  23.609  0.00  0.00    -0.239 NA
ATOM      9  C   UNL d   1     -50.361  12.300  23.278  0.00  0.00     0.111 A 
ATOM     10  C   UNL d   1     -51.061  12.136  23.698  0.00  0.00     0.028 C 
ATOM     11  S   UNL d   1     -50.290  12.359  22.457  0.00  0.00    -0.066 SA
ATOM     12  C   UNL d   1     -49.498  12.528  22.283  0.00  0.00     0.056 A 
ENDBRANCH   1   7
BRANCH   4  13
ATOM     13  N   UNL d   1     -45.868  13.183  23.353  0.00  0.00    -0.162 NA
BRANCH  13  14
ATOM     14  S   UNL d   1     -45.393  13.118  22.680  0.00  0.00     0.266 S 
ATOM     15  O   UNL d   1     -45.654  13.905  22.409  0.00  0.00    -0.203 OA
ATOM     16  O   UNL d   1     -45.129  12.188  23.068  0.00  0.00    -0.203 OA
ATOM     17  C   UNL d   1     -44.707  12.863  21.843  0.00  0.00     0.165 C 
ENDBRANCH  13  14
ENDBRANCH   4  13
TORSDOF 3
ENDMDL
MODEL 2
REMARK VINA RESULT:      -6.6      1.916      4.146
REMARK  3 active torsions:
REMARK  status: ('A' for Active; 'I' for Inactive)
REMARK    1  A    between atoms: N_7  and  S_1 
REMARK    2  A    between atoms: C_3  and  C_8 
REMARK    3  A    between atoms: C_13  and  N_7 
ROOT
ATOM      1  C   UNL d   1     -47.504  12.712  22.495  0.00  0.00     0.018 A 
ATOM      2  C   UNL d   1     -47.716  12.235  23.124  0.00  0.00     0.003 A 
ATOM      3  C   UNL d   1     -48.029  12.827  21.866  0.00  0.00     0.003 A 
ATOM      4  C   UNL d   1     -48.976  11.974  22.523  0.00  0.00     0.093 A 
ATOM      5  C   UNL d   1     -48.451  11.865  23.141  0.00  0.00     0.020 A 
ATOM      6  C   UNL d   1     -48.763  12.459  21.880  0.00  0.00     0.020 A 
ENDROOT
BRANCH   1   7
ATOM      7  C   UNL d   1     -46.768  13.084  22.477  0.00  0.00     0.088 A 
ATOM      8  N   UNL d   1     -46.089  12.793  22.113  0.00  0.00    -0.239 NA
ATOM      9  C   UNL d   1     -45.486  13.335  22.228  0.00  0.00     0.111 A 
ATOM     10  C   UNL d   1     -44.703  13.260  21.952  0.00  0.00     0.028 C 
ATOM     11  S   UNL d   1     -45.787  13.967  22.665  0.00  0.00    -0.066 SA
ATOM     12  C   UNL d   1     -46.586  13.811  22.820  0.00  0.00     0.056 A 
ENDBRANCH   1   7
BRANCH   4  13
ATOM     13  N   UNL d   1     -49.715  11.605  22.532  0.00  0.00    -0.162 NA
BRANCH  13  14
ATOM     14  S   UNL d   1     -50.266  11.876  23.086  0.00  0.00     0.266 S 
ATOM     15  O   UNL d   1     -49.954  11.319  23.680  0.00  0.00    -0.203 OA
ATOM     16  O   UNL d   1     -50.584  12.512  22.324  0.00  0.00    -0.203 OA
ATOM     17  C   UNL d   1     -51.064  12.354  23.695  0.00  0.00     0.165 C 
ENDBRANCH  13  14
ENDBRANCH   4  13
TORSDOF 3
ENDMDL
MODEL 3
REMARK VINA RESULT:      -6.4      2.408      4.212
REMARK  3 active torsions:
REMARK  status: ('A' for Active; 'I' for Inactive)
REMARK    1  A    between atoms: N_7  and  S_1 
REMARK    2  A    between atoms: C_3  and  C_8 
REMARK    3  A    between atoms: C_13  and  N_7 
ROOT
ATOM      1  C   UNL d   1     -47.915  13.654  22.489  0.00  0.00     0.018 A 
ATOM      2  C   UNL d   1     -48.164  14.281  22.953  0.00  0.00     0.003 A 
ATOM      3  C   UNL d   1     -48.428  13.322  21.931  0.00  0.00     0.003 A 
ATOM      4  C   UNL d   1     -49.436  14.264  22.322  0.00  0.00     0.093 A 
ATOM      5  C   UNL d   1     -48.923  14.587  22.871  0.00  0.00     0.020 A 
ATOM      6  C   UNL d   1     -49.186  13.626  21.848  0.00  0.00     0.020 A 
ENDROOT
BRANCH   1   7
ATOM      7  C   UNL d   1     -47.155  13.346  22.569  0.00  0.00     0.088 A 
ATOM      8  N   UNL d   1     -46.483  13.606  22.169  0.00  0.00    -0.239 NA
ATOM      9  C   UNL d   1     -45.849  13.149  22.412  0.00  0.00     0.111 A 
ATOM     10  C   UNL d   1     -45.063  13.225  22.146  0.00  0.00     0.028 C 
ATOM     11  S   UNL d   1     -46.122  12.602  22.967  0.00  0.00    -0.066 SA
ATOM     12  C   UNL d   1     -46.935  12.724  23.064  0.00  0.00     0.056 A 
ENDBRANCH   1   7
BRANCH   4  13
ATOM     13  N   UNL d   1     -50.200  14.566  22.234  0.00  0.00    -0.162 NA
BRANCH  13  14
ATOM     14  S   UNL d   1     -50.542  14.929  22.894  0.00  0.00     0.266 S 
ATOM     15  O   UNL d   1     -50.725  14.148  23.238  0.00  0.00    -0.203 OA
ATOM     16  O   UNL d   1     -50.291  15.822  22.420  0.00  0.00    -0.203 OA
ATOM     17  C   UNL d   1     -50.957  15.577  23.696  0.00  0.00     0.165 C 
ENDBRANCH  13  14
ENDBRANCH   4  13
TORSDOF 3
ENDMDL
MODEL 4
REMARK VINA RESULT:      -5.2      8.654      9.380
REMARK  3 active torsions:
REMARK  status: ('A' for Active; 'I' for Inactive)
REMARK    1  A    between atoms: N_7  and  S_1 
REMARK    2  A    between atoms: C_3  and  C_8 
REMARK    3  A    between atoms: C_13  and  N_7 
ROOT
ATOM      1  C   UNL d   1     -39.600  14.303  20.168  0.00  0.00     0.018 A 
ATOM      2  C   UNL d   1     -39.052  14.084  19.601  0.00  0.00     0.003 A 
ATOM      3  C   UNL d   1     -40.381  14.463  19.950  0.00  0.00     0.003 A 
ATOM      4  C   UNL d   1     -40.041  14.177  18.587  0.00  0.00     0.093 A 
ATOM      5  C   UNL d   1     -39.270  14.020  18.810  0.00  0.00     0.020 A 
ATOM      6  C   UNL d   1     -40.602  14.400  19.162  0.00  0.00     0.020 A 
ENDROOT
BRANCH   1   7
ATOM      7  C   UNL d   1     -39.383  14.367  20.961  0.00  0.00     0.088 A 
ATOM      8  N   UNL d   1     -39.229  13.739  21.472  0.00  0.00    -0.239 NA
ATOM      9  C   UNL d   1     -39.033  14.049  22.204  0.00  0.00     0.111 A 
ATOM     10  C   UNL d   1     -38.837  13.608  22.884  0.00  0.00     0.028 C 
ATOM     11  S   UNL d   1     -39.065  14.872  22.153  0.00  0.00    -0.066 SA
ATOM     12  C   UNL d   1     -39.282  15.070  21.379  0.00  0.00     0.056 A 
ENDBRANCH   1   7
BRANCH   4  13
ATOM     13  N   UNL d   1     -40.268  14.115  17.794  0.00  0.00    -0.162 NA
BRANCH  13  14
ATOM     14  S   UNL d   1     -40.283  14.812  17.349  0.00  0.00     0.266 S 
ATOM     15  O   UNL d   1     -39.413  14.804  17.293  0.00  0.00    -0.203 OA
ATOM     16  O   UNL d   1     -41.318  14.753  17.460  0.00  0.00    -0.203 OA
ATOM     17  C   UNL d   1     -40.489  15.739  16.771  0.00  0.00     0.165 C 
ENDBRANCH  13  14
ENDBRANCH   4  13
TORSDOF 3
ENDMDL
MODEL 5
REMARK VINA RESULT:      -5.1      8.510      9.068
REMARK  3 active torsions:
REMARK  status: ('A' for Active; 'I' for Inactive)
REMARK    1  A    between atoms: N_7  and  S_1 
REMARK    2  A    between atoms: C_3  and  C_8 
REMARK    3  A    between atoms: C_13  and  N_7 
ROOT
ATOM      1  C   UNL d   1     -40.572  15.358  18.713  0.00  0.00     0.018 A 
ATOM      2  C   UNL d   1     -40.701  15.922  19.292  0.00  0.00     0.003 A 
ATOM      3  C   UNL d   1     -40.313  14.601  18.921  0.00  0.00     0.003 A 
ATOM      4  C   UNL d   1     -40.319  14.997  20.299  0.00  0.00     0.093 A 
ATOM      5  C   UNL d   1     -40.576  15.743  20.085  0.00  0.00     0.020 A 
ATOM      6  C   UNL d   1     -40.186  14.421  19.711  0.00  0.00     0.020 A 
ENDROOT
BRANCH   1   7
ATOM      7  C   UNL d   1     -40.698  15.535  17.917  0.00  0.00     0.088 A 
ATOM      8  N   UNL d   1     -41.431  15.618  17.551  0.00  0.00    -0.239 NA
ATOM      9  C   UNL d   1     -41.303  15.793  16.761  0.00  0.00     0.111 A 
ATOM     10  C   UNL d   1     -41.894  15.922  16.188  0.00  0.00     0.028 C 
ATOM     11  S   UNL d   1     -40.488  15.820  16.632  0.00  0.00    -0.066 SA
ATOM     12  C   UNL d   1     -40.111  15.660  17.351  0.00  0.00     0.056 A 
ENDBRANCH   1   7
BRANCH   4  13
ATOM     13  N   UNL d   1     -40.190  14.810  21.094  0.00  0.00    -0.162 NA
BRANCH  13  14
ATOM     14  S   UNL d   1     -39.503  15.106  21.446  0.00  0.00     0.266 S 
ATOM     15  O   UNL d   1     -39.030  14.477  21.070  0.00  0.00    -0.203 OA
ATOM     16  O   UNL d   1     -40.134  15.826  21.859  0.00  0.00    -0.203 OA
ATOM     17  C   UNL d   1     -38.692  15.634  21.994  0.00  0.00     0.165 C 
ENDBRANCH  13  14
ENDBRANCH   4  13
TORSDOF 3
ENDMDL
