MODEL 1
REMARK VINA RESULT:      -8.6      0.000      0.000
REMARK  4 active torsions:
REMARK  status: ('A' for Active; 'I' for Inactive)
REMARK    1  A    between atoms: N_3  and  S_1 
REMARK    2  A    between atoms: C_4  and  S_1 
REMARK    3  A    between atoms: C_2  and  N_3 
REMARK    4  A    between atoms: O_18  and  C_13 
ROOT
ATOM      1  S   UNL d   1     -47.558  14.010  22.943  0.00  0.00     0.285 S 
ATOM      2  O   UNL d   1     -47.269  14.307  22.190  0.00  0.00    -0.198 OA
ATOM      3  O   UNL d   1     -47.836  13.710  23.687  0.00  0.00    -0.198 OA
ENDROOT
BRANCH   1   4
ATOM      4  N   UNL d   1     -48.158  14.583  22.944  0.00  0.00    -0.157 NA
BRANCH   4   5
ATOM      5  C   UNL d   1     -48.922  14.390  22.630  0.00  0.00     0.113 A 
ATOM      6  C   UNL d   1     -49.576  14.827  22.876  0.00  0.00     0.100 A 
ATOM      7  C   UNL d   1     -50.320  14.639  22.571  0.00  0.00     0.021 A 
ATOM      8  N   UNL d   1     -49.508  15.439  23.411  0.00  0.00    -0.242 NA
ATOM      9  C   UNL d   1     -50.979  15.067  22.807  0.00  0.00     0.003 A 
ATOM     10  C   UNL d   1     -50.393  14.018  22.026  0.00  0.00     0.026 A 
ATOM     11  C   UNL d   1     -50.903  15.683  23.348  0.00  0.00     0.021 A 
ATOM     12  C   UNL d   1     -50.160  15.871  23.653  0.00  0.00     0.099 A 
ATOM     13  C   UNL d   1     -49.732  13.586  21.787  0.00  0.00     0.096 A 
ATOM     14  C   UNL d   1     -48.989  13.774  22.092  0.00  0.00     0.046 A 
BRANCH  13  15
ATOM     15  O   UNL d   1     -49.779  12.959  21.243  0.00  0.00    -0.328 OA
ATOM     16  C   UNL d   1     -50.208  12.271  21.434  0.00  0.00     0.181 C 
ENDBRANCH  13  15
ENDBRANCH   4   5
ENDBRANCH   1   4
BRANCH   1  17
ATOM     17  C   UNL d   1     -46.945  13.418  22.951  0.00  0.00     0.105 A 
ATOM     18  C   UNL d   1     -47.071  12.697  23.323  0.00  0.00     0.013 A 
ATOM     19  C   UNL d   1     -46.474  12.128  23.327  0.00  0.00     0.001 A 
ATOM     20  C   UNL d   1     -46.599  11.412  23.697  0.00  0.00     0.000 A 
ATOM     21  C   UNL d   1     -45.749  12.278  22.958  0.00  0.00     0.000 A 
ATOM     22  C   UNL d   1     -45.998  10.846  23.698  0.00  0.00     0.000 A 
ATOM     23  C   UNL d   1     -45.278  10.993  23.333  0.00  0.00     0.000 A 
ATOM     24  C   UNL d   1     -45.153  11.710  22.963  0.00  0.00     0.000 A 
ATOM     25  C   UNL d   1     -45.619  13.021  22.575  0.00  0.00     0.001 A 
ATOM     26  C   UNL d   1     -46.220  13.587  22.574  0.00  0.00     0.013 A 
ENDBRANCH   1  17
TORSDOF 4
ENDMDL
MODEL 2
REMARK VINA RESULT:      -6.8      1.278      4.765
REMARK  4 active torsions:
REMARK  status: ('A' for Active; 'I' for Inactive)
REMARK    1  A    between atoms: N_3  and  S_1 
REMARK    2  A    between atoms: C_4  and  S_1 
REMARK    3  A    between atoms: C_2  and  N_3 
REMARK    4  A    between atoms: O_18  and  C_13 
ROOT
ATOM      1  S   UNL d   1     -48.613  12.416  22.858  0.00  0.00     0.285 S 
ATOM      2  O   UNL d   1     -48.494  12.405  22.007  0.00  0.00    -0.198 OA
ATOM      3  O   UNL d   1     -48.738  12.433  23.698  0.00  0.00    -0.198 OA
ENDROOT
BRANCH   1   4
ATOM      4  N   UNL d   1     -48.006  11.859  22.955  0.00  0.00    -0.157 NA
BRANCH   4   5
ATOM      5  C   UNL d   1     -47.196  12.114  22.932  0.00  0.00     0.113 A 
ATOM      6  C   UNL d   1     -46.607  11.594  23.182  0.00  0.00     0.100 A 
ATOM      7  C   UNL d   1     -45.821  11.841  23.159  0.00  0.00     0.021 A 
ATOM      8  N   UNL d   1     -46.782  10.844  23.450  0.00  0.00    -0.242 NA
ATOM      9  C   UNL d   1     -45.225  11.333  23.405  0.00  0.00     0.003 A 
ATOM     10  C   UNL d   1     -45.639  12.603  22.887  0.00  0.00     0.026 A 
ATOM     11  C   UNL d   1     -45.408  10.577  23.675  0.00  0.00     0.021 A 
ATOM     12  C   UNL d   1     -46.195  10.329  23.698  0.00  0.00     0.099 A 
ATOM     13  C   UNL d   1     -46.236  13.116  22.639  0.00  0.00     0.096 A 
ATOM     14  C   UNL d   1     -47.023  12.869  22.661  0.00  0.00     0.046 A 
BRANCH  13  15
ATOM     15  O   UNL d   1     -46.080  13.884  22.362  0.00  0.00    -0.328 OA
ATOM     16  C   UNL d   1     -45.713  14.442  22.860  0.00  0.00     0.181 C 
ENDBRANCH  13  15
ENDBRANCH   4   5
ENDBRANCH   1   4
BRANCH   1  17
ATOM     17  C   UNL d   1     -49.238  12.988  22.769  0.00  0.00     0.105 A 
ATOM     18  C   UNL d   1     -49.182  13.722  23.132  0.00  0.00     0.013 A 
ATOM     19  C   UNL d   1     -49.790  14.271  23.042  0.00  0.00     0.001 A 
ATOM     20  C   UNL d   1     -49.735  15.001  23.402  0.00  0.00     0.000 A 
ATOM     21  C   UNL d   1     -50.457  14.088  22.587  0.00  0.00     0.000 A 
ATOM     22  C   UNL d   1     -50.347  15.547  23.309  0.00  0.00     0.000 A 
ATOM     23  C   UNL d   1     -51.009  15.367  22.858  0.00  0.00     0.000 A 
ATOM     24  C   UNL d   1     -51.064  14.637  22.498  0.00  0.00     0.000 A 
ATOM     25  C   UNL d   1     -50.515  13.332  22.213  0.00  0.00     0.001 A 
ATOM     26  C   UNL d   1     -49.903  12.786  22.307  0.00  0.00     0.013 A 
ENDBRANCH   1  17
TORSDOF 4
ENDMDL
MODEL 3
REMARK VINA RESULT:      -6.4      1.551      2.317
REMARK  4 active torsions:
REMARK  status: ('A' for Active; 'I' for Inactive)
REMARK    1  A    between atoms: N_3  and  S_1 
REMARK    2  A    between atoms: C_4  and  S_1 
REMARK    3  A    between atoms: C_2  and  N_3 
REMARK    4  A    between atoms: O_18  and  C_13 
ROOT
ATOM      1  S   UNL d   1     -47.023  12.614  23.115  0.00  0.00     0.285 S 
ATOM      2  O   UNL d   1     -46.823  13.214  23.698  0.00  0.00    -0.198 OA
ATOM      3  O   UNL d   1     -47.212  12.023  22.535  0.00  0.00    -0.198 OA
ENDROOT
BRANCH   1   4
ATOM      4  N   UNL d   1     -47.756  12.494  23.483  0.00  0.00    -0.157 NA
BRANCH   4   5
ATOM      5  C   UNL d   1     -48.437  12.923  23.211  0.00  0.00     0.113 A 
ATOM      6  C   UNL d   1     -49.181  12.578  23.284  0.00  0.00     0.100 A 
ATOM      7  C   UNL d   1     -49.842  12.994  23.020  0.00  0.00     0.021 A 
ATOM      8  N   UNL d   1     -49.281  11.836  23.611  0.00  0.00    -0.242 NA
ATOM      9  C   UNL d   1     -50.590  12.660  23.087  0.00  0.00     0.003 A 
ATOM     10  C   UNL d   1     -49.745  13.747  22.687  0.00  0.00     0.026 A 
ATOM     11  C   UNL d   1     -50.683  11.912  23.418  0.00  0.00     0.021 A 
ATOM     12  C   UNL d   1     -50.022  11.496  23.683  0.00  0.00     0.099 A 
ATOM     13  C   UNL d   1     -48.995  14.084  22.618  0.00  0.00     0.096 A 
ATOM     14  C   UNL d   1     -48.334  13.668  22.883  0.00  0.00     0.046 A 
BRANCH  13  15
ATOM     15  O   UNL d   1     -48.872  14.837  22.288  0.00  0.00    -0.328 OA
ATOM     16  C   UNL d   1     -49.208  15.510  22.645  0.00  0.00     0.181 C 
ENDBRANCH  13  15
ENDBRANCH   4   5
ENDBRANCH   1   4
BRANCH   1  17
ATOM     17  C   UNL d   1     -46.272  12.730  22.730  0.00  0.00     0.105 A 
ATOM     18  C   UNL d   1     -45.652  12.208  22.864  0.00  0.00     0.013 A 
ATOM     19  C   UNL d   1     -44.928  12.325  22.488  0.00  0.00     0.001 A 
ATOM     20  C   UNL d   1     -44.313  11.807  22.622  0.00  0.00     0.000 A 
ATOM     21  C   UNL d   1     -44.821  12.966  21.975  0.00  0.00     0.000 A 
ATOM     22  C   UNL d   1     -43.590  11.929  22.243  0.00  0.00     0.000 A 
ATOM     23  C   UNL d   1     -43.482  12.564  21.734  0.00  0.00     0.000 A 
ATOM     24  C   UNL d   1     -44.097  13.083  21.600  0.00  0.00     0.000 A 
ATOM     25  C   UNL d   1     -45.459  13.503  21.836  0.00  0.00     0.001 A 
ATOM     26  C   UNL d   1     -46.182  13.381  22.216  0.00  0.00     0.013 A 
ENDBRANCH   1  17
TORSDOF 4
ENDMDL
MODEL 4
REMARK VINA RESULT:      -6.2      1.837      5.163
REMARK  4 active torsions:
REMARK  status: ('A' for Active; 'I' for Inactive)
REMARK    1  A    between atoms: N_3  and  S_1 
REMARK    2  A    between atoms: C_4  and  S_1 
REMARK    3  A    between atoms: C_2  and  N_3 
REMARK    4  A    between atoms: O_18  and  C_13 
ROOT
ATOM      1  S   UNL d   1     -46.494  12.727  23.113  0.00  0.00     0.285 S 
ATOM      2  O   UNL d   1     -46.846  12.180  22.550  0.00  0.00    -0.198 OA
ATOM      3  O   UNL d   1     -46.154  13.274  23.666  0.00  0.00    -0.198 OA
ENDROOT
BRANCH   1   4
ATOM      4  N   UNL d   1     -45.934  12.155  23.327  0.00  0.00    -0.157 NA
BRANCH   4   5
ATOM      5  C   UNL d   1     -45.181  12.139  22.934  0.00  0.00     0.113 A 
ATOM      6  C   UNL d   1     -44.675  11.503  23.068  0.00  0.00     0.100 A 
ATOM      7  C   UNL d   1     -43.943  11.487  22.687  0.00  0.00     0.021 A 
ATOM      8  N   UNL d   1     -44.878  10.889  23.567  0.00  0.00    -0.242 NA
ATOM      9  C   UNL d   1     -43.430  10.858  22.812  0.00  0.00     0.003 A 
ATOM     10  C   UNL d   1     -43.733  12.108  22.180  0.00  0.00     0.026 A 
ATOM     11  C   UNL d   1     -43.641  10.243  23.317  0.00  0.00     0.021 A 
ATOM     12  C   UNL d   1     -44.373  10.258  23.698  0.00  0.00     0.099 A 
ATOM     13  C   UNL d   1     -44.247  12.741  22.052  0.00  0.00     0.096 A 
ATOM     14  C   UNL d   1     -44.979  12.757  22.434  0.00  0.00     0.046 A 
BRANCH  13  15
ATOM     15  O   UNL d   1     -44.060  13.376  21.549  0.00  0.00    -0.328 OA
ATOM     16  C   UNL d   1     -43.340  13.378  21.129  0.00  0.00     0.181 C 
ENDBRANCH  13  15
ENDBRANCH   4   5
ENDBRANCH   1   4
BRANCH   1  17
ATOM     17  C   UNL d   1     -47.066  13.321  22.900  0.00  0.00     0.105 A 
ATOM     18  C   UNL d   1     -47.757  13.111  22.508  0.00  0.00     0.013 A 
ATOM     19  C   UNL d   1     -48.306  13.691  22.305  0.00  0.00     0.001 A 
ATOM     20  C   UNL d   1     -48.992  13.481  21.916  0.00  0.00     0.000 A 
ATOM     21  C   UNL d   1     -48.167  14.485  22.493  0.00  0.00     0.000 A 
ATOM     22  C   UNL d   1     -49.539  14.066  21.716  0.00  0.00     0.000 A 
ATOM     23  C   UNL d   1     -49.402  14.854  21.901  0.00  0.00     0.000 A 
ATOM     24  C   UNL d   1     -48.716  15.064  22.289  0.00  0.00     0.000 A 
ATOM     25  C   UNL d   1     -47.456  14.702  22.896  0.00  0.00     0.001 A 
ATOM     26  C   UNL d   1     -46.909  14.117  23.096  0.00  0.00     0.013 A 
ENDBRANCH   1  17
TORSDOF 4
ENDMDL
MODEL 5
REMARK VINA RESULT:      -6.1      1.175      4.574
REMARK  4 active torsions:
REMARK  status: ('A' for Active; 'I' for Inactive)
REMARK    1  A    between atoms: N_3  and  S_1 
REMARK    2  A    between atoms: C_4  and  S_1 
REMARK    3  A    between atoms: C_2  and  N_3 
REMARK    4  A    between atoms: O_18  and  C_13 
ROOT
ATOM      1  S   UNL d   1     -47.321  14.192  22.498  0.00  0.00     0.285 S 
ATOM      2  O   UNL d   1     -47.335  14.409  23.330  0.00  0.00    -0.198 OA
ATOM      3  O   UNL d   1     -47.317  13.980  21.675  0.00  0.00    -0.198 OA
ENDROOT
BRANCH   1   4
ATOM      4  N   UNL d   1     -46.507  14.044  22.545  0.00  0.00    -0.157 NA
BRANCH   4   5
ATOM      5  C   UNL d   1     -46.234  13.256  22.708  0.00  0.00     0.113 A 
ATOM      6  C   UNL d   1     -45.485  13.032  22.447  0.00  0.00     0.100 A 
ATOM      7  C   UNL d   1     -45.219  12.267  22.606  0.00  0.00     0.021 A 
ATOM      8  N   UNL d   1     -45.001  13.546  22.037  0.00  0.00    -0.242 NA
ATOM      9  C   UNL d   1     -44.475  12.032  22.351  0.00  0.00     0.003 A 
ATOM     10  C   UNL d   1     -45.708  11.743  23.022  0.00  0.00     0.026 A 
ATOM     11  C   UNL d   1     -43.992  12.555  21.938  0.00  0.00     0.021 A 
ATOM     12  C   UNL d   1     -44.257  13.320  21.779  0.00  0.00     0.099 A 
ATOM     13  C   UNL d   1     -46.456  11.977  23.279  0.00  0.00     0.096 A 
ATOM     14  C   UNL d   1     -46.722  12.742  23.120  0.00  0.00     0.046 A 
BRANCH  13  15
ATOM     15  O   UNL d   1     -46.965  11.470  23.698  0.00  0.00    -0.328 OA
ATOM     16  C   UNL d   1     -47.304  10.811  23.318  0.00  0.00     0.181 C 
ENDBRANCH  13  15
ENDBRANCH   4   5
ENDBRANCH   1   4
BRANCH   1  17
ATOM     17  C   UNL d   1     -48.158  14.342  22.439  0.00  0.00     0.105 A 
ATOM     18  C   UNL d   1     -48.638  13.843  21.998  0.00  0.00     0.013 A 
ATOM     19  C   UNL d   1     -49.447  13.994  21.945  0.00  0.00     0.001 A 
ATOM     20  C   UNL d   1     -49.924  13.498  21.507  0.00  0.00     0.000 A 
ATOM     21  C   UNL d   1     -49.779  14.645  22.333  0.00  0.00     0.000 A 
ATOM     22  C   UNL d   1     -50.733  13.653  21.457  0.00  0.00     0.000 A 
ATOM     23  C   UNL d   1     -51.064  14.299  21.842  0.00  0.00     0.000 A 
ATOM     24  C   UNL d   1     -50.587  14.795  22.280  0.00  0.00     0.000 A 
ATOM     25  C   UNL d   1     -49.284  15.159  22.787  0.00  0.00     0.001 A 
ATOM     26  C   UNL d   1     -48.475  15.004  22.837  0.00  0.00     0.013 A 
ENDBRANCH   1  17
TORSDOF 4
ENDMDL
