MODEL 1
REMARK VINA RESULT:      -7.9      0.000      0.000
REMARK  5 active torsions:
REMARK  status: ('A' for Active; 'I' for Inactive)
REMARK    1  A    between atoms: N_10  and  C_2 
REMARK    2  A    between atoms: C_7  and  C_5 
REMARK    3  A    between atoms: C_6  and  C_9 
REMARK    4  A    between atoms: C_8  and  C_7 
REMARK       I    between atoms: N_11  and  C_8 
REMARK    5  A    between atoms: C_14  and  N_11 
ROOT
ATOM      1  C   UNL d   1     -41.427-122.446 -52.062  0.00  0.00     0.280 C 
ATOM      2  N   UNL d   1     -41.403-122.000 -52.754  0.00  0.00    -0.208 NA
ATOM      3  O   UNL d   1     -41.504-123.265 -52.107  0.00  0.00    -0.265 OA
ENDROOT
BRANCH   1   4
ATOM      4  C   UNL d   1     -41.374-122.078 -51.328  0.00  0.00     0.074 C 
BRANCH   4   5
ATOM      5  C   UNL d   1     -41.688-122.439 -50.657  0.00  0.00     0.093 A 
ATOM      6  C   UNL d   1     -42.456-122.341 -50.373  0.00  0.00     0.272 A 
ATOM      7  N   UNL d   1     -42.534-122.798 -49.698  0.00  0.00    -0.251 N 
ATOM      8  O   UNL d   1     -43.042-121.867 -50.709  0.00  0.00    -0.266 OA
ATOM      9  C   UNL d   1     -41.814-123.180 -49.563  0.00  0.00     0.182 A 
ATOM     10  C   UNL d   1     -43.212-122.868 -49.231  0.00  0.00     0.104 C 
ATOM     11  S   UNL d   1     -41.294-122.956 -50.157  0.00  0.00    -0.045 SA
BRANCH   9  12
ATOM     12  N   UNL d   1     -41.647-123.696 -48.941  0.00  0.00    -0.219 NA
ATOM     13  C   UNL d   1     -41.123-123.469 -48.345  0.00  0.00     0.122 C 
ENDBRANCH   9  12
ENDBRANCH   4   5
ENDBRANCH   1   4
BRANCH   2  14
ATOM     14  C   UNL d   1     -41.457-122.376 -53.487  0.00  0.00     0.085 A 
ATOM     15  C   UNL d   1     -41.841-122.006 -54.120  0.00  0.00     0.023 A 
ATOM     16  C   UNL d   1     -41.891-122.387 -54.851  0.00  0.00     0.073 A 
ATOM     17  C   UNL d   1     -41.560-123.132 -54.949  0.00  0.00     0.004 A 
ATOM     18  C   UNL d   1     -41.175-123.501 -54.316  0.00  0.00     0.002 A 
ATOM     19  C   UNL d   1     -41.123-123.126 -53.587  0.00  0.00     0.019 A 
BRANCH  16  20
ATOM     20  C   UNL d   1     -42.276-122.018 -55.484  0.00  0.00     0.419 C 
ATOM     21  F   UNL d   1     -42.624-121.683 -56.057  0.00  0.00    -0.166 F 
ATOM     22  F   UNL d   1     -42.005-121.373 -55.985  0.00  0.00    -0.166 F 
ATOM     23  F   UNL d   1     -43.056-122.177 -55.817  0.00  0.00    -0.166 F 
ENDBRANCH  16  20
ENDBRANCH   2  14
TORSDOF 5
ENDMDL
MODEL 2
REMARK VINA RESULT:      -5.1      3.404      5.301
REMARK  5 active torsions:
REMARK  status: ('A' for Active; 'I' for Inactive)
REMARK    1  A    between atoms: N_10  and  C_2 
REMARK    2  A    between atoms: C_7  and  C_5 
REMARK    3  A    between atoms: C_6  and  C_9 
REMARK    4  A    between atoms: C_8  and  C_7 
REMARK       I    between atoms: N_11  and  C_8 
REMARK    5  A    between atoms: C_14  and  N_11 
ROOT
ATOM      1  C   UNL d   1     -41.669-122.504 -51.022  0.00  0.00     0.280 C 
ATOM      2  N   UNL d   1     -41.386-122.966 -50.403  0.00  0.00    -0.208 NA
ATOM      3  O   UNL d   1     -42.458-122.263 -51.026  0.00  0.00    -0.265 OA
ENDROOT
BRANCH   1   4
ATOM      4  C   UNL d   1     -41.169-122.281 -51.637  0.00  0.00     0.074 C 
BRANCH   4   5
ATOM      5  C   UNL d   1     -41.371-122.446 -52.418  0.00  0.00     0.093 A 
ATOM      6  C   UNL d   1     -41.541-121.886 -53.000  0.00  0.00     0.272 A 
ATOM      7  N   UNL d   1     -41.712-122.289 -53.693  0.00  0.00    -0.251 N 
ATOM      8  O   UNL d   1     -41.540-121.067 -52.901  0.00  0.00    -0.266 OA
ATOM      9  C   UNL d   1     -41.647-123.098 -53.541  0.00  0.00     0.182 A 
ATOM     10  C   UNL d   1     -41.914-121.948 -54.418  0.00  0.00     0.104 C 
ATOM     11  S   UNL d   1     -41.436-123.192 -52.753  0.00  0.00    -0.045 SA
BRANCH   9  12
ATOM     12  N   UNL d   1     -41.772-123.705 -54.086  0.00  0.00    -0.219 NA
ATOM     13  C   UNL d   1     -41.244-123.816 -54.711  0.00  0.00     0.122 C 
ENDBRANCH   9  12
ENDBRANCH   4   5
ENDBRANCH   1   4
BRANCH   2  14
ATOM     14  C   UNL d   1     -41.893-123.187 -49.789  0.00  0.00     0.085 A 
ATOM     15  C   UNL d   1     -41.707-123.000 -49.005  0.00  0.00     0.023 A 
ATOM     16  C   UNL d   1     -42.219-123.224 -48.396  0.00  0.00     0.073 A 
ATOM     17  C   UNL d   1     -42.910-123.630 -48.570  0.00  0.00     0.004 A 
ATOM     18  C   UNL d   1     -43.096-123.817 -49.355  0.00  0.00     0.002 A 
ATOM     19  C   UNL d   1     -42.590-123.597 -49.964  0.00  0.00     0.019 A 
BRANCH  16  20
ATOM     20  C   UNL d   1     -42.033-123.037 -47.612  0.00  0.00     0.419 C 
ATOM     21  F   UNL d   1     -41.865-122.868 -46.901  0.00  0.00    -0.166 F 
ATOM     22  F   UNL d   1     -41.611-123.503 -47.025  0.00  0.00    -0.166 F 
ATOM     23  F   UNL d   1     -42.212-122.320 -47.164  0.00  0.00    -0.166 F 
ENDBRANCH  16  20
ENDBRANCH   2  14
TORSDOF 5
ENDMDL
