MODEL 1
REMARK VINA RESULT:      52.1      0.000      0.000
REMARK  5 active torsions:
REMARK  status: ('A' for Active; 'I' for Inactive)
REMARK    1  A    between atoms: N_7  and  C_1 
REMARK    2  A    between atoms: S_6  and  C_2 
REMARK    3  A    between atoms: C_3  and  S_6 
REMARK    4  A    between atoms: C_13  and  N_5 
REMARK    5  A    between atoms: C_18  and  C_13 
ROOT
ATOM      1  C   UNL d   1      13.420  12.818  -4.204  0.00  0.00     0.232 A 
ATOM      2  C   UNL d   1      13.403  13.382  -3.611  0.00  0.00     0.139 A 
ATOM      3  N   UNL d   1      13.804  12.143  -3.918  0.00  0.00    -0.204 NA
ATOM      4  N   UNL d   1      13.777  13.064  -2.948  0.00  0.00    -0.282 N 
ATOM      5  C   UNL d   1      14.026  12.300  -3.132  0.00  0.00     0.150 A 
ATOM      6  C   UNL d   1      14.422  11.782  -2.634  0.00  0.00     0.041 C 
ENDROOT
BRANCH   2   7
ATOM      7  S   UNL d   1      13.073  14.134  -3.664  0.00  0.00    -0.029 SA
BRANCH   7   8
ATOM      8  C   UNL d   1      13.555  14.790  -3.797  0.00  0.00     0.181 A 
ATOM      9  N   UNL d   1      14.131  15.085  -3.278  0.00  0.00    -0.221 NA
ATOM     10  C   UNL d   1      14.478  15.738  -3.626  0.00  0.00     0.100 A 
ATOM     11  C   UNL d   1      15.075  16.256  -3.383  0.00  0.00     0.021 A 
ATOM     12  C   UNL d   1      14.126  15.859  -4.364  0.00  0.00     0.084 A 
ATOM     13  C   UNL d   1      15.311  16.871  -3.856  0.00  0.00     0.002 A 
ATOM     14  C   UNL d   1      14.954  16.985  -4.592  0.00  0.00     0.002 A 
ATOM     15  C   UNL d   1      14.361  16.483  -4.853  0.00  0.00     0.019 A 
ATOM     16  N   UNL d   1      13.553  15.268  -4.466  0.00  0.00    -0.282 N 
ATOM     17  C   UNL d   1      13.067  15.178  -5.127  0.00  0.00     0.101 C 
ENDBRANCH   7   8
ENDBRANCH   2   7
BRANCH   1  18
ATOM     18  N   UNL d   1      13.375  12.333  -4.876  0.00  0.00    -0.093 N 
ATOM     19  O   UNL d   1      13.941  12.403  -5.474  0.00  0.00    -0.530 OA
ATOM     20  O   UNL d   1      12.769  11.780  -4.953  0.00  0.00    -0.530 OA
ENDBRANCH   1  18
BRANCH   4  21
ATOM     21  C   UNL d   1      13.884  13.447  -2.221  0.00  0.00     0.082 C 
BRANCH  21  22
ATOM     22  C   UNL d   1      14.110  13.007  -1.563  0.00  0.00     0.018 A 
ATOM     23  C   UNL d   1      14.881  13.060  -1.263  0.00  0.00     0.002 A 
ATOM     24  C   UNL d   1      15.103  12.622  -0.609  0.00  0.00     0.000 A 
ATOM     25  C   UNL d   1      14.549  12.122  -0.245  0.00  0.00     0.000 A 
ATOM     26  C   UNL d   1      13.786  12.067  -0.538  0.00  0.00     0.000 A 
ATOM     27  C   UNL d   1      13.564  12.510  -1.199  0.00  0.00     0.002 A 
ENDBRANCH  21  22
ENDBRANCH   4  21
TORSDOF 5
ENDMDL
MODEL 2
REMARK VINA RESULT:      54.6      2.296      3.027
REMARK  5 active torsions:
REMARK  status: ('A' for Active; 'I' for Inactive)
REMARK    1  A    between atoms: N_7  and  C_1 
REMARK    2  A    between atoms: S_6  and  C_2 
REMARK    3  A    between atoms: C_3  and  S_6 
REMARK    4  A    between atoms: C_13  and  N_5 
REMARK    5  A    between atoms: C_18  and  C_13 
ROOT
ATOM      1  C   UNL d   1      14.916  15.554  -1.019  0.00  0.00     0.232 A 
ATOM      2  C   UNL d   1      14.768  14.882  -1.463  0.00  0.00     0.139 A 
ATOM      3  N   UNL d   1      15.451  15.361  -0.417  0.00  0.00    -0.204 NA
ATOM      4  N   UNL d   1      15.208  14.264  -1.143  0.00  0.00    -0.282 N 
ATOM      5  C   UNL d   1      15.631  14.553  -0.497  0.00  0.00     0.150 A 
ATOM      6  C   UNL d   1      16.141  14.127  -0.016  0.00  0.00     0.041 C 
ENDROOT
BRANCH   2   7
ATOM      7  S   UNL d   1      14.267  14.832  -2.115  0.00  0.00    -0.029 SA
BRANCH   7   8
ATOM      8  C   UNL d   1      14.413  15.289  -2.786  0.00  0.00     0.181 A 
ATOM      9  N   UNL d   1      15.003  15.867  -2.862  0.00  0.00    -0.221 NA
ATOM     10  C   UNL d   1      14.953  16.185  -3.614  0.00  0.00     0.100 A 
ATOM     11  C   UNL d   1      15.384  16.770  -4.008  0.00  0.00     0.021 A 
ATOM     12  C   UNL d   1      14.335  15.811  -4.015  0.00  0.00     0.084 A 
ATOM     13  C   UNL d   1      15.206  16.976  -4.772  0.00  0.00     0.002 A 
ATOM     14  C   UNL d   1      14.586  16.597  -5.166  0.00  0.00     0.002 A 
ATOM     15  C   UNL d   1      14.146  16.014  -4.794  0.00  0.00     0.019 A 
ATOM     16  N   UNL d   1      14.002  15.256  -3.497  0.00  0.00    -0.282 N 
ATOM     17  C   UNL d   1      13.368  14.756  -3.669  0.00  0.00     0.101 C 
ENDBRANCH   7   8
ENDBRANCH   2   7
BRANCH   1  18
ATOM     18  N   UNL d   1      14.986  16.293  -0.648  0.00  0.00    -0.093 N 
ATOM     19  O   UNL d   1      14.367  16.582  -0.184  0.00  0.00    -0.530 OA
ATOM     20  O   UNL d   1      15.670  16.743  -0.740  0.00  0.00    -0.530 OA
ENDBRANCH   1  18
BRANCH   4  21
ATOM     21  C   UNL d   1      15.223  13.484  -1.422  0.00  0.00     0.082 C 
BRANCH  21  22
ATOM     22  C   UNL d   1      14.687  12.936  -1.118  0.00  0.00     0.018 A 
ATOM     23  C   UNL d   1      14.395  12.322  -1.593  0.00  0.00     0.002 A 
ATOM     24  C   UNL d   1      13.863  11.780  -1.288  0.00  0.00     0.000 A 
ATOM     25  C   UNL d   1      13.618  11.848  -0.499  0.00  0.00     0.000 A 
ATOM     26  C   UNL d   1      13.904  12.453  -0.026  0.00  0.00     0.000 A 
ATOM     27  C   UNL d   1      14.440  13.000  -0.335  0.00  0.00     0.002 A 
ENDBRANCH  21  22
ENDBRANCH   4  21
TORSDOF 5
ENDMDL
