MODEL 1
REMARK VINA RESULT:       4.8      0.000      0.000
REMARK  5 active torsions:
REMARK  status: ('A' for Active; 'I' for Inactive)
REMARK    1  A    between atoms: C_22  and  N_10 
REMARK    2  A    between atoms: C_19  and  N_13 
REMARK    3  A    between atoms: N_14  and  C_26 
REMARK    4  A    between atoms: C_25  and  C_22 
REMARK    5  A    between atoms: C_26  and  C_25 
ROOT
ATOM      1  C   UNL d   1     -41.846-121.567 -54.578  0.00  0.00     0.173 A 
ATOM      2  C   UNL d   1     -41.686-122.299 -54.293  0.00  0.00     0.191 A 
ATOM      3  C   UNL d   1     -41.496-121.770 -52.988  0.00  0.00     0.722 A 
ATOM      4  N   UNL d   1     -41.658-121.013 -53.271  0.00  0.00    -0.131 N 
ATOM      5  N   UNL d   1     -41.510-122.413 -53.498  0.00  0.00    -0.042 NA
ATOM      6  N   UNL d   1     -41.696-122.949 -54.789  0.00  0.00    -0.240 N 
ATOM      7  N   UNL d   1     -42.042-122.045 -55.879  0.00  0.00    -0.223 N 
ATOM      8  C   UNL d   1     -41.875-122.824 -55.587  0.00  0.00     0.343 A 
ATOM      9  C   UNL d   1     -42.026-121.411 -55.364  0.00  0.00     0.288 A 
ATOM     10  N   UNL d   1     -41.318-121.881 -52.187  0.00  0.00    -0.139 N 
ATOM     11  C   UNL d   1     -41.466-120.479 -51.956  0.00  0.00     0.116 A 
ATOM     12  C   UNL d   1     -41.304-121.237 -51.672  0.00  0.00     0.100 A 
ATOM     13  O   UNL d   1     -41.882-123.513 -56.092  0.00  0.00    -0.245 OA
ATOM     14  O   UNL d   1     -42.188-120.655 -55.647  0.00  0.00    -0.265 OA
ATOM     15  C   UNL d   1     -41.534-123.706 -54.505  0.00  0.00     0.105 C 
ATOM     16  C   UNL d   1     -42.218-121.927 -56.665  0.00  0.00     0.107 C 
ATOM     17  C   UNL d   1     -41.123-121.373 -50.874  0.00  0.00     0.021 C 
ENDROOT
BRANCH  10  18
ATOM     18  C   UNL d   1     -41.155-122.637 -51.900  0.00  0.00     0.100 C 
BRANCH  18  19
ATOM     19  C   UNL d   1     -41.772-123.137 -51.658  0.00  0.00     0.039 C 
BRANCH  19  20
ATOM     20  C   UNL d   1     -41.624-123.751 -51.145  0.00  0.00     0.082 C 
BRANCH  20  21
ATOM     21  N   UNL d   1     -41.967-123.757 -50.398  0.00  0.00    -0.300 N 
ATOM     22  C   UNL d   1     -42.788-123.811 -50.327  0.00  0.00     0.100 A 
ATOM     23  C   UNL d   1     -43.127-123.816 -49.582  0.00  0.00     0.100 A 
ATOM     24  N   UNL d   1     -42.654-123.769 -48.913  0.00  0.00    -0.301 N 
ATOM     25  C   UNL d   1     -41.842-123.715 -48.991  0.00  0.00     0.100 A 
ATOM     26  C   UNL d   1     -41.491-123.709 -49.739  0.00  0.00     0.100 A 
BRANCH  24  27
ATOM     27  C   UNL d   1     -42.997-123.775 -48.166  0.00  0.00     0.064 A 
ATOM     28  C   UNL d   1     -42.528-123.746 -47.498  0.00  0.00     0.018 A 
ATOM     29  C   UNL d   1     -42.862-123.751 -46.753  0.00  0.00     0.002 A 
ATOM     30  C   UNL d   1     -43.684-123.787 -46.677  0.00  0.00     0.000 A 
ATOM     31  C   UNL d   1     -44.162-123.816 -47.353  0.00  0.00     0.002 A 
ATOM     32  C   UNL d   1     -43.819-123.810 -48.092  0.00  0.00     0.018 A 
ENDBRANCH  24  27
ENDBRANCH  20  21
ENDBRANCH  19  20
ENDBRANCH  18  19
ENDBRANCH  10  18
TORSDOF 5
ENDMDL
