MODEL 1
REMARK VINA RESULT:      26.8      0.000      0.000
REMARK  3 active torsions:
REMARK  status: ('A' for Active; 'I' for Inactive)
REMARK    1  A    between atoms: C_2  and  C_1 
REMARK    2  A    between atoms: N_5  and  C_2 
REMARK    3  A    between atoms: C_9  and  C_4 
ROOT
ATOM      1  C   UNL d   1      13.674  12.179  -1.681  0.00  0.00     0.126 A 
ATOM      2  O   UNL d   1      13.942  12.419  -2.423  0.00  0.00    -0.305 OA
ATOM      3  C   UNL d   1      13.381  12.177  -2.979  0.00  0.00     0.100 A 
ATOM      4  C   UNL d   1      12.950  11.791  -1.786  0.00  0.00     0.029 A 
ATOM      5  C   UNL d   1      12.771  11.790  -2.577  0.00  0.00     0.027 A 
ENDROOT
BRANCH   1   6
ATOM      6  C   UNL d   1      13.998  12.267  -0.936  0.00  0.00     0.143 C 
ATOM      7  S   UNL d   1      13.594  11.983  -0.276  0.00  0.00    -0.057 SA
BRANCH   6   8
ATOM      8  N   UNL d   1      14.725  12.637  -0.841  0.00  0.00    -0.290 N 
ATOM      9  C   UNL d   1      15.404  12.328  -1.195  0.00  0.00     0.108 A 
ATOM     10  C   UNL d   1      16.133  12.705  -1.096  0.00  0.00     0.142 A 
ATOM     11  O   UNL d   1      16.174  13.391  -0.641  0.00  0.00    -0.300 OA
ATOM     12  C   UNL d   1      15.496  13.701  -0.286  0.00  0.00     0.142 A 
ATOM     13  C   UNL d   1      14.777  13.321  -0.389  0.00  0.00     0.108 A 
ENDBRANCH   6   8
ENDBRANCH   1   6
BRANCH   3  14
ATOM     14  C   UNL d   1      13.428  12.301  -3.783  0.00  0.00     0.023 A 
ATOM     15  C   UNL d   1      13.914  11.818  -4.243  0.00  0.00     0.003 A 
ATOM     16  C   UNL d   1      13.967  11.935  -5.049  0.00  0.00     0.007 A 
ATOM     17  C   UNL d   1      13.536  12.541  -5.414  0.00  0.00     0.035 A 
ATOM     18  C   UNL d   1      13.048  13.027  -4.955  0.00  0.00     0.007 A 
ATOM     19 BR   UNL d   1      13.591  12.659  -6.228  0.00  0.00    -0.049 Br
ATOM     20  C   UNL d   1      12.996  12.910  -4.152  0.00  0.00     0.003 A 
ENDBRANCH   3  14
TORSDOF 3
ENDMDL
