MODEL 1
REMARK VINA RESULT:       0.3      0.000      0.000
REMARK  5 active torsions:
REMARK  status: ('A' for Active; 'I' for Inactive)
REMARK    1  A    between atoms: C_4  and  N_1 
REMARK    2  A    between atoms: C_8  and  C_2 
REMARK    3  A    between atoms: C_13  and  C_6 
REMARK    4  A    between atoms: C_7  and  C_8 
REMARK    5  A    between atoms: O_24  and  C_22 
ROOT
ATOM      1  N   UNL d   1      59.169   0.362  31.079  0.00  0.00    -0.255 N 
ATOM      2  C   UNL d   1      57.874   0.365  31.424  0.00  0.00     0.101 A 
ATOM      3  C   UNL d   1      59.117   0.532  31.887  0.00  0.00     0.305 A 
ATOM      4  C   UNL d   1      58.324   0.533  32.097  0.00  0.00     0.256 A 
ATOM      5  C   UNL d   1      58.397   0.258  30.793  0.00  0.00     0.075 A 
ATOM      6  O   UNL d   1      59.755   0.674  32.392  0.00  0.00    -0.263 OA
ATOM      7  O   UNL d   1      58.024   0.680  32.857  0.00  0.00    -0.281 OA
ENDROOT
BRANCH   2   8
ATOM      8  C   UNL d   1      57.050   0.312  31.388  0.00  0.00     0.223 C 
ATOM      9  O   UNL d   1      56.648   0.653  30.755  0.00  0.00    -0.284 OA
BRANCH   8  10
ATOM     10  C   UNL d   1      56.635  -0.078  31.981  0.00  0.00     0.139 A 
ATOM     11  O   UNL d   1      56.781  -0.843  32.249  0.00  0.00    -0.304 OA
ATOM     12  C   UNL d   1      56.233  -1.013  32.850  0.00  0.00     0.100 A 
ATOM     13  C   UNL d   1      56.114  -1.680  33.314  0.00  0.00     0.025 A 
ATOM     14  C   UNL d   1      55.757  -0.347  32.942  0.00  0.00     0.025 A 
ATOM     15  C   UNL d   1      55.516  -1.688  33.875  0.00  0.00     0.002 A 
ATOM     16  C   UNL d   1      55.031  -1.021  33.976  0.00  0.00     0.000 A 
ATOM     17  C   UNL d   1      55.152  -0.356  33.511  0.00  0.00     0.002 A 
ATOM     18  C   UNL d   1      56.001   0.227  32.411  0.00  0.00     0.030 A 
ENDBRANCH   8  10
ENDBRANCH   2   8
BRANCH   5  19
ATOM     19  C   UNL d   1      58.191   0.080  30.013  0.00  0.00     0.018 A 
ATOM     20  C   UNL d   1      58.406  -0.638  29.687  0.00  0.00     0.026 A 
ATOM     21  C   UNL d   1      58.202  -0.818  28.909  0.00  0.00     0.094 A 
ATOM     22  C   UNL d   1      57.777  -0.265  28.458  0.00  0.00     0.024 A 
ATOM     23  C   UNL d   1      57.563   0.462  28.797  0.00  0.00     0.002 A 
ATOM     24  C   UNL d   1      57.769   0.634  29.570  0.00  0.00     0.002 A 
BRANCH  21  25
ATOM     25  O   UNL d   1      58.419  -1.544  28.579  0.00  0.00    -0.328 OA
ATOM     26  C   UNL d   1      57.965  -2.216  28.721  0.00  0.00     0.181 C 
ENDBRANCH  21  25
ENDBRANCH   5  19
BRANCH   1  27
ATOM     27  C   UNL d   1      59.868   0.305  30.635  0.00  0.00     0.179 A 
ATOM     28  N   UNL d   1      60.554  -0.095  30.865  0.00  0.00    -0.108 NA
ATOM     29  O   UNL d   1      61.105  -0.008  30.259  0.00  0.00    -0.210 OA
ATOM     30  C   UNL d   1      60.768   0.439  29.662  0.00  0.00     0.128 A 
ATOM     31  C   UNL d   1      59.999   0.637  29.888  0.00  0.00     0.067 A 
ATOM     32  C   UNL d   1      61.131   0.659  28.948  0.00  0.00     0.029 C 
ENDBRANCH   1  27
TORSDOF 5
ENDMDL
