MODEL 1
REMARK VINA RESULT:      -5.6      0.000      0.000
REMARK  2 active torsions:
REMARK  status: ('A' for Active; 'I' for Inactive)
REMARK    1  A    between atoms: N_10  and  C_6 
REMARK    2  A    between atoms: C_12  and  N_10 
ROOT
ATOM      1  N   UNL d   1      58.508  -0.643  29.907  0.00  0.00    -0.169 N 
ATOM      2  C   UNL d   1      58.847   0.108  29.956  0.00  0.00     0.201 A 
ATOM      3  C   UNL d   1      58.906  -1.243  29.523  0.00  0.00     0.283 A 
ATOM      4  S   UNL d   1      58.327   0.598  30.369  0.00  0.00    -0.008 SA
ATOM      5  N   UNL d   1      57.774  -0.614  30.292  0.00  0.00    -0.134 NA
ATOM      6  C   UNL d   1      57.666   0.146  30.574  0.00  0.00     0.216 A 
ATOM      7  N   UNL d   1      59.574   0.264  29.629  0.00  0.00    -0.221 NA
ATOM      8  C   UNL d   1      59.647  -1.098  29.186  0.00  0.00     0.076 A 
ATOM      9  C   UNL d   1      59.982  -0.345  29.239  0.00  0.00     0.088 A 
ATOM     10  O   UNL d   1      58.572  -1.996  29.470  0.00  0.00    -0.265 OA
ATOM     11  C   UNL d   1      60.057  -1.702  28.796  0.00  0.00     0.006 A 
ATOM     12  C   UNL d   1      60.725  -0.195  28.902  0.00  0.00     0.019 A 
ATOM     13  C   UNL d   1      60.804  -1.546  28.459  0.00  0.00     0.000 A 
ATOM     14  C   UNL d   1      61.133  -0.804  28.511  0.00  0.00     0.002 A 
ENDROOT
BRANCH   6  15
ATOM     15  N   UNL d   1      57.009   0.420  30.993  0.00  0.00    -0.220 NA
BRANCH  15  16
ATOM     16  C   UNL d   1      56.880   0.205  31.773  0.00  0.00     0.084 A 
ATOM     17  C   UNL d   1      56.454  -0.467  31.953  0.00  0.00     0.019 A 
ATOM     18  C   UNL d   1      56.332  -0.670  32.739  0.00  0.00     0.002 A 
ATOM     19  C   UNL d   1      55.905  -1.345  32.926  0.00  0.00     0.000 C 
ATOM     20  C   UNL d   1      56.642  -0.193  33.336  0.00  0.00     0.000 A 
ATOM     21  C   UNL d   1      57.066   0.477  33.157  0.00  0.00     0.002 A 
ATOM     22  C   UNL d   1      57.188   0.682  32.368  0.00  0.00     0.019 A 
ENDBRANCH  15  16
ENDBRANCH   6  15
TORSDOF 2
ENDMDL
MODEL 2
REMARK VINA RESULT:      -4.4      1.557      2.128
REMARK  2 active torsions:
REMARK  status: ('A' for Active; 'I' for Inactive)
REMARK    1  A    between atoms: N_10  and  C_6 
REMARK    2  A    between atoms: C_12  and  N_10 
ROOT
ATOM      1  N   UNL d   1      57.757   0.673  31.168  0.00  0.00    -0.169 N 
ATOM      2  C   UNL d   1      58.484   0.664  31.559  0.00  0.00     0.201 A 
ATOM      3  C   UNL d   1      57.735   0.673  30.353  0.00  0.00     0.283 A 
ATOM      4  S   UNL d   1      58.340   0.666  32.371  0.00  0.00    -0.008 SA
ATOM      5  N   UNL d   1      57.162   0.681  31.745  0.00  0.00    -0.134 NA
ATOM      6  C   UNL d   1      57.520   0.677  32.480  0.00  0.00     0.216 A 
ATOM      7  N   UNL d   1      59.184   0.655  31.145  0.00  0.00    -0.221 NA
ATOM      8  C   UNL d   1      58.440   0.664  29.920  0.00  0.00     0.076 A 
ATOM      9  C   UNL d   1      59.164   0.654  30.316  0.00  0.00     0.088 A 
ATOM     10  O   UNL d   1      57.011   0.682  29.956  0.00  0.00    -0.265 OA
ATOM     11  C   UNL d   1      58.425   0.663  29.093  0.00  0.00     0.006 A 
ATOM     12  C   UNL d   1      59.873   0.645  29.886  0.00  0.00     0.019 A 
ATOM     13  C   UNL d   1      59.141   0.654  28.664  0.00  0.00     0.000 A 
ATOM     14  C   UNL d   1      59.854   0.645  29.055  0.00  0.00     0.002 A 
ENDROOT
BRANCH   6  15
ATOM     15  N   UNL d   1      57.134   0.682  33.210  0.00  0.00    -0.220 NA
BRANCH  15  16
ATOM     16  C   UNL d   1      56.428   0.281  33.323  0.00  0.00     0.084 A 
ATOM     17  C   UNL d   1      55.762   0.678  33.579  0.00  0.00     0.019 A 
ATOM     18  C   UNL d   1      55.062   0.263  33.687  0.00  0.00     0.002 A 
ATOM     19  C   UNL d   1      54.389   0.655  33.944  0.00  0.00     0.000 C 
ATOM     20  C   UNL d   1      55.040  -0.548  33.536  0.00  0.00     0.000 A 
ATOM     21  C   UNL d   1      55.704  -0.943  33.282  0.00  0.00     0.002 A 
ATOM     22  C   UNL d   1      56.407  -0.527  33.172  0.00  0.00     0.019 A 
ENDBRANCH  15  16
ENDBRANCH   6  15
TORSDOF 2
ENDMDL
