MODEL 1
REMARK VINA RESULT:      78.8      0.000      0.000
REMARK  5 active torsions:
REMARK  status: ('A' for Active; 'I' for Inactive)
REMARK    1  A    between atoms: C_12  and  N_1 
REMARK    2  A    between atoms: S_9  and  C_2 
REMARK       I    between atoms: N_7  and  C_10 
REMARK    3  A    between atoms: C_19  and  N_8 
REMARK    4  A    between atoms: C_14  and  S_9 
REMARK    5  A    between atoms: C_10  and  C_14 
ROOT
ATOM      1  N   UNL d   1     -51.004  25.648  33.339  0.00  0.00    -0.254 N 
ATOM      2  C   UNL d   1     -50.214  25.885  33.355  0.00  0.00     0.182 A 
ATOM      3  C   UNL d   1     -51.192  24.845  33.322  0.00  0.00     0.274 A 
ATOM      4  C   UNL d   1     -50.593  24.283  33.321  0.00  0.00     0.104 A 
ATOM      5  N   UNL d   1     -49.612  25.320  33.354  0.00  0.00    -0.222 NA
ATOM      6  C   UNL d   1     -49.803  24.521  33.337  0.00  0.00     0.095 A 
ATOM      7  S   UNL d   1     -50.609  23.460  33.306  0.00  0.00    -0.080 SA
ATOM      8  O   UNL d   1     -51.982  24.607  33.306  0.00  0.00    -0.266 OA
ATOM      9  C   UNL d   1     -49.331  23.844  33.332  0.00  0.00     0.027 A 
ATOM     10  C   UNL d   1     -49.825  23.194  33.313  0.00  0.00     0.037 A 
ENDROOT
BRANCH   2  11
ATOM     11  S   UNL d   1     -50.017  26.696  33.372  0.00  0.00    -0.044 SA
BRANCH  11  12
ATOM     12  C   UNL d   1     -49.318  26.939  33.738  0.00  0.00     0.099 C 
BRANCH  12  13
ATOM     13  C   UNL d   1     -49.327  27.182  34.527  0.00  0.00     0.272 C 
ATOM     14  N   UNL d   1     -48.903  27.850  34.758  0.00  0.00    -0.269 N 
ATOM     15  C   UNL d   1     -48.469  28.276  34.200  0.00  0.00     0.102 A 
ATOM     16  C   UNL d   1     -48.913  28.093  35.547  0.00  0.00     0.102 A 
ATOM     17  C   UNL d   1     -48.049  28.940  34.439  0.00  0.00     0.100 A 
ATOM     18  N   UNL d   1     -48.056  29.183  35.219  0.00  0.00    -0.301 N 
ATOM     19  C   UNL d   1     -48.491  28.758  35.777  0.00  0.00     0.100 A 
ATOM     20  O   UNL d   1     -49.762  26.755  35.085  0.00  0.00    -0.266 OA
BRANCH  18  21
ATOM     21  C   UNL d   1     -47.632  29.852  35.450  0.00  0.00     0.064 A 
ATOM     22  C   UNL d   1     -47.888  30.603  35.223  0.00  0.00     0.018 A 
ATOM     23  C   UNL d   1     -47.464  31.272  35.454  0.00  0.00     0.002 A 
ATOM     24  C   UNL d   1     -46.783  31.189  35.912  0.00  0.00     0.000 A 
ATOM     25  C   UNL d   1     -46.526  30.439  36.141  0.00  0.00     0.002 A 
ATOM     26  C   UNL d   1     -46.951  29.770  35.909  0.00  0.00     0.018 A 
ENDBRANCH  18  21
ENDBRANCH  12  13
ENDBRANCH  11  12
ENDBRANCH   2  11
BRANCH   1  27
ATOM     27  C   UNL d   1     -51.601  26.205  33.340  0.00  0.00     0.069 A 
ATOM     28  C   UNL d   1     -52.391  25.968  33.374  0.00  0.00     0.018 A 
ATOM     29  C   UNL d   1     -52.992  26.534  33.375  0.00  0.00     0.002 A 
ATOM     30  C   UNL d   1     -52.803  27.337  33.341  0.00  0.00     0.000 A 
ATOM     31  C   UNL d   1     -52.014  27.574  33.307  0.00  0.00     0.002 A 
ATOM     32  C   UNL d   1     -51.413  27.008  33.306  0.00  0.00     0.018 A 
ENDBRANCH   1  27
TORSDOF 5
ENDMDL
