MODEL 1
REMARK VINA RESULT:      -5.7      0.000      0.000
REMARK  4 active torsions:
REMARK  status: ('A' for Active; 'I' for Inactive)
REMARK    1  A    between atoms: C_4  and  C_3 
REMARK    2  A    between atoms: C_5  and  C_4 
REMARK    3  A    between atoms: C_9  and  C_5 
REMARK    4  A    between atoms: C_13  and  C_9 
ROOT
ATOM      1  N   UNL d   1     -42.948-122.517 -49.532  0.00  0.00    -0.234 NA
ATOM      2  C   UNL d   1     -42.636-122.395 -50.287  0.00  0.00     0.138 A 
ATOM      3  C   UNL d   1     -41.853-122.603 -50.448  0.00  0.00     0.029 A 
ATOM      4  C   UNL d   1     -42.479-122.846 -48.939  0.00  0.00     0.082 A 
ATOM      5  C   UNL d   1     -41.696-123.054 -49.100  0.00  0.00     0.018 A 
ATOM      6  C   UNL d   1     -41.435-122.919 -49.844  0.00  0.00     0.004 A 
ATOM      7  C   UNL d   1     -41.278-123.370 -48.497  0.00  0.00     0.002 A 
ATOM      8  C   UNL d   1     -42.791-122.968 -48.186  0.00  0.00     0.019 A 
ATOM      9 CL   UNL d   1     -43.105-122.066 -50.879  0.00  0.00    -0.061 Cl
ATOM     10  C   UNL d   1     -41.539-123.505 -47.754  0.00  0.00     0.000 A 
ATOM     11  C   UNL d   1     -42.322-123.297 -47.593  0.00  0.00     0.002 A 
ATOM     12  C   UNL d   1     -41.124-123.812 -47.175  0.00  0.00     0.000 C 
ENDROOT
BRANCH   3  13
ATOM     13  C   UNL d   1     -41.593-122.467 -51.190  0.00  0.00     0.006 C 
BRANCH  13  14
ATOM     14  C   UNL d   1     -41.492-122.667 -51.984  0.00  0.00     0.042 C 
BRANCH  14  15
ATOM     15  C   UNL d   1     -41.356-122.250 -52.675  0.00  0.00     0.196 C 
ATOM     16  O   UNL d   1     -41.139-121.453 -52.640  0.00  0.00    -0.287 OA
BRANCH  15  17
ATOM     17  C   UNL d   1     -41.431-122.610 -53.403  0.00  0.00     0.039 A 
ATOM     18  C   UNL d   1     -41.136-123.366 -53.534  0.00  0.00     0.003 A 
ATOM     19  C   UNL d   1     -41.223-123.712 -54.278  0.00  0.00     0.000 A 
ATOM     20  C   UNL d   1     -41.603-123.309 -54.894  0.00  0.00     0.000 A 
ATOM     21  C   UNL d   1     -41.896-122.559 -54.766  0.00  0.00     0.000 A 
ATOM     22  C   UNL d   1     -41.810-122.209 -54.017  0.00  0.00     0.003 A 
ENDBRANCH  15  17
ENDBRANCH  14  15
ENDBRANCH  13  14
ENDBRANCH   3  13
TORSDOF 4
ENDMDL
MODEL 2
REMARK VINA RESULT:      -5.6      1.324      4.984
REMARK  4 active torsions:
REMARK  status: ('A' for Active; 'I' for Inactive)
REMARK    1  A    between atoms: C_4  and  C_3 
REMARK    2  A    between atoms: C_5  and  C_4 
REMARK    3  A    between atoms: C_9  and  C_5 
REMARK    4  A    between atoms: C_13  and  C_9 
ROOT
ATOM      1  N   UNL d   1     -41.320-121.639 -52.497  0.00  0.00    -0.234 NA
ATOM      2  C   UNL d   1     -41.359-121.884 -51.710  0.00  0.00     0.138 A 
ATOM      3  C   UNL d   1     -41.368-122.690 -51.529  0.00  0.00     0.029 A 
ATOM      4  C   UNL d   1     -41.289-122.198 -53.103  0.00  0.00     0.082 A 
ATOM      5  C   UNL d   1     -41.298-123.004 -52.922  0.00  0.00     0.018 A 
ATOM      6  C   UNL d   1     -41.337-123.196 -52.147  0.00  0.00     0.004 A 
ATOM      7  C   UNL d   1     -41.267-123.510 -53.539  0.00  0.00     0.002 A 
ATOM      8  C   UNL d   1     -41.250-121.953 -53.889  0.00  0.00     0.019 A 
ATOM      9 CL   UNL d   1     -41.389-121.325 -51.104  0.00  0.00    -0.061 Cl
ATOM     10  C   UNL d   1     -41.228-123.317 -54.313  0.00  0.00     0.000 A 
ATOM     11  C   UNL d   1     -41.219-122.511 -54.495  0.00  0.00     0.002 A 
ATOM     12  C   UNL d   1     -41.199-123.817 -54.905  0.00  0.00     0.000 C 
ENDROOT
BRANCH   3  13
ATOM     13  C   UNL d   1     -41.407-122.882 -50.754  0.00  0.00     0.006 C 
BRANCH  13  14
ATOM     14  C   UNL d   1     -41.523-123.409 -50.130  0.00  0.00     0.042 C 
BRANCH  14  15
ATOM     15  C   UNL d   1     -42.123-123.549 -49.593  0.00  0.00     0.196 C 
ATOM     16  O   UNL d   1     -42.879-123.752 -49.860  0.00  0.00    -0.287 OA
BRANCH  15  17
ATOM     17  C   UNL d   1     -41.988-123.490 -48.791  0.00  0.00     0.039 A 
ATOM     18  C   UNL d   1     -41.262-123.703 -48.466  0.00  0.00     0.003 A 
ATOM     19  C   UNL d   1     -41.147-123.636 -47.652  0.00  0.00     0.000 A 
ATOM     20  C   UNL d   1     -41.749-123.358 -47.157  0.00  0.00     0.000 A 
ATOM     21  C   UNL d   1     -42.470-123.147 -47.476  0.00  0.00     0.000 A 
ATOM     22  C   UNL d   1     -42.588-123.214 -48.297  0.00  0.00     0.003 A 
ENDBRANCH  15  17
ENDBRANCH  14  15
ENDBRANCH  13  14
ENDBRANCH   3  13
TORSDOF 4
ENDMDL
MODEL 3
REMARK VINA RESULT:      -5.4      1.423      5.195
REMARK  4 active torsions:
REMARK  status: ('A' for Active; 'I' for Inactive)
REMARK    1  A    between atoms: C_4  and  C_3 
REMARK    2  A    between atoms: C_5  and  C_4 
REMARK    3  A    between atoms: C_9  and  C_5 
REMARK    4  A    between atoms: C_13  and  C_9 
ROOT
ATOM      1  N   UNL d   1     -41.272-123.495 -53.481  0.00  0.00    -0.234 NA
ATOM      2  C   UNL d   1     -41.379-123.300 -52.686  0.00  0.00     0.138 A 
ATOM      3  C   UNL d   1     -41.739-122.585 -52.482  0.00  0.00     0.029 A 
ATOM      4  C   UNL d   1     -41.525-122.978 -54.072  0.00  0.00     0.082 A 
ATOM      5  C   UNL d   1     -41.885-122.263 -53.867  0.00  0.00     0.018 A 
ATOM      6  C   UNL d   1     -41.968-122.114 -53.086  0.00  0.00     0.004 A 
ATOM      7  C   UNL d   1     -42.115-121.792 -54.470  0.00  0.00     0.002 A 
ATOM      8  C   UNL d   1     -41.419-123.173 -54.865  0.00  0.00     0.019 A 
ATOM      9 CL   UNL d   1     -41.126-123.818 -52.096  0.00  0.00    -0.061 Cl
ATOM     10  C   UNL d   1     -42.032-121.941 -55.251  0.00  0.00     0.000 A 
ATOM     11  C   UNL d   1     -41.672-122.655 -55.455  0.00  0.00     0.002 A 
ATOM     12  C   UNL d   1     -42.259-121.476 -55.828  0.00  0.00     0.000 C 
ENDROOT
BRANCH   3  13
ATOM     13  C   UNL d   1     -41.822-122.437 -51.701  0.00  0.00     0.006 C 
BRANCH  13  14
ATOM     14  C   UNL d   1     -41.961-122.658 -50.919  0.00  0.00     0.042 C 
BRANCH  14  15
ATOM     15  C   UNL d   1     -42.387-122.346 -50.295  0.00  0.00     0.196 C 
ATOM     16  O   UNL d   1     -42.814-121.645 -50.395  0.00  0.00    -0.287 OA
BRANCH  15  17
ATOM     17  C   UNL d   1     -42.399-122.717 -49.569  0.00  0.00     0.039 A 
ATOM     18  C   UNL d   1     -43.100-123.015 -49.256  0.00  0.00     0.003 A 
ATOM     19  C   UNL d   1     -43.089-123.387 -48.520  0.00  0.00     0.000 A 
ATOM     20  C   UNL d   1     -42.385-123.465 -48.091  0.00  0.00     0.000 A 
ATOM     21  C   UNL d   1     -41.690-123.171 -48.399  0.00  0.00     0.000 A 
ATOM     22  C   UNL d   1     -41.698-122.795 -49.141  0.00  0.00     0.003 A 
ENDBRANCH  15  17
ENDBRANCH  14  15
ENDBRANCH  13  14
ENDBRANCH   3  13
TORSDOF 4
ENDMDL
