MODEL 1
REMARK VINA RESULT:      -7.0      0.000      0.000
REMARK  6 active torsions:
REMARK  status: ('A' for Active; 'I' for Inactive)
REMARK    1  A    between atoms: C_3  and  C_1 
REMARK    2  A    between atoms: N_9  and  C_3 
REMARK    3  A    between atoms: C_13  and  C_3 
REMARK    4  A    between atoms: N_4  and  C_10 
REMARK    5  A    between atoms: C_19  and  C_8 
REMARK    6  A    between atoms: C_15  and  N_9 
ROOT
ATOM      1  C   UNL d   1     -49.106  13.227  22.939  0.00  0.00     0.125 C 
ENDROOT
BRANCH   1   2
ATOM      2  C   UNL d   1     -49.206  14.061  22.937  0.00  0.00     0.161 A 
ATOM      3  C   UNL d   1     -49.849  14.405  23.302  0.00  0.00     0.258 A 
ATOM      4  C   UNL d   1     -49.937  15.233  23.293  0.00  0.00     0.238 A 
ATOM      5  O   UNL d   1     -50.430  13.936  23.691  0.00  0.00    -0.281 OA
ATOM      6  O   UNL d   1     -50.580  15.577  23.658  0.00  0.00    -0.283 OA
ATOM      7  C   UNL d   1     -49.375  15.704  22.914  0.00  0.00     0.073 A 
ATOM      8  C   UNL d   1     -48.731  15.359  22.549  0.00  0.00     0.146 A 
ATOM      9  O   UNL d   1     -48.641  14.539  22.556  0.00  0.00    -0.299 OA
BRANCH   8  10
ATOM     10  C   UNL d   1     -48.167  15.837  22.169  0.00  0.00     0.259 C 
ATOM     11  O   UNL d   1     -47.365  15.753  22.325  0.00  0.00    -0.281 OA
ENDBRANCH   8  10
ENDBRANCH   1   2
BRANCH   1  12
ATOM     12  N   UNL d   1     -48.805  12.844  23.594  0.00  0.00    -0.242 NA
BRANCH  12  13
ATOM     13  C   UNL d   1     -48.076  12.489  23.567  0.00  0.00     0.083 A 
ATOM     14  C   UNL d   1     -47.398  12.954  23.444  0.00  0.00     0.043 A 
ATOM     15  C   UNL d   1     -46.650  12.600  23.416  0.00  0.00     0.128 A 
ATOM     16  C   UNL d   1     -46.577  11.792  23.508  0.00  0.00     0.024 A 
ATOM     17  C   UNL d   1     -47.252  11.327  23.631  0.00  0.00     0.003 A 
ATOM     18  C   UNL d   1     -48.004  11.681  23.660  0.00  0.00     0.019 A 
BRANCH  15  19
ATOM     19  N   UNL d   1     -45.971  13.053  23.294  0.00  0.00    -0.114 N 
ATOM     20  O   UNL d   1     -45.809  13.767  23.696  0.00  0.00    -0.532 OA
ATOM     21  O   UNL d   1     -45.374  12.860  22.767  0.00  0.00    -0.532 OA
ENDBRANCH  15  19
ENDBRANCH  12  13
ENDBRANCH   1  12
BRANCH   1  22
ATOM     22  C   UNL d   1     -49.315  12.793  22.265  0.00  0.00     0.101 A 
ATOM     23  N   UNL d   1     -48.949  12.950  21.536  0.00  0.00    -0.242 NA
ATOM     24  C   UNL d   1     -49.159  12.516  20.866  0.00  0.00     0.099 A 
ATOM     25  C   UNL d   1     -49.727  11.932  20.918  0.00  0.00     0.021 A 
ATOM     26  C   UNL d   1     -50.079  11.787  21.639  0.00  0.00     0.003 A 
ATOM     27  C   UNL d   1     -49.881  12.206  22.303  0.00  0.00     0.021 A 
ENDBRANCH   1  22
TORSDOF 6
ENDMDL
MODEL 2
REMARK VINA RESULT:      -6.3      1.580      3.809
REMARK  6 active torsions:
REMARK  status: ('A' for Active; 'I' for Inactive)
REMARK    1  A    between atoms: C_3  and  C_1 
REMARK    2  A    between atoms: N_9  and  C_3 
REMARK    3  A    between atoms: C_13  and  C_3 
REMARK    4  A    between atoms: N_4  and  C_10 
REMARK    5  A    between atoms: C_19  and  C_8 
REMARK    6  A    between atoms: C_15  and  N_9 
ROOT
ATOM      1  C   UNL d   1     -47.506  13.299  22.774  0.00  0.00     0.125 C 
ENDROOT
BRANCH   1   2
ATOM      2  C   UNL d   1     -48.063  12.745  22.477  0.00  0.00     0.161 A 
ATOM      3  C   UNL d   1     -48.296  12.104  22.925  0.00  0.00     0.258 A 
ATOM      4  C   UNL d   1     -48.848  11.563  22.618  0.00  0.00     0.238 A 
ATOM      5  O   UNL d   1     -47.987  11.980  23.698  0.00  0.00    -0.281 OA
ATOM      6  O   UNL d   1     -49.082  10.923  23.067  0.00  0.00    -0.283 OA
ATOM      7  C   UNL d   1     -49.159  11.674  21.862  0.00  0.00     0.073 A 
ATOM      8  C   UNL d   1     -48.926  12.314  21.413  0.00  0.00     0.146 A 
ATOM      9  O   UNL d   1     -48.379  12.853  21.714  0.00  0.00    -0.299 OA
BRANCH   8  10
ATOM     10  C   UNL d   1     -49.241  12.423  20.651  0.00  0.00     0.259 C 
ATOM     11  O   UNL d   1     -49.812  12.994  20.506  0.00  0.00    -0.281 OA
ENDBRANCH   8  10
ENDBRANCH   1   2
BRANCH   1  12
ATOM     12  N   UNL d   1     -47.738  13.890  23.286  0.00  0.00    -0.242 NA
BRANCH  12  13
ATOM     13  C   UNL d   1     -48.154  14.533  23.016  0.00  0.00     0.083 A 
ATOM     14  C   UNL d   1     -48.956  14.614  23.216  0.00  0.00     0.043 A 
ATOM     15  C   UNL d   1     -49.389  15.267  22.944  0.00  0.00     0.128 A 
ATOM     16  C   UNL d   1     -49.026  15.832  22.479  0.00  0.00     0.024 A 
ATOM     17  C   UNL d   1     -48.226  15.751  22.279  0.00  0.00     0.003 A 
ATOM     18  C   UNL d   1     -47.791  15.097  22.551  0.00  0.00     0.019 A 
BRANCH  15  19
ATOM     19  N   UNL d   1     -50.187  15.357  23.137  0.00  0.00    -0.114 N 
ATOM     20  O   UNL d   1     -50.692  15.920  22.782  0.00  0.00    -0.532 OA
ATOM     21  O   UNL d   1     -50.581  14.908  23.698  0.00  0.00    -0.532 OA
ENDBRANCH  15  19
ENDBRANCH  12  13
ENDBRANCH   1  12
BRANCH   1  22
ATOM     22  C   UNL d   1     -46.713  13.240  22.542  0.00  0.00     0.101 A 
ATOM     23  N   UNL d   1     -46.146  12.930  23.066  0.00  0.00    -0.242 NA
ATOM     24  C   UNL d   1     -45.357  12.872  22.833  0.00  0.00     0.099 A 
ATOM     25  C   UNL d   1     -45.130  13.118  22.088  0.00  0.00     0.021 A 
ATOM     26  C   UNL d   1     -45.696  13.420  21.583  0.00  0.00     0.003 A 
ATOM     27  C   UNL d   1     -46.473  13.482  21.800  0.00  0.00     0.021 A 
ENDBRANCH   1  22
TORSDOF 6
ENDMDL
MODEL 3
REMARK VINA RESULT:      -4.9      1.389      1.983
REMARK  6 active torsions:
REMARK  status: ('A' for Active; 'I' for Inactive)
REMARK    1  A    between atoms: C_3  and  C_1 
REMARK    2  A    between atoms: N_9  and  C_3 
REMARK    3  A    between atoms: C_13  and  C_3 
REMARK    4  A    between atoms: N_4  and  C_10 
REMARK    5  A    between atoms: C_19  and  C_8 
REMARK    6  A    between atoms: C_15  and  N_9 
ROOT
ATOM      1  C   UNL d   1     -48.232  13.311  23.041  0.00  0.00     0.125 C 
ENDROOT
BRANCH   1   2
ATOM      2  C   UNL d   1     -48.709  13.871  22.636  0.00  0.00     0.161 A 
ATOM      3  C   UNL d   1     -48.850  14.608  22.955  0.00  0.00     0.258 A 
ATOM      4  C   UNL d   1     -49.324  15.154  22.543  0.00  0.00     0.238 A 
ATOM      5  O   UNL d   1     -48.521  14.830  23.698  0.00  0.00    -0.281 OA
ATOM      6  O   UNL d   1     -49.465  15.892  22.863  0.00  0.00    -0.283 OA
ATOM      7  C   UNL d   1     -49.653  14.949  21.814  0.00  0.00     0.073 A 
ATOM      8  C   UNL d   1     -49.512  14.211  21.495  0.00  0.00     0.146 A 
ATOM      9  O   UNL d   1     -49.042  13.668  21.900  0.00  0.00    -0.299 OA
BRANCH   8  10
ATOM     10  C   UNL d   1     -49.844  14.008  20.761  0.00  0.00     0.259 C 
ATOM     11  O   UNL d   1     -50.242  13.298  20.656  0.00  0.00    -0.281 OA
ENDBRANCH   8  10
ENDBRANCH   1   2
BRANCH   1  12
ATOM     12  N   UNL d   1     -47.542  13.539  23.410  0.00  0.00    -0.242 NA
BRANCH  12  13
ATOM     13  C   UNL d   1     -46.829  13.486  23.024  0.00  0.00     0.083 A 
ATOM     14  C   UNL d   1     -46.339  12.829  23.160  0.00  0.00     0.043 A 
ATOM     15  C   UNL d   1     -45.610  12.766  22.771  0.00  0.00     0.128 A 
ATOM     16  C   UNL d   1     -45.372  13.350  22.254  0.00  0.00     0.024 A 
ATOM     17  C   UNL d   1     -45.859  14.007  22.118  0.00  0.00     0.003 A 
ATOM     18  C   UNL d   1     -46.591  14.071  22.508  0.00  0.00     0.019 A 
BRANCH  15  19
ATOM     19  N   UNL d   1     -45.116  12.117  22.899  0.00  0.00    -0.114 N 
ATOM     20  O   UNL d   1     -45.181  11.602  23.554  0.00  0.00    -0.532 OA
ATOM     21  O   UNL d   1     -44.503  11.896  22.401  0.00  0.00    -0.532 OA
ENDBRANCH  15  19
ENDBRANCH  12  13
ENDBRANCH   1  12
BRANCH   1  22
ATOM     22  C   UNL d   1     -48.471  12.517  23.062  0.00  0.00     0.101 A 
ATOM     23  N   UNL d   1     -48.263  12.001  22.444  0.00  0.00    -0.242 NA
ATOM     24  C   UNL d   1     -48.501  11.211  22.468  0.00  0.00     0.099 A 
ATOM     25  C   UNL d   1     -48.940  10.935  23.097  0.00  0.00     0.021 A 
ATOM     26  C   UNL d   1     -49.138  11.451  23.698  0.00  0.00     0.003 A 
ATOM     27  C   UNL d   1     -48.910  12.227  23.686  0.00  0.00     0.021 A 
ENDBRANCH   1  22
TORSDOF 6
ENDMDL
