MODEL 1
REMARK VINA RESULT:      17.0      0.000      0.000
REMARK  5 active torsions:
REMARK  status: ('A' for Active; 'I' for Inactive)
REMARK    1  A    between atoms: C_3  and  C_1 
REMARK    2  A    between atoms: C_2  and  C_3 
REMARK       I    between atoms: N_4  and  C_2 
REMARK    3  A    between atoms: C_10  and  C_8 
REMARK    4  A    between atoms: O_16  and  C_10 
REMARK    5  A    between atoms: C_21  and  O_16 
ROOT
ATOM      1  C   UNL d   1      45.568 -16.560  43.949  0.00  0.00     0.304 C 
ATOM      2  N   UNL d   1      45.704 -15.795  44.212  0.00  0.00    -0.269 N 
ATOM      3  C   UNL d   1      45.321 -14.420  44.269  0.00  0.00     0.081 A 
ATOM      4  C   UNL d   1      45.186 -15.191  44.004  0.00  0.00     0.088 A 
ATOM      5  O   UNL d   1      44.916 -16.722  43.478  0.00  0.00    -0.263 OA
ATOM      6  C   UNL d   1      46.354 -15.635  44.681  0.00  0.00     0.083 A 
ATOM      7  C   UNL d   1      45.975 -14.252  44.741  0.00  0.00     0.008 A 
ATOM      8  C   UNL d   1      46.495 -14.858  44.950  0.00  0.00     0.019 A 
ENDROOT
BRANCH   1   9
ATOM      9  C   UNL d   1      46.091 -17.170  44.159  0.00  0.00     0.253 C 
ATOM     10  O   UNL d   1      46.460 -17.156  44.895  0.00  0.00    -0.281 OA
BRANCH   9  11
ATOM     11  C   UNL d   1      46.236 -17.781  43.633  0.00  0.00     0.064 A 
ATOM     12  C   UNL d   1      46.312 -17.724  42.814  0.00  0.00     0.102 A 
ATOM     13  N   UNL d   1      46.455 -18.471  42.506  0.00  0.00    -0.244 NA
ATOM     14  C   UNL d   1      46.469 -19.001  43.135  0.00  0.00     0.082 A 
ATOM     15  C   UNL d   1      46.335 -18.577  43.831  0.00  0.00     0.022 A 
ATOM     16  C   UNL d   1      46.587 -19.814  43.167  0.00  0.00     0.019 A 
ATOM     17  C   UNL d   1      46.318 -18.966  44.553  0.00  0.00     0.002 A 
ATOM     18  C   UNL d   1      46.438 -19.788  44.583  0.00  0.00     0.000 A 
ATOM     19  C   UNL d   1      46.571 -20.203  43.889  0.00  0.00     0.002 A 
ENDBRANCH   9  11
ENDBRANCH   1   9
BRANCH   3  20
ATOM     20  C   UNL d   1      44.804 -13.810  44.062  0.00  0.00     0.302 C 
ATOM     21  O   UNL d   1      44.011 -13.861  44.258  0.00  0.00    -0.259 OA
BRANCH  20  22
ATOM     22  O   UNL d   1      45.088 -13.158  43.663  0.00  0.00    -0.271 OA
BRANCH  22  23
ATOM     23  C   UNL d   1      44.595 -12.749  43.136  0.00  0.00     0.126 C 
ATOM     24  C   UNL d   1      44.891 -12.081  42.740  0.00  0.00     0.029 C 
ENDBRANCH  22  23
ENDBRANCH  20  22
ENDBRANCH   3  20
TORSDOF 5
ENDMDL
