MODEL 1
REMARK VINA RESULT:      -3.9      0.000      0.000
REMARK  2 active torsions:
REMARK  status: ('A' for Active; 'I' for Inactive)
REMARK    1  A    between atoms: C_6  and  N_1 
REMARK    2  A    between atoms: C_7  and  C_6 
ROOT
ATOM      1  N   UNL d   1      57.552   0.057  31.913  0.00  0.00    -0.268 N 
ATOM      2  C   UNL d   1      57.009  -0.779  31.537  0.00  0.00     0.265 A 
ATOM      3  C   UNL d   1      57.244   0.147  32.650  0.00  0.00     0.067 A 
ATOM      4  C   UNL d   1      56.524  -0.962  32.151  0.00  0.00     0.058 A 
ATOM      5  C   UNL d   1      56.670  -0.439  32.754  0.00  0.00     0.021 A 
ATOM      6  O   UNL d   1      56.985  -1.224  30.833  0.00  0.00    -0.267 OA
ATOM      7  C   UNL d   1      56.253  -0.488  33.464  0.00  0.00     0.002 A 
ATOM      8  C   UNL d   1      57.397   0.682  33.258  0.00  0.00     0.018 A 
ATOM      9  C   UNL d   1      55.948  -1.552  32.253  0.00  0.00     0.005 A 
ATOM     10  C   UNL d   1      56.980   0.633  33.969  0.00  0.00     0.002 A 
ATOM     11  C   UNL d   1      55.531  -1.601  32.964  0.00  0.00     0.000 A 
ATOM     12  C   UNL d   1      55.687  -1.061  33.578  0.00  0.00     0.000 A 
ATOM     13  C   UNL d   1      56.406   0.048  34.077  0.00  0.00     0.000 A 
ENDROOT
BRANCH   1  14
ATOM     14  C   UNL d   1      58.149   0.570  31.641  0.00  0.00     0.154 C 
BRANCH  14  15
ATOM     15  C   UNL d   1      58.417   0.482  30.860  0.00  0.00     0.230 C 
ATOM     16  O   UNL d   1      57.907   0.681  30.260  0.00  0.00    -0.643 OA
ATOM     17  O   UNL d   1      59.155   0.209  30.698  0.00  0.00    -0.643 OA
ENDBRANCH  14  15
ENDBRANCH   1  14
TORSDOF 2
ENDMDL
MODEL 2
REMARK VINA RESULT:      -3.8      0.732      1.898
REMARK  2 active torsions:
REMARK  status: ('A' for Active; 'I' for Inactive)
REMARK    1  A    between atoms: C_6  and  N_1 
REMARK    2  A    between atoms: C_7  and  C_6 
ROOT
ATOM      1  N   UNL d   1      57.280  -0.545  31.687  0.00  0.00    -0.268 N 
ATOM      2  C   UNL d   1      57.782   0.194  32.266  0.00  0.00     0.265 A 
ATOM      3  C   UNL d   1      56.668  -0.754  32.164  0.00  0.00     0.067 A 
ATOM      4  C   UNL d   1      57.333   0.228  32.932  0.00  0.00     0.058 A 
ATOM      5  C   UNL d   1      56.724  -0.303  32.854  0.00  0.00     0.021 A 
ATOM      6  O   UNL d   1      58.453   0.681  32.184  0.00  0.00    -0.267 OA
ATOM      7  C   UNL d   1      56.167  -0.395  33.455  0.00  0.00     0.002 A 
ATOM      8  C   UNL d   1      56.052  -1.295  32.077  0.00  0.00     0.018 A 
ATOM      9  C   UNL d   1      57.393   0.682  33.625  0.00  0.00     0.005 A 
ATOM     10  C   UNL d   1      55.494  -1.387  32.678  0.00  0.00     0.002 A 
ATOM     11  C   UNL d   1      56.835   0.590  34.226  0.00  0.00     0.000 A 
ATOM     12  C   UNL d   1      56.213   0.043  34.138  0.00  0.00     0.000 A 
ATOM     13  C   UNL d   1      55.547  -0.938  33.370  0.00  0.00     0.000 A 
ENDROOT
BRANCH   1  14
ATOM     14  C   UNL d   1      57.376  -0.907  30.941  0.00  0.00     0.154 C 
BRANCH  14  15
ATOM     15  C   UNL d   1      57.738  -0.469  30.337  0.00  0.00     0.230 C 
ATOM     16  O   UNL d   1      58.483  -0.691  30.100  0.00  0.00    -0.643 OA
ATOM     17  O   UNL d   1      57.368   0.157  29.993  0.00  0.00    -0.643 OA
ENDBRANCH  14  15
ENDBRANCH   1  14
TORSDOF 2
ENDMDL
MODEL 3
REMARK VINA RESULT:      -3.3      3.285      4.669
REMARK  2 active torsions:
REMARK  status: ('A' for Active; 'I' for Inactive)
REMARK    1  A    between atoms: C_6  and  N_1 
REMARK    2  A    between atoms: C_7  and  C_6 
ROOT
ATOM      1  N   UNL d   1      59.049  -0.738  29.536  0.00  0.00    -0.268 N 
ATOM      2  C   UNL d   1      58.505  -1.651  29.611  0.00  0.00     0.265 A 
ATOM      3  C   UNL d   1      59.731  -0.971  29.181  0.00  0.00     0.067 A 
ATOM      4  C   UNL d   1      59.010  -2.181  29.279  0.00  0.00     0.058 A 
ATOM      5  C   UNL d   1      59.679  -1.785  29.049  0.00  0.00     0.021 A 
ATOM      6  O   UNL d   1      57.765  -1.898  29.902  0.00  0.00    -0.267 OA
ATOM      7  C   UNL d   1      60.303  -2.186  28.688  0.00  0.00     0.002 A 
ATOM      8  C   UNL d   1      60.408  -0.561  28.949  0.00  0.00     0.018 A 
ATOM      9  C   UNL d   1      58.955  -3.000  29.148  0.00  0.00     0.005 A 
ATOM     10  C   UNL d   1      61.032  -0.962  28.588  0.00  0.00     0.002 A 
ATOM     11  C   UNL d   1      59.579  -3.401  28.787  0.00  0.00     0.000 A 
ATOM     12  C   UNL d   1      60.263  -2.987  28.554  0.00  0.00     0.000 A 
ATOM     13  C   UNL d   1      60.984  -1.776  28.455  0.00  0.00     0.000 A 
ENDROOT
BRANCH   1  14
ATOM     14  C   UNL d   1      58.932   0.061  29.742  0.00  0.00     0.154 C 
BRANCH  14  15
ATOM     15  C   UNL d   1      58.156   0.356  29.746  0.00  0.00     0.230 C 
ATOM     16  O   UNL d   1      57.785   0.438  30.464  0.00  0.00    -0.643 OA
ATOM     17  O   UNL d   1      57.780   0.556  29.064  0.00  0.00    -0.643 OA
ENDBRANCH  14  15
ENDBRANCH   1  14
TORSDOF 2
ENDMDL
MODEL 4
REMARK VINA RESULT:      -3.3      2.125      3.917
REMARK  2 active torsions:
REMARK  status: ('A' for Active; 'I' for Inactive)
REMARK    1  A    between atoms: C_6  and  N_1 
REMARK    2  A    between atoms: C_7  and  C_6 
ROOT
ATOM      1  N   UNL d   1      58.165  -0.002  30.313  0.00  0.00    -0.268 N 
ATOM      2  C   UNL d   1      57.938  -1.042  30.317  0.00  0.00     0.265 A 
ATOM      3  C   UNL d   1      58.742   0.048  29.755  0.00  0.00     0.067 A 
ATOM      4  C   UNL d   1      58.441  -1.332  29.760  0.00  0.00     0.058 A 
ATOM      5  C   UNL d   1      58.874  -0.713  29.464  0.00  0.00     0.021 A 
ATOM      6  O   UNL d   1      57.418  -1.552  30.722  0.00  0.00    -0.267 OA
ATOM      7  C   UNL d   1      59.441  -0.839  28.878  0.00  0.00     0.002 A 
ATOM      8  C   UNL d   1      59.178   0.682  29.459  0.00  0.00     0.018 A 
ATOM      9  C   UNL d   1      58.572  -2.099  29.469  0.00  0.00     0.005 A 
ATOM     10  C   UNL d   1      59.745   0.556  28.873  0.00  0.00     0.002 A 
ATOM     11  C   UNL d   1      59.139  -2.224  28.883  0.00  0.00     0.000 A 
ATOM     12  C   UNL d   1      59.580  -1.585  28.583  0.00  0.00     0.000 A 
ATOM     13  C   UNL d   1      59.881  -0.204  28.579  0.00  0.00     0.000 A 
ENDROOT
BRANCH   1  14
ATOM     14  C   UNL d   1      57.906   0.681  30.714  0.00  0.00     0.154 C 
BRANCH  14  15
ATOM     15  C   UNL d   1      57.436   0.585  31.391  0.00  0.00     0.230 C 
ATOM     16  O   UNL d   1      56.629   0.605  31.299  0.00  0.00    -0.643 OA
ATOM     17  O   UNL d   1      57.764   0.474  32.117  0.00  0.00    -0.643 OA
ENDBRANCH  14  15
ENDBRANCH   1  14
TORSDOF 2
ENDMDL
MODEL 5
REMARK VINA RESULT:      -3.0      3.290      4.709
REMARK  2 active torsions:
REMARK  status: ('A' for Active; 'I' for Inactive)
REMARK    1  A    between atoms: C_6  and  N_1 
REMARK    2  A    between atoms: C_7  and  C_6 
ROOT
ATOM      1  N   UNL d   1      59.624  -1.891  28.895  0.00  0.00    -0.268 N 
ATOM      2  C   UNL d   1      58.725  -1.782  29.456  0.00  0.00     0.265 A 
ATOM      3  C   UNL d   1      59.878  -1.131  28.824  0.00  0.00     0.067 A 
ATOM      4  C   UNL d   1      58.686  -0.987  29.569  0.00  0.00     0.058 A 
ATOM      5  C   UNL d   1      59.331  -0.648  29.212  0.00  0.00     0.021 A 
ATOM      6  O   UNL d   1      58.133  -2.281  29.763  0.00  0.00    -0.267 OA
ATOM      7  C   UNL d   1      59.443   0.169  29.233  0.00  0.00     0.002 A 
ATOM      8  C   UNL d   1      60.536  -0.794  28.459  0.00  0.00     0.018 A 
ATOM      9  C   UNL d   1      58.134  -0.503  29.959  0.00  0.00     0.005 A 
ATOM     10  C   UNL d   1      60.648   0.023  28.481  0.00  0.00     0.002 A 
ATOM     11  C   UNL d   1      58.247   0.314  29.980  0.00  0.00     0.000 A 
ATOM     12  C   UNL d   1      58.911   0.654  29.612  0.00  0.00     0.000 A 
ATOM     13  C   UNL d   1      60.104   0.510  28.867  0.00  0.00     0.000 A 
ENDROOT
BRANCH   1  14
ATOM     14  C   UNL d   1      60.062  -2.515  28.558  0.00  0.00     0.154 C 
BRANCH  14  15
ATOM     15  C   UNL d   1      60.014  -3.264  28.912  0.00  0.00     0.230 C 
ATOM     16  O   UNL d   1      59.528  -3.816  28.568  0.00  0.00    -0.643 OA
ATOM     17  O   UNL d   1      60.433  -3.442  29.575  0.00  0.00    -0.643 OA
ENDBRANCH  14  15
ENDBRANCH   1  14
TORSDOF 2
ENDMDL
MODEL 6
REMARK VINA RESULT:      -2.9      4.067      5.240
REMARK  2 active torsions:
REMARK  status: ('A' for Active; 'I' for Inactive)
REMARK    1  A    between atoms: C_6  and  N_1 
REMARK    2  A    between atoms: C_7  and  C_6 
ROOT
ATOM      1  N   UNL d   1      59.162  -1.486  28.700  0.00  0.00    -0.268 N 
ATOM      2  C   UNL d   1      60.177  -1.429  29.016  0.00  0.00     0.265 A 
ATOM      3  C   UNL d   1      59.036  -2.280  28.661  0.00  0.00     0.067 A 
ATOM      4  C   UNL d   1      60.383  -2.203  29.081  0.00  0.00     0.058 A 
ATOM      5  C   UNL d   1      59.739  -2.654  28.880  0.00  0.00     0.021 A 
ATOM      6  O   UNL d   1      60.729  -0.829  29.189  0.00  0.00    -0.267 OA
ATOM      7  C   UNL d   1      59.782  -3.478  28.894  0.00  0.00     0.002 A 
ATOM      8  C   UNL d   1      58.378  -2.732  28.455  0.00  0.00     0.018 A 
ATOM      9  C   UNL d   1      61.091  -2.577  29.302  0.00  0.00     0.005 A 
ATOM     10  C   UNL d   1      58.421  -3.555  28.469  0.00  0.00     0.002 A 
ATOM     11  C   UNL d   1      61.133  -3.401  29.315  0.00  0.00     0.000 A 
ATOM     12  C   UNL d   1      60.469  -3.858  29.108  0.00  0.00     0.000 A 
ATOM     13  C   UNL d   1      59.122  -3.934  28.688  0.00  0.00     0.000 A 
ENDROOT
BRANCH   1  14
ATOM     14  C   UNL d   1      58.550  -0.953  28.509  0.00  0.00     0.154 C 
BRANCH  14  15
ATOM     15  C   UNL d   1      58.540  -0.215  28.888  0.00  0.00     0.230 C 
ATOM     16  O   UNL d   1      58.778   0.434  28.461  0.00  0.00    -0.643 OA
ATOM     17  O   UNL d   1      58.304  -0.139  29.652  0.00  0.00    -0.643 OA
ENDBRANCH  14  15
ENDBRANCH   1  14
TORSDOF 2
ENDMDL
MODEL 7
REMARK VINA RESULT:      -2.8      9.677     10.103
REMARK  2 active torsions:
REMARK  status: ('A' for Active; 'I' for Inactive)
REMARK    1  A    between atoms: C_6  and  N_1 
REMARK    2  A    between atoms: C_7  and  C_6 
ROOT
ATOM      1  N   UNL d   1      59.914  -9.810  33.398  0.00  0.00    -0.268 N 
ATOM      2  C   UNL d   1      58.851  -9.811  33.465  0.00  0.00     0.265 A 
ATOM      3  C   UNL d   1      60.038  -9.811  32.604  0.00  0.00     0.067 A 
ATOM      4  C   UNL d   1      58.628  -9.813  32.692  0.00  0.00     0.058 A 
ATOM      5  C   UNL d   1      59.299  -9.813  32.236  0.00  0.00     0.021 A 
ATOM      6  O   UNL d   1      58.277  -9.810  34.069  0.00  0.00    -0.267 OA
ATOM      7  C   UNL d   1      59.247  -9.815  31.412  0.00  0.00     0.002 A 
ATOM      8  C   UNL d   1      60.724  -9.811  32.146  0.00  0.00     0.018 A 
ATOM      9  C   UNL d   1      57.884  -9.815  32.324  0.00  0.00     0.005 A 
ATOM     10  C   UNL d   1      60.673  -9.813  31.323  0.00  0.00     0.002 A 
ATOM     11  C   UNL d   1      57.832  -9.817  31.501  0.00  0.00     0.000 A 
ATOM     12  C   UNL d   1      58.525  -9.817  31.039  0.00  0.00     0.000 A 
ATOM     13  C   UNL d   1      59.935  -9.815  30.950  0.00  0.00     0.000 A 
ENDROOT
BRANCH   1  14
ATOM     14  C   UNL d   1      60.559  -9.808  33.926  0.00  0.00     0.154 C 
BRANCH  14  15
ATOM     15  C   UNL d   1      60.550  -9.267  34.555  0.00  0.00     0.230 C 
ATOM     16  O   UNL d   1      60.557  -9.563  35.311  0.00  0.00    -0.643 OA
ATOM     17  O   UNL d   1      60.533  -8.473  34.426  0.00  0.00    -0.643 OA
ENDBRANCH  14  15
ENDBRANCH   1  14
TORSDOF 2
ENDMDL
MODEL 8
REMARK VINA RESULT:      -2.7      8.435      9.029
REMARK  2 active torsions:
REMARK  status: ('A' for Active; 'I' for Inactive)
REMARK    1  A    between atoms: C_6  and  N_1 
REMARK    2  A    between atoms: C_7  and  C_6 
ROOT
ATOM      1  N   UNL d   1      60.019  -7.316  35.880  0.00  0.00    -0.268 N 
ATOM      2  C   UNL d   1      59.208  -7.428  35.199  0.00  0.00     0.265 A 
ATOM      3  C   UNL d   1      60.322  -8.060  35.914  0.00  0.00     0.067 A 
ATOM      4  C   UNL d   1      59.245  -8.209  35.010  0.00  0.00     0.058 A 
ATOM      5  C   UNL d   1      59.867  -8.537  35.416  0.00  0.00     0.021 A 
ATOM      6  O   UNL d   1      58.620  -6.942  34.864  0.00  0.00    -0.267 OA
ATOM      7  C   UNL d   1      60.046  -9.338  35.335  0.00  0.00     0.002 A 
ATOM      8  C   UNL d   1      60.954  -8.387  36.329  0.00  0.00     0.018 A 
ATOM      9  C   UNL d   1      58.787  -8.687  34.509  0.00  0.00     0.005 A 
ATOM     10  C   UNL d   1      61.133  -9.188  36.248  0.00  0.00     0.002 A 
ATOM     11  C   UNL d   1      58.966  -9.488  34.428  0.00  0.00     0.000 A 
ATOM     12  C   UNL d   1      59.605  -9.818  34.847  0.00  0.00     0.000 A 
ATOM     13  C   UNL d   1      60.681  -9.669  35.751  0.00  0.00     0.000 A 
ENDROOT
BRANCH   1  14
ATOM     14  C   UNL d   1      60.361  -6.701  36.326  0.00  0.00     0.154 C 
BRANCH  14  15
ATOM     15  C   UNL d   1      60.279  -5.923  36.049  0.00  0.00     0.230 C 
ATOM     16  O   UNL d   1      59.592  -5.527  36.225  0.00  0.00    -0.643 OA
ATOM     17  O   UNL d   1      60.859  -5.567  35.621  0.00  0.00    -0.643 OA
ENDBRANCH  14  15
ENDBRANCH   1  14
TORSDOF 2
ENDMDL
MODEL 9
REMARK VINA RESULT:      -2.6      1.901      4.059
REMARK  2 active torsions:
REMARK  status: ('A' for Active; 'I' for Inactive)
REMARK    1  A    between atoms: C_6  and  N_1 
REMARK    2  A    between atoms: C_7  and  C_6 
ROOT
ATOM      1  N   UNL d   1      58.472   0.451  30.767  0.00  0.00    -0.268 N 
ATOM      2  C   UNL d   1      58.271   0.393  29.723  0.00  0.00     0.265 A 
ATOM      3  C   UNL d   1      59.272   0.531  30.786  0.00  0.00     0.067 A 
ATOM      4  C   UNL d   1      59.005   0.454  29.401  0.00  0.00     0.058 A 
ATOM      5  C   UNL d   1      59.541   0.529  30.005  0.00  0.00     0.021 A 
ATOM      6  O   UNL d   1      57.601   0.308  29.234  0.00  0.00    -0.267 OA
ATOM      7  C   UNL d   1      60.347   0.604  29.846  0.00  0.00     0.002 A 
ATOM      8  C   UNL d   1      59.811   0.607  31.405  0.00  0.00     0.018 A 
ATOM      9  C   UNL d   1      59.273   0.452  28.615  0.00  0.00     0.005 A 
ATOM     10  C   UNL d   1      60.617   0.682  31.246  0.00  0.00     0.002 A 
ATOM     11  C   UNL d   1      60.079   0.527  28.455  0.00  0.00     0.000 A 
ATOM     12  C   UNL d   1      60.624   0.604  29.080  0.00  0.00     0.000 A 
ATOM     13  C   UNL d   1      60.890   0.681  30.466  0.00  0.00     0.000 A 
ENDROOT
BRANCH   1  14
ATOM     14  C   UNL d   1      58.033   0.433  31.476  0.00  0.00     0.154 C 
BRANCH  14  15
ATOM     15  C   UNL d   1      57.265   0.120  31.454  0.00  0.00     0.230 C 
ATOM     16  O   UNL d   1      56.642   0.641  31.476  0.00  0.00    -0.643 OA
ATOM     17  O   UNL d   1      57.136  -0.672  31.413  0.00  0.00    -0.643 OA
ENDBRANCH  14  15
ENDBRANCH   1  14
TORSDOF 2
ENDMDL
