MODEL 1
REMARK VINA RESULT:      -2.4      0.000      0.000
REMARK  3 active torsions:
REMARK  status: ('A' for Active; 'I' for Inactive)
REMARK    1  A    between atoms: C_6  and  N_1 
REMARK    2  A    between atoms: C_7  and  C_6 
REMARK    3  A    between atoms: C_8  and  C_7 
ROOT
ATOM      1  N   UNL d   1      31.338  17.264 -24.527  0.00  0.00    -0.305 N 
ATOM      2  C   UNL d   1      31.760  17.942 -24.726  0.00  0.00     0.064 A 
ATOM      3  C   UNL d   1      31.701  16.481 -23.997  0.00  0.00     0.064 A 
ATOM      4  C   UNL d   1      32.423  17.655 -24.345  0.00  0.00     0.018 A 
ATOM      5  C   UNL d   1      32.400  16.922 -23.978  0.00  0.00     0.018 A 
ATOM      6  C   UNL d   1      31.664  15.752 -23.636  0.00  0.00     0.018 A 
ATOM      7  C   UNL d   1      31.784  18.682 -25.097  0.00  0.00     0.018 A 
ATOM      8  C   UNL d   1      33.124  18.103 -24.328  0.00  0.00     0.002 A 
ATOM      9  C   UNL d   1      33.062  16.627 -23.593  0.00  0.00     0.002 A 
ATOM     10  C   UNL d   1      33.026  15.886 -23.226  0.00  0.00     0.000 A 
ATOM     11  C   UNL d   1      32.477  19.134 -25.085  0.00  0.00     0.002 A 
ATOM     12  C   UNL d   1      32.327  15.453 -23.249  0.00  0.00     0.002 A 
ATOM     13  C   UNL d   1      33.148  18.835 -24.696  0.00  0.00     0.000 A 
ENDROOT
BRANCH   1  14
ATOM     14  C   UNL d   1      30.549  17.186 -24.764  0.00  0.00     0.086 C 
BRANCH  14  15
ATOM     15  C   UNL d   1      29.922  17.322 -24.244  0.00  0.00     0.089 C 
BRANCH  15  16
ATOM     16  C   UNL d   1      29.145  17.293 -24.526  0.00  0.00     0.213 C 
ATOM     17  O   UNL d   1      28.589  17.841 -24.254  0.00  0.00    -0.644 OA
ATOM     18  O   UNL d   1      28.924  16.721 -25.076  0.00  0.00    -0.644 OA
ENDBRANCH  15  16
ENDBRANCH  14  15
ENDBRANCH   1  14
TORSDOF 3
ENDMDL
MODEL 2
REMARK VINA RESULT:      -2.4      1.744      3.255
REMARK  3 active torsions:
REMARK  status: ('A' for Active; 'I' for Inactive)
REMARK    1  A    between atoms: C_6  and  N_1 
REMARK    2  A    between atoms: C_7  and  C_6 
REMARK    3  A    between atoms: C_8  and  C_7 
ROOT
ATOM      1  N   UNL d   1      31.736  17.546 -24.315  0.00  0.00    -0.305 N 
ATOM      2  C   UNL d   1      32.071  16.916 -23.905  0.00  0.00     0.064 A 
ATOM      3  C   UNL d   1      30.760  17.627 -24.571  0.00  0.00     0.064 A 
ATOM      4  C   UNL d   1      31.345  16.542 -23.864  0.00  0.00     0.018 A 
ATOM      5  C   UNL d   1      30.684  16.894 -24.197  0.00  0.00     0.018 A 
ATOM      6  C   UNL d   1      30.111  17.987 -24.906  0.00  0.00     0.018 A 
ATOM      7  C   UNL d   1      32.738  16.560 -23.569  0.00  0.00     0.018 A 
ATOM      8  C   UNL d   1      31.274  15.805 -23.486  0.00  0.00     0.002 A 
ATOM      9  C   UNL d   1      29.951  16.525 -24.160  0.00  0.00     0.002 A 
ATOM     10  C   UNL d   1      29.291  16.890 -24.499  0.00  0.00     0.000 A 
ATOM     11  C   UNL d   1      32.677  15.827 -23.191  0.00  0.00     0.002 A 
ATOM     12  C   UNL d   1      29.374  17.619 -24.870  0.00  0.00     0.002 A 
ATOM     13  C   UNL d   1      31.936  15.453 -23.153  0.00  0.00     0.000 A 
ENDROOT
BRANCH   1  14
ATOM     14  C   UNL d   1      32.210  18.182 -24.551  0.00  0.00     0.086 C 
BRANCH  14  15
ATOM     15  C   UNL d   1      32.483  18.745 -24.013  0.00  0.00     0.089 C 
BRANCH  15  16
ATOM     16  C   UNL d   1      32.905  19.401 -24.287  0.00  0.00     0.213 C 
ATOM     17  O   UNL d   1      33.237  19.932 -23.747  0.00  0.00    -0.644 OA
ATOM     18  O   UNL d   1      32.996  19.526 -25.097  0.00  0.00    -0.644 OA
ENDBRANCH  15  16
ENDBRANCH  14  15
ENDBRANCH   1  14
TORSDOF 3
ENDMDL
MODEL 3
REMARK VINA RESULT:      -2.3      4.732      5.797
REMARK  3 active torsions:
REMARK  status: ('A' for Active; 'I' for Inactive)
REMARK    1  A    between atoms: C_6  and  N_1 
REMARK    2  A    between atoms: C_7  and  C_6 
REMARK    3  A    between atoms: C_8  and  C_7 
ROOT
ATOM      1  N   UNL d   1      33.025  21.675 -22.110  0.00  0.00    -0.305 N 
ATOM      2  C   UNL d   1      33.065  22.160 -22.775  0.00  0.00     0.064 A 
ATOM      3  C   UNL d   1      32.725  21.967 -21.189  0.00  0.00     0.064 A 
ATOM      4  C   UNL d   1      32.796  22.798 -22.340  0.00  0.00     0.018 A 
ATOM      5  C   UNL d   1      32.624  22.707 -21.543  0.00  0.00     0.018 A 
ATOM      6  C   UNL d   1      32.557  21.864 -20.399  0.00  0.00     0.018 A 
ATOM      7  C   UNL d   1      33.239  22.252 -23.579  0.00  0.00     0.018 A 
ATOM      8  C   UNL d   1      32.697  23.540 -22.702  0.00  0.00     0.002 A 
ATOM      9  C   UNL d   1      32.354  23.343 -21.100  0.00  0.00     0.002 A 
ATOM     10  C   UNL d   1      32.183  23.239 -20.297  0.00  0.00     0.000 A 
ATOM     11  C   UNL d   1      33.143  22.986 -23.947  0.00  0.00     0.002 A 
ATOM     12  C   UNL d   1      32.286  22.500 -19.950  0.00  0.00     0.002 A 
ATOM     13  C   UNL d   1      32.869  23.630 -23.498  0.00  0.00     0.000 A 
ENDROOT
BRANCH   1  14
ATOM     14  C   UNL d   1      33.241  20.879 -22.168  0.00  0.00     0.086 C 
BRANCH  14  15
ATOM     15  C   UNL d   1      32.682  20.273 -22.138  0.00  0.00     0.089 C 
BRANCH  15  16
ATOM     16  C   UNL d   1      32.917  19.493 -22.282  0.00  0.00     0.213 C 
ATOM     17  O   UNL d   1      32.868  19.183 -23.048  0.00  0.00    -0.644 OA
ATOM     18  O   UNL d   1      33.201  19.024 -21.666  0.00  0.00    -0.644 OA
ENDBRANCH  15  16
ENDBRANCH  14  15
ENDBRANCH   1  14
TORSDOF 3
ENDMDL
MODEL 4
REMARK VINA RESULT:      -2.2      1.828      2.793
REMARK  3 active torsions:
REMARK  status: ('A' for Active; 'I' for Inactive)
REMARK    1  A    between atoms: C_6  and  N_1 
REMARK    2  A    between atoms: C_7  and  C_6 
REMARK    3  A    between atoms: C_8  and  C_7 
ROOT
ATOM      1  N   UNL d   1      31.990  17.664 -24.224  0.00  0.00    -0.305 N 
ATOM      2  C   UNL d   1      31.193  17.582 -24.412  0.00  0.00     0.064 A 
ATOM      3  C   UNL d   1      32.557  16.966 -23.758  0.00  0.00     0.064 A 
ATOM      4  C   UNL d   1      31.180  16.833 -24.087  0.00  0.00     0.018 A 
ATOM      5  C   UNL d   1      31.862  16.518 -23.757  0.00  0.00     0.018 A 
ATOM      6  C   UNL d   1      33.240  16.665 -23.433  0.00  0.00     0.018 A 
ATOM      7  C   UNL d   1      30.505  17.900 -24.745  0.00  0.00     0.018 A 
ATOM      8  C   UNL d   1      30.478  16.387 -24.088  0.00  0.00     0.002 A 
ATOM      9  C   UNL d   1      31.857  15.766 -23.428  0.00  0.00     0.002 A 
ATOM     10  C   UNL d   1      32.551  15.460 -23.098  0.00  0.00     0.000 A 
ATOM     11  C   UNL d   1      29.802  17.463 -24.751  0.00  0.00     0.002 A 
ATOM     12  C   UNL d   1      33.239  15.910 -23.102  0.00  0.00     0.002 A 
ATOM     13  C   UNL d   1      29.797  16.702 -24.418  0.00  0.00     0.000 A 
ENDROOT
BRANCH   1  14
ATOM     14  C   UNL d   1      32.390  18.362 -24.417  0.00  0.00     0.086 C 
BRANCH  14  15
ATOM     15  C   UNL d   1      32.680  18.872 -23.838  0.00  0.00     0.089 C 
BRANCH  15  16
ATOM     16  C   UNL d   1      33.018  19.594 -24.062  0.00  0.00     0.213 C 
ATOM     17  O   UNL d   1      33.133  20.187 -23.497  0.00  0.00    -0.644 OA
ATOM     18  O   UNL d   1      33.241  19.722 -24.845  0.00  0.00    -0.644 OA
ENDBRANCH  15  16
ENDBRANCH  14  15
ENDBRANCH   1  14
TORSDOF 3
ENDMDL
MODEL 5
REMARK VINA RESULT:      -2.2      4.602      6.014
REMARK  3 active torsions:
REMARK  status: ('A' for Active; 'I' for Inactive)
REMARK    1  A    between atoms: C_6  and  N_1 
REMARK    2  A    between atoms: C_7  and  C_6 
REMARK    3  A    between atoms: C_8  and  C_7 
ROOT
ATOM      1  N   UNL d   1      33.230  21.855 -21.977  0.00  0.00    -0.305 N 
ATOM      2  C   UNL d   1      33.232  21.032 -21.947  0.00  0.00     0.064 A 
ATOM      3  C   UNL d   1      33.233  22.411 -22.822  0.00  0.00     0.064 A 
ATOM      4  C   UNL d   1      33.236  20.992 -22.764  0.00  0.00     0.018 A 
ATOM      5  C   UNL d   1      33.237  21.681 -23.208  0.00  0.00     0.018 A 
ATOM      6  C   UNL d   1      33.233  23.103 -23.251  0.00  0.00     0.018 A 
ATOM      7  C   UNL d   1      33.232  20.336 -21.499  0.00  0.00     0.018 A 
ATOM      8  C   UNL d   1      33.240  20.253 -23.146  0.00  0.00     0.002 A 
ATOM      9  C   UNL d   1      33.241  21.648 -24.028  0.00  0.00     0.002 A 
ATOM     10  C   UNL d   1      33.241  22.351 -24.465  0.00  0.00     0.000 A 
ATOM     11  C   UNL d   1      33.236  19.598 -21.872  0.00  0.00     0.002 A 
ATOM     12  C   UNL d   1      33.237  23.074 -24.075  0.00  0.00     0.002 A 
ATOM     13  C   UNL d   1      33.240  19.564 -22.702  0.00  0.00     0.000 A 
ENDROOT
BRANCH   1  14
ATOM     14  C   UNL d   1      33.226  22.292 -21.274  0.00  0.00     0.086 C 
BRANCH  14  15
ATOM     15  C   UNL d   1      32.533  22.414 -20.842  0.00  0.00     0.089 C 
BRANCH  15  16
ATOM     16  C   UNL d   1      32.553  22.893 -20.167  0.00  0.00     0.213 C 
ATOM     17  O   UNL d   1      33.161  22.801 -19.615  0.00  0.00    -0.644 OA
ATOM     18  O   UNL d   1      31.968  23.461 -20.045  0.00  0.00    -0.644 OA
ENDBRANCH  15  16
ENDBRANCH  14  15
ENDBRANCH   1  14
TORSDOF 3
ENDMDL
MODEL 6
REMARK VINA RESULT:      -2.2      5.115      6.076
REMARK  3 active torsions:
REMARK  status: ('A' for Active; 'I' for Inactive)
REMARK    1  A    between atoms: C_6  and  N_1 
REMARK    2  A    between atoms: C_7  and  C_6 
REMARK    3  A    between atoms: C_8  and  C_7 
ROOT
ATOM      1  N   UNL d   1      33.231  22.359 -21.584  0.00  0.00    -0.305 N 
ATOM      2  C   UNL d   1      33.233  22.829 -22.260  0.00  0.00     0.064 A 
ATOM      3  C   UNL d   1      33.233  21.347 -21.573  0.00  0.00     0.064 A 
ATOM      4  C   UNL d   1      33.237  22.165 -22.736  0.00  0.00     0.018 A 
ATOM      5  C   UNL d   1      33.237  21.418 -22.397  0.00  0.00     0.018 A 
ATOM      6  C   UNL d   1      33.233  20.612 -21.224  0.00  0.00     0.018 A 
ATOM      7  C   UNL d   1      33.233  23.583 -22.603  0.00  0.00     0.018 A 
ATOM      8  C   UNL d   1      33.241  22.242 -23.564  0.00  0.00     0.002 A 
ATOM      9  C   UNL d   1      33.241  20.746 -22.868  0.00  0.00     0.002 A 
ATOM     10  C   UNL d   1      33.241  19.998 -22.514  0.00  0.00     0.000 A 
ATOM     11  C   UNL d   1      33.237  23.669 -23.425  0.00  0.00     0.002 A 
ATOM     12  C   UNL d   1      33.237  19.934 -21.694  0.00  0.00     0.002 A 
ATOM     13  C   UNL d   1      33.241  22.989 -23.903  0.00  0.00     0.000 A 
ENDROOT
BRANCH   1  14
ATOM     14  C   UNL d   1      33.226  22.714 -20.836  0.00  0.00     0.086 C 
BRANCH  14  15
ATOM     15  C   UNL d   1      32.560  22.694 -20.349  0.00  0.00     0.089 C 
BRANCH  15  16
ATOM     16  C   UNL d   1      32.599  23.024 -19.591  0.00  0.00     0.213 C 
ATOM     17  O   UNL d   1      32.145  23.691 -19.409  0.00  0.00    -0.644 OA
ATOM     18  O   UNL d   1      33.088  22.690 -19.018  0.00  0.00    -0.644 OA
ENDBRANCH  15  16
ENDBRANCH  14  15
ENDBRANCH   1  14
TORSDOF 3
ENDMDL
MODEL 7
REMARK VINA RESULT:      -2.2      3.272      4.130
REMARK  3 active torsions:
REMARK  status: ('A' for Active; 'I' for Inactive)
REMARK    1  A    between atoms: C_6  and  N_1 
REMARK    2  A    between atoms: C_7  and  C_6 
REMARK    3  A    between atoms: C_8  and  C_7 
ROOT
ATOM      1  N   UNL d   1      33.207  20.399 -22.726  0.00  0.00    -0.305 N 
ATOM      2  C   UNL d   1      33.215  20.798 -23.446  0.00  0.00     0.064 A 
ATOM      3  C   UNL d   1      33.213  19.393 -22.614  0.00  0.00     0.064 A 
ATOM      4  C   UNL d   1      33.226  20.089 -23.853  0.00  0.00     0.018 A 
ATOM      5  C   UNL d   1      33.225  19.381 -23.440  0.00  0.00     0.018 A 
ATOM      6  C   UNL d   1      33.212  18.696 -22.192  0.00  0.00     0.018 A 
ATOM      7  C   UNL d   1      33.216  21.514 -23.863  0.00  0.00     0.018 A 
ATOM      8  C   UNL d   1      33.239  20.083 -24.684  0.00  0.00     0.002 A 
ATOM      9  C   UNL d   1      33.237  18.664 -23.842  0.00  0.00     0.002 A 
ATOM     10  C   UNL d   1      33.236  17.956 -23.414  0.00  0.00     0.000 A 
ATOM     11  C   UNL d   1      33.228  21.517 -24.690  0.00  0.00     0.002 A 
ATOM     12  C   UNL d   1      33.223  17.975 -22.592  0.00  0.00     0.002 A 
ATOM     13  C   UNL d   1      33.239  20.792 -25.096  0.00  0.00     0.000 A 
ENDROOT
BRANCH   1  14
ATOM     14  C   UNL d   1      33.194  20.826 -22.018  0.00  0.00     0.086 C 
BRANCH  14  15
ATOM     15  C   UNL d   1      32.528  20.839 -21.530  0.00  0.00     0.089 C 
BRANCH  15  16
ATOM     16  C   UNL d   1      32.485  21.389 -20.913  0.00  0.00     0.213 C 
ATOM     17  O   UNL d   1      33.180  21.703 -20.593  0.00  0.00    -0.644 OA
ATOM     18  O   UNL d   1      31.753  21.624 -20.617  0.00  0.00    -0.644 OA
ENDBRANCH  15  16
ENDBRANCH  14  15
ENDBRANCH   1  14
TORSDOF 3
ENDMDL
MODEL 8
REMARK VINA RESULT:      -2.1      1.761      2.960
REMARK  3 active torsions:
REMARK  status: ('A' for Active; 'I' for Inactive)
REMARK    1  A    between atoms: C_6  and  N_1 
REMARK    2  A    between atoms: C_7  and  C_6 
REMARK    3  A    between atoms: C_8  and  C_7 
ROOT
ATOM      1  N   UNL d   1      30.963  17.365 -24.310  0.00  0.00    -0.305 N 
ATOM      2  C   UNL d   1      30.262  17.692 -24.592  0.00  0.00     0.064 A 
ATOM      3  C   UNL d   1      31.030  16.571 -23.686  0.00  0.00     0.064 A 
ATOM      4  C   UNL d   1      29.824  17.141 -24.178  0.00  0.00     0.018 A 
ATOM      5  C   UNL d   1      30.204  16.576 -23.721  0.00  0.00     0.018 A 
ATOM      6  C   UNL d   1      31.419  16.014 -23.237  0.00  0.00     0.018 A 
ATOM      7  C   UNL d   1      29.879  18.263 -25.053  0.00  0.00     0.018 A 
ATOM      8  C   UNL d   1      28.994  17.151 -24.216  0.00  0.00     0.002 A 
ATOM      9  C   UNL d   1      29.770  16.018 -23.302  0.00  0.00     0.002 A 
ATOM     10  C   UNL d   1      30.165  15.453 -22.845  0.00  0.00     0.000 A 
ATOM     11  C   UNL d   1      29.053  18.280 -25.097  0.00  0.00     0.002 A 
ATOM     12  C   UNL d   1      30.987  15.453 -22.814  0.00  0.00     0.002 A 
ATOM     13  C   UNL d   1      28.614  17.717 -24.673  0.00  0.00     0.000 A 
ENDROOT
BRANCH   1  14
ATOM     14  C   UNL d   1      31.690  17.689 -24.536  0.00  0.00     0.086 C 
BRANCH  14  15
ATOM     15  C   UNL d   1      32.139  18.152 -24.022  0.00  0.00     0.089 C 
BRANCH  15  16
ATOM     16  C   UNL d   1      32.771  18.597 -24.319  0.00  0.00     0.213 C 
ATOM     17  O   UNL d   1      32.946  19.334 -23.988  0.00  0.00    -0.644 OA
ATOM     18  O   UNL d   1      33.225  18.307 -24.942  0.00  0.00    -0.644 OA
ENDBRANCH  15  16
ENDBRANCH  14  15
ENDBRANCH   1  14
TORSDOF 3
ENDMDL
MODEL 9
REMARK VINA RESULT:      -2.1      3.439      4.863
REMARK  3 active torsions:
REMARK  status: ('A' for Active; 'I' for Inactive)
REMARK    1  A    between atoms: C_6  and  N_1 
REMARK    2  A    between atoms: C_7  and  C_6 
REMARK    3  A    between atoms: C_8  and  C_7 
ROOT
ATOM      1  N   UNL d   1      33.190  20.456 -22.534  0.00  0.00    -0.305 N 
ATOM      2  C   UNL d   1      33.192  19.639 -22.636  0.00  0.00     0.064 A 
ATOM      3  C   UNL d   1      33.206  21.140 -23.279  0.00  0.00     0.064 A 
ATOM      4  C   UNL d   1      33.210  19.729 -23.448  0.00  0.00     0.018 A 
ATOM      5  C   UNL d   1      33.217  20.480 -23.777  0.00  0.00     0.018 A 
ATOM      6  C   UNL d   1      33.213  21.892 -23.594  0.00  0.00     0.018 A 
ATOM      7  C   UNL d   1      33.185  18.881 -22.304  0.00  0.00     0.018 A 
ATOM      8  C   UNL d   1      33.220  19.061 -23.943  0.00  0.00     0.002 A 
ATOM      9  C   UNL d   1      33.234  20.578 -24.592  0.00  0.00     0.002 A 
ATOM     10  C   UNL d   1      33.241  21.341 -24.912  0.00  0.00     0.000 A 
ATOM     11  C   UNL d   1      33.196  18.212 -22.789  0.00  0.00     0.002 A 
ATOM     12  C   UNL d   1      33.230  21.994 -24.412  0.00  0.00     0.002 A 
ATOM     13  C   UNL d   1      33.213  18.310 -23.614  0.00  0.00     0.000 A 
ENDROOT
BRANCH   1  14
ATOM     14  C   UNL d   1      33.174  20.776 -21.771  0.00  0.00     0.086 C 
BRANCH  14  15
ATOM     15  C   UNL d   1      32.464  20.929 -21.378  0.00  0.00     0.089 C 
BRANCH  15  16
ATOM     16  C   UNL d   1      32.478  21.312 -20.645  0.00  0.00     0.213 C 
ATOM     17  O   UNL d   1      31.792  21.672 -20.356  0.00  0.00    -0.644 OA
ATOM     18  O   UNL d   1      33.173  21.335 -20.202  0.00  0.00    -0.644 OA
ENDBRANCH  15  16
ENDBRANCH  14  15
ENDBRANCH   1  14
TORSDOF 3
ENDMDL
