MODEL 1
REMARK VINA RESULT:      40.9      0.000      0.000
REMARK  4 active torsions:
REMARK  status: ('A' for Active; 'I' for Inactive)
REMARK    1  A    between atoms: N_2  and  S_1 
REMARK    2  A    between atoms: C_3  and  S_1 
REMARK    3  A    between atoms: N_6  and  N_2 
REMARK    4  A    between atoms: C_9  and  N_6 
ROOT
ATOM      1  S   UNL d   1      59.304  49.668  50.744  0.00  0.00     0.302 S 
ATOM      2  O   UNL d   1      59.169  49.697  51.571  0.00  0.00    -0.197 OA
ATOM      3  O   UNL d   1      59.434  49.640  49.933  0.00  0.00    -0.197 OA
ENDROOT
BRANCH   1   4
ATOM      4  N   UNL d   1      60.129  49.659  50.879  0.00  0.00    -0.054 NA
BRANCH   4   5
ATOM      5  N   UNL d   1      60.451  49.075  51.331  0.00  0.00    -0.137 NA
BRANCH   5   6
ATOM      6  C   UNL d   1      60.857  48.434  50.974  0.00  0.00     0.104 A 
ATOM      7  C   UNL d   1      60.651  47.666  51.157  0.00  0.00     0.021 A 
ATOM      8  C   UNL d   1      61.061  47.048  50.796  0.00  0.00     0.002 A 
ATOM      9  C   UNL d   1      61.661  47.211  50.267  0.00  0.00     0.000 A 
ATOM     10  C   UNL d   1      61.860  47.977  50.089  0.00  0.00     0.002 A 
ATOM     11  C   UNL d   1      62.072  46.567  49.905  0.00  0.00     0.000 C 
ATOM     12  C   UNL d   1      61.460  48.602  50.441  0.00  0.00     0.021 A 
ENDBRANCH   5   6
ENDBRANCH   4   5
ENDBRANCH   1   4
BRANCH   1  13
ATOM     13  C   UNL d   1      58.489  49.678  50.613  0.00  0.00     0.107 A 
ATOM     14  C   UNL d   1      57.968  49.670  51.246  0.00  0.00     0.013 A 
ATOM     15  C   UNL d   1      57.157  49.680  51.096  0.00  0.00     0.001 A 
ATOM     16  C   UNL d   1      56.867  49.697  50.315  0.00  0.00     0.000 A 
ATOM     17  C   UNL d   1      57.394  49.705  49.673  0.00  0.00     0.001 A 
ATOM     18  C   UNL d   1      56.040  49.707  50.171  0.00  0.00     0.000 C 
ATOM     19  C   UNL d   1      58.201  49.695  49.843  0.00  0.00     0.013 A 
ENDBRANCH   1  13
TORSDOF 4
ENDMDL
