MODEL 1
REMARK VINA RESULT:      -1.6      0.000      0.000
REMARK  2 active torsions:
REMARK  status: ('A' for Active; 'I' for Inactive)
REMARK    1  A    between atoms: N_3  and  C_1 
REMARK       I    between atoms: C_6  and  N_3 
REMARK    2  A    between atoms: C_8  and  C_6 
ROOT
ATOM      1  N   UNL d   1      57.701   0.682  29.643  0.00  0.00    -0.183 NA
ATOM      2  C   UNL d   1      58.331   0.339  29.194  0.00  0.00     0.281 C 
ATOM      3  O   UNL d   1      58.517   0.643  28.455  0.00  0.00    -0.265 OA
ENDROOT
BRANCH   1   4
ATOM      4  C   UNL d   1      57.516   0.380  30.379  0.00  0.00     0.197 A 
ATOM      5  N   UNL d   1      57.048  -0.272  30.527  0.00  0.00    -0.221 NA
ATOM      6  C   UNL d   1      57.007  -0.381  31.329  0.00  0.00     0.090 A 
ATOM      7  C   UNL d   1      56.620  -0.941  31.796  0.00  0.00     0.020 A 
ATOM      8  C   UNL d   1      57.457   0.213  31.687  0.00  0.00     0.050 A 
ATOM      9  C   UNL d   1      56.682  -0.910  32.618  0.00  0.00     0.002 A 
ATOM     10  C   UNL d   1      57.132  -0.316  32.976  0.00  0.00     0.001 A 
ATOM     11  C   UNL d   1      57.517   0.241  32.507  0.00  0.00     0.008 A 
ATOM     12  S   UNL d   1      57.766   0.676  31.098  0.00  0.00    -0.047 SA
ENDBRANCH   1   4
BRANCH   2  13
ATOM     13  C   UNL d   1      58.746  -0.285  29.497  0.00  0.00     0.058 A 
ATOM     14  C   UNL d   1      58.538  -1.055  29.285  0.00  0.00     0.005 A 
ATOM     15  C   UNL d   1      58.955  -1.699  29.589  0.00  0.00     0.000 A 
ATOM     16  C   UNL d   1      58.751  -2.457  29.383  0.00  0.00     0.000 C 
ATOM     17  C   UNL d   1      59.586  -1.571  30.110  0.00  0.00     0.000 A 
ATOM     18  C   UNL d   1      59.789  -0.787  30.317  0.00  0.00     0.000 A 
ATOM     19  C   UNL d   1      59.377  -0.158  30.017  0.00  0.00     0.005 A 
ENDBRANCH   2  13
TORSDOF 2
ENDMDL
MODEL 2
REMARK VINA RESULT:      -1.4      1.477      3.296
REMARK  2 active torsions:
REMARK  status: ('A' for Active; 'I' for Inactive)
REMARK    1  A    between atoms: N_3  and  C_1 
REMARK       I    between atoms: C_6  and  N_3 
REMARK    2  A    between atoms: C_8  and  C_6 
ROOT
ATOM      1  N   UNL d   1      58.309  -0.472  28.455  0.00  0.00    -0.183 NA
ATOM      2  C   UNL d   1      58.068   0.166  28.957  0.00  0.00     0.281 C 
ATOM      3  O   UNL d   1      57.473   0.674  28.712  0.00  0.00    -0.265 OA
ENDROOT
BRANCH   1   4
ATOM      4  C   UNL d   1      58.902  -0.979  28.698  0.00  0.00     0.197 A 
ATOM      5  N   UNL d   1      59.704  -0.834  28.661  0.00  0.00    -0.221 NA
ATOM      6  C   UNL d   1      60.095  -1.478  28.958  0.00  0.00     0.090 A 
ATOM      7  C   UNL d   1      60.896  -1.645  29.059  0.00  0.00     0.020 A 
ATOM      8  C   UNL d   1      59.526  -2.035  29.185  0.00  0.00     0.050 A 
ATOM      9  C   UNL d   1      61.133  -2.366  29.385  0.00  0.00     0.002 A 
ATOM     10  C   UNL d   1      60.565  -2.922  29.611  0.00  0.00     0.001 A 
ATOM     11  C   UNL d   1      59.765  -2.752  29.509  0.00  0.00     0.008 A 
ATOM     12  S   UNL d   1      58.797  -1.721  29.022  0.00  0.00    -0.047 SA
ENDBRANCH   1   4
BRANCH   2  13
ATOM     13  C   UNL d   1      58.427   0.268  29.674  0.00  0.00     0.058 A 
ATOM     14  C   UNL d   1      58.021   0.074  30.366  0.00  0.00     0.005 A 
ATOM     15  C   UNL d   1      58.379   0.176  31.102  0.00  0.00     0.000 A 
ATOM     16  C   UNL d   1      57.982  -0.015  31.783  0.00  0.00     0.000 C 
ATOM     17  C   UNL d   1      59.150   0.475  31.147  0.00  0.00     0.000 A 
ATOM     18  C   UNL d   1      59.552   0.669  30.440  0.00  0.00     0.000 A 
ATOM     19  C   UNL d   1      59.197   0.568  29.719  0.00  0.00     0.005 A 
ENDBRANCH   2  13
TORSDOF 2
ENDMDL
MODEL 3
REMARK VINA RESULT:      -0.2      2.096      3.051
REMARK  2 active torsions:
REMARK  status: ('A' for Active; 'I' for Inactive)
REMARK    1  A    between atoms: N_3  and  C_1 
REMARK       I    between atoms: C_6  and  N_3 
REMARK    2  A    between atoms: C_8  and  C_6 
ROOT
ATOM      1  N   UNL d   1      58.142  -2.601  29.053  0.00  0.00    -0.183 NA
ATOM      2  C   UNL d   1      58.716  -3.206  28.913  0.00  0.00     0.281 C 
ATOM      3  O   UNL d   1      58.473  -3.955  28.688  0.00  0.00    -0.265 OA
ENDROOT
BRANCH   1   4
ATOM      4  C   UNL d   1      58.384  -1.854  29.278  0.00  0.00     0.197 A 
ATOM      5  N   UNL d   1      58.707  -1.286  28.789  0.00  0.00    -0.221 NA
ATOM      6  C   UNL d   1      58.869  -0.627  29.233  0.00  0.00     0.090 A 
ATOM      7  C   UNL d   1      59.194   0.106  29.043  0.00  0.00     0.020 A 
ATOM      8  C   UNL d   1      58.644  -0.788  30.012  0.00  0.00     0.050 A 
ATOM      9  C   UNL d   1      59.294   0.681  29.627  0.00  0.00     0.002 A 
ATOM     10  C   UNL d   1      59.069   0.520  30.406  0.00  0.00     0.001 A 
ATOM     11  C   UNL d   1      58.745  -0.214  30.592  0.00  0.00     0.008 A 
ATOM     12  S   UNL d   1      58.347  -1.542  30.032  0.00  0.00    -0.047 SA
ENDBRANCH   1   4
BRANCH   2  13
ATOM     13  C   UNL d   1      59.503  -3.040  29.002  0.00  0.00     0.058 A 
ATOM     14  C   UNL d   1      59.920  -3.362  29.637  0.00  0.00     0.005 A 
ATOM     15  C   UNL d   1      60.722  -3.198  29.736  0.00  0.00     0.000 A 
ATOM     16  C   UNL d   1      61.133  -3.514  30.360  0.00  0.00     0.000 C 
ATOM     17  C   UNL d   1      61.112  -2.707  29.195  0.00  0.00     0.000 A 
ATOM     18  C   UNL d   1      60.680  -2.385  28.555  0.00  0.00     0.000 A 
ATOM     19  C   UNL d   1      59.892  -2.548  28.461  0.00  0.00     0.005 A 
ENDBRANCH   2  13
TORSDOF 2
ENDMDL
MODEL 4
REMARK VINA RESULT:      -0.1      1.265      1.910
REMARK  2 active torsions:
REMARK  status: ('A' for Active; 'I' for Inactive)
REMARK    1  A    between atoms: N_3  and  C_1 
REMARK       I    between atoms: C_6  and  N_3 
REMARK    2  A    between atoms: C_8  and  C_6 
ROOT
ATOM      1  N   UNL d   1      58.396  -1.702  29.403  0.00  0.00    -0.183 NA
ATOM      2  C   UNL d   1      59.113  -1.477  29.014  0.00  0.00     0.281 C 
ATOM      3  O   UNL d   1      59.448  -1.974  28.456  0.00  0.00    -0.265 OA
ENDROOT
BRANCH   1   4
ATOM      4  C   UNL d   1      58.062  -1.206  29.960  0.00  0.00     0.197 A 
ATOM      5  N   UNL d   1      57.680  -0.501  29.808  0.00  0.00    -0.221 NA
ATOM      6  C   UNL d   1      57.434  -0.187  30.513  0.00  0.00     0.090 A 
ATOM      7  C   UNL d   1      57.026   0.505  30.702  0.00  0.00     0.020 A 
ATOM      8  C   UNL d   1      57.666  -0.705  31.114  0.00  0.00     0.050 A 
ATOM      9  C   UNL d   1      56.849   0.682  31.488  0.00  0.00     0.002 A 
ATOM     10  C   UNL d   1      57.081   0.164  32.089  0.00  0.00     0.001 A 
ATOM     11  C   UNL d   1      57.489  -0.526  31.897  0.00  0.00     0.008 A 
ATOM     12  S   UNL d   1      58.051  -1.328  30.767  0.00  0.00    -0.047 SA
ENDBRANCH   1   4
BRANCH   2  13
ATOM     13  C   UNL d   1      59.463  -0.771  29.197  0.00  0.00     0.058 A 
ATOM     14  C   UNL d   1      60.080  -0.750  29.745  0.00  0.00     0.005 A 
ATOM     15  C   UNL d   1      60.443  -0.034  29.938  0.00  0.00     0.000 A 
ATOM     16  C   UNL d   1      61.049  -0.012  30.476  0.00  0.00     0.000 C 
ATOM     17  C   UNL d   1      60.186   0.667  29.579  0.00  0.00     0.000 A 
ATOM     18  C   UNL d   1      59.561   0.634  29.025  0.00  0.00     0.000 A 
ATOM     19  C   UNL d   1      59.207  -0.070  28.839  0.00  0.00     0.005 A 
ENDBRANCH   2  13
TORSDOF 2
ENDMDL
MODEL 5
REMARK VINA RESULT:       0.4      1.168      1.522
REMARK  2 active torsions:
REMARK  status: ('A' for Active; 'I' for Inactive)
REMARK    1  A    between atoms: N_3  and  C_1 
REMARK       I    between atoms: C_6  and  N_3 
REMARK    2  A    between atoms: C_8  and  C_6 
ROOT
ATOM      1  N   UNL d   1      59.298   0.346  31.252  0.00  0.00    -0.183 NA
ATOM      2  C   UNL d   1      59.527   0.342  30.438  0.00  0.00     0.281 C 
ATOM      3  O   UNL d   1      60.297   0.533  30.229  0.00  0.00    -0.265 OA
ENDROOT
BRANCH   1   4
ATOM      4  C   UNL d   1      58.531   0.156  31.459  0.00  0.00     0.197 A 
ATOM      5  N   UNL d   1      58.245  -0.593  31.610  0.00  0.00    -0.221 NA
ATOM      6  C   UNL d   1      57.459  -0.535  31.795  0.00  0.00     0.090 A 
ATOM      7  C   UNL d   1      56.891  -1.099  31.994  0.00  0.00     0.020 A 
ATOM      8  C   UNL d   1      57.250   0.264  31.760  0.00  0.00     0.050 A 
ATOM      9  C   UNL d   1      56.115  -0.869  32.158  0.00  0.00     0.002 A 
ATOM     10  C   UNL d   1      55.907  -0.069  32.123  0.00  0.00     0.001 A 
ATOM     11  C   UNL d   1      56.477   0.491  31.924  0.00  0.00     0.008 A 
ATOM     12  S   UNL d   1      57.913   0.682  31.553  0.00  0.00    -0.047 SA
ENDBRANCH   1   4
BRANCH   2  13
ATOM     13  C   UNL d   1      58.985   0.149  29.870  0.00  0.00     0.058 A 
ATOM     14  C   UNL d   1      59.028  -0.585  29.495  0.00  0.00     0.005 A 
ATOM     15  C   UNL d   1      58.479  -0.791  28.914  0.00  0.00     0.000 A 
ATOM     16  C   UNL d   1      58.521  -1.512  28.545  0.00  0.00     0.000 C 
ATOM     17  C   UNL d   1      57.881  -0.257  28.707  0.00  0.00     0.000 A 
ATOM     18  C   UNL d   1      57.846   0.484  29.092  0.00  0.00     0.000 A 
ATOM     19  C   UNL d   1      58.387   0.682  29.662  0.00  0.00     0.005 A 
ENDBRANCH   2  13
TORSDOF 2
ENDMDL
MODEL 6
REMARK VINA RESULT:       0.5      1.685      3.492
REMARK  2 active torsions:
REMARK  status: ('A' for Active; 'I' for Inactive)
REMARK    1  A    between atoms: N_3  and  C_1 
REMARK       I    between atoms: C_6  and  N_3 
REMARK    2  A    between atoms: C_8  and  C_6 
ROOT
ATOM      1  N   UNL d   1      58.539   0.441  32.528  0.00  0.00    -0.183 NA
ATOM      2  C   UNL d   1      57.873   0.438  33.049  0.00  0.00     0.281 C 
ATOM      3  O   UNL d   1      57.963   0.682  33.827  0.00  0.00    -0.265 OA
ENDROOT
BRANCH   1   4
ATOM      4  C   UNL d   1      58.450   0.198  31.753  0.00  0.00     0.197 A 
ATOM      5  N   UNL d   1      58.352  -0.571  31.498  0.00  0.00    -0.221 NA
ATOM      6  C   UNL d   1      58.285  -0.567  30.691  0.00  0.00     0.090 A 
ATOM      7  C   UNL d   1      58.178  -1.169  30.138  0.00  0.00     0.020 A 
ATOM      8  C   UNL d   1      58.341   0.219  30.438  0.00  0.00     0.050 A 
ATOM      9  C   UNL d   1      58.128  -0.992  29.333  0.00  0.00     0.002 A 
ATOM     10  C   UNL d   1      58.185  -0.206  29.081  0.00  0.00     0.001 A 
ATOM     11  C   UNL d   1      58.291   0.393  29.636  0.00  0.00     0.008 A 
ATOM     12  S   UNL d   1      58.443   0.682  31.095  0.00  0.00    -0.047 SA
ENDBRANCH   1   4
BRANCH   2  13
ATOM     13  C   UNL d   1      57.152   0.195  32.777  0.00  0.00     0.058 A 
ATOM     14  C   UNL d   1      56.847  -0.533  33.017  0.00  0.00     0.005 A 
ATOM     15  C   UNL d   1      56.112  -0.789  32.744  0.00  0.00     0.000 A 
ATOM     16  C   UNL d   1      55.811  -1.505  32.979  0.00  0.00     0.000 C 
ATOM     17  C   UNL d   1      55.677  -0.312  32.225  0.00  0.00     0.000 A 
ATOM     18  C   UNL d   1      55.995   0.424  31.987  0.00  0.00     0.000 A 
ATOM     19  C   UNL d   1      56.717   0.672  32.258  0.00  0.00     0.005 A 
ENDBRANCH   2  13
TORSDOF 2
ENDMDL
MODEL 7
REMARK VINA RESULT:       1.2      8.622      9.717
REMARK  2 active torsions:
REMARK  status: ('A' for Active; 'I' for Inactive)
REMARK    1  A    between atoms: N_3  and  C_1 
REMARK       I    between atoms: C_6  and  N_3 
REMARK    2  A    between atoms: C_8  and  C_6 
ROOT
ATOM      1  N   UNL d   1      58.547  -8.537  35.139  0.00  0.00    -0.183 NA
ATOM      2  C   UNL d   1      58.767  -8.031  35.780  0.00  0.00     0.281 C 
ATOM      3  O   UNL d   1      58.203  -7.795  36.326  0.00  0.00    -0.265 OA
ENDROOT
BRANCH   1   4
ATOM      4  C   UNL d   1      59.109  -8.771  34.595  0.00  0.00     0.197 A 
ATOM      5  N   UNL d   1      59.160  -8.524  33.819  0.00  0.00    -0.221 NA
ATOM      6  C   UNL d   1      59.796  -8.890  33.475  0.00  0.00     0.090 A 
ATOM      7  C   UNL d   1      60.114  -8.855  32.714  0.00  0.00     0.020 A 
ATOM      8  C   UNL d   1      60.147  -9.374  34.046  0.00  0.00     0.050 A 
ATOM      9  C   UNL d   1      60.781  -9.301  32.521  0.00  0.00     0.002 A 
ATOM     10  C   UNL d   1      61.132  -9.785  33.093  0.00  0.00     0.001 A 
ATOM     11  C   UNL d   1      60.812  -9.817  33.851  0.00  0.00     0.008 A 
ATOM     12  S   UNL d   1      59.721  -9.296  34.730  0.00  0.00    -0.047 SA
ENDBRANCH   1   4
BRANCH   2  13
ATOM     13  C   UNL d   1      59.534  -7.783  35.850  0.00  0.00     0.058 A 
ATOM     14  C   UNL d   1      59.736  -7.012  35.637  0.00  0.00     0.005 A 
ATOM     15  C   UNL d   1      60.516  -6.751  35.704  0.00  0.00     0.000 A 
ATOM     16  C   UNL d   1      60.716  -5.993  35.495  0.00  0.00     0.000 C 
ATOM     17  C   UNL d   1      61.099  -7.265  35.988  0.00  0.00     0.000 A 
ATOM     18  C   UNL d   1      60.884  -8.045  36.202  0.00  0.00     0.000 A 
ATOM     19  C   UNL d   1      60.117  -8.298  36.134  0.00  0.00     0.005 A 
ENDBRANCH   2  13
TORSDOF 2
ENDMDL
