MODEL 1
REMARK VINA RESULT:      -6.3      0.000      0.000
REMARK  2 active torsions:
REMARK  status: ('A' for Active; 'I' for Inactive)
REMARK    1  A    between atoms: C_7  and  C_1 
REMARK    2  A    between atoms: O_16  and  C_12 
ROOT
ATOM      1  C   UNL d   1     -41.593-122.891 -50.756  0.00  0.00     0.105 A 
ATOM      2  C   UNL d   1     -41.336-122.444 -52.345  0.00  0.00     0.064 A 
ATOM      3  O   UNL d   1     -41.636-123.463 -51.359  0.00  0.00    -0.307 OA
ATOM      4  C   UNL d   1     -41.295-121.877 -51.741  0.00  0.00     0.200 A 
ATOM      5  C   UNL d   1     -41.509-123.240 -52.147  0.00  0.00     0.103 A 
ATOM      6  C   UNL d   1     -41.422-122.093 -50.945  0.00  0.00     0.067 A 
ATOM      7  C   UNL d   1     -41.211-122.229 -53.127  0.00  0.00     0.029 A 
ATOM      8  O   UNL d   1     -41.126-121.091 -51.927  0.00  0.00    -0.286 OA
ATOM      9  C   UNL d   1     -41.550-123.807 -52.752  0.00  0.00     0.027 A 
ATOM     10  C   UNL d   1     -41.253-122.794 -53.724  0.00  0.00     0.094 A 
ATOM     11  C   UNL d   1     -41.422-123.580 -53.537  0.00  0.00     0.026 A 
ENDROOT
BRANCH   1  12
ATOM     12  C   UNL d   1     -41.718-123.103 -49.974  0.00  0.00     0.050 A 
ATOM     13  C   UNL d   1     -42.432-122.921 -49.611  0.00  0.00     0.142 A 
ATOM     14  F   UNL d   1     -43.021-122.521 -50.045  0.00  0.00    -0.204 F 
ATOM     15  C   UNL d   1     -42.564-123.131 -48.825  0.00  0.00     0.030 A 
ATOM     16  C   UNL d   1     -41.978-123.525 -48.402  0.00  0.00     0.002 A 
ATOM     17  C   UNL d   1     -41.260-123.710 -48.764  0.00  0.00     0.000 A 
ATOM     18  C   UNL d   1     -41.127-123.500 -49.549  0.00  0.00     0.004 A 
ENDBRANCH   1  12
BRANCH  10  19
ATOM     19  O   UNL d   1     -41.127-122.574 -54.507  0.00  0.00    -0.328 OA
ATOM     20  C   UNL d   1     -41.763-122.524 -55.030  0.00  0.00     0.181 C 
ENDBRANCH  10  19
TORSDOF 2
ENDMDL
MODEL 2
REMARK VINA RESULT:      -5.8      1.218      4.010
REMARK  2 active torsions:
REMARK  status: ('A' for Active; 'I' for Inactive)
REMARK    1  A    between atoms: C_7  and  C_1 
REMARK    2  A    between atoms: O_16  and  C_12 
ROOT
ATOM      1  C   UNL d   1     -41.574-122.361 -53.202  0.00  0.00     0.105 A 
ATOM      2  C   UNL d   1     -41.327-122.386 -51.550  0.00  0.00     0.064 A 
ATOM      3  O   UNL d   1     -41.616-123.082 -52.788  0.00  0.00    -0.307 OA
ATOM      4  C   UNL d   1     -41.286-121.670 -51.966  0.00  0.00     0.200 A 
ATOM      5  C   UNL d   1     -41.492-123.093 -51.968  0.00  0.00     0.103 A 
ATOM      6  C   UNL d   1     -41.409-121.650 -52.790  0.00  0.00     0.067 A 
ATOM      7  C   UNL d   1     -41.206-122.403 -50.737  0.00  0.00     0.029 A 
ATOM      8  O   UNL d   1     -41.124-120.969 -51.561  0.00  0.00    -0.286 OA
ATOM      9  C   UNL d   1     -41.533-123.810 -51.551  0.00  0.00     0.027 A 
ATOM     10  C   UNL d   1     -41.246-123.116 -50.328  0.00  0.00     0.094 A 
ATOM     11  C   UNL d   1     -41.409-123.817 -50.734  0.00  0.00     0.026 A 
ENDROOT
BRANCH   1  12
ATOM     12  C   UNL d   1     -41.695-122.341 -54.012  0.00  0.00     0.050 A 
ATOM     13  C   UNL d   1     -42.358-121.965 -54.317  0.00  0.00     0.142 A 
ATOM     14  F   UNL d   1     -42.902-121.609 -53.795  0.00  0.00    -0.204 F 
ATOM     15  C   UNL d   1     -42.485-121.941 -55.130  0.00  0.00     0.030 A 
ATOM     16  C   UNL d   1     -41.945-122.295 -55.640  0.00  0.00     0.002 A 
ATOM     17  C   UNL d   1     -41.277-122.673 -55.338  0.00  0.00     0.000 A 
ATOM     18  C   UNL d   1     -41.149-122.698 -54.525  0.00  0.00     0.004 A 
ENDBRANCH   1  12
BRANCH  10  19
ATOM     19  O   UNL d   1     -41.125-123.129 -49.514  0.00  0.00    -0.328 OA
ATOM     20  C   UNL d   1     -41.659-123.521 -49.023  0.00  0.00     0.181 C 
ENDBRANCH  10  19
TORSDOF 2
ENDMDL
MODEL 3
REMARK VINA RESULT:      -4.0      1.400      4.170
REMARK  2 active torsions:
REMARK  status: ('A' for Active; 'I' for Inactive)
REMARK    1  A    between atoms: C_7  and  C_1 
REMARK    2  A    between atoms: O_16  and  C_12 
ROOT
ATOM      1  C   UNL d   1     -41.831-122.716 -50.949  0.00  0.00     0.105 A 
ATOM      2  C   UNL d   1     -42.322-122.948 -49.369  0.00  0.00     0.064 A 
ATOM      3  O   UNL d   1     -41.352-123.153 -50.427  0.00  0.00    -0.307 OA
ATOM      4  C   UNL d   1     -42.796-122.513 -49.893  0.00  0.00     0.200 A 
ATOM      5  C   UNL d   1     -41.597-123.267 -49.642  0.00  0.00     0.103 A 
ATOM      6  C   UNL d   1     -42.557-122.394 -50.683  0.00  0.00     0.067 A 
ATOM      7  C   UNL d   1     -42.560-123.064 -48.592  0.00  0.00     0.029 A 
ATOM      8  O   UNL d   1     -43.512-122.196 -49.632  0.00  0.00    -0.286 OA
ATOM      9  C   UNL d   1     -41.123-123.702 -49.117  0.00  0.00     0.027 A 
ATOM     10  C   UNL d   1     -42.087-123.495 -48.075  0.00  0.00     0.094 A 
ATOM     11  C   UNL d   1     -41.371-123.813 -48.337  0.00  0.00     0.026 A 
ENDROOT
BRANCH   1  12
ATOM     12  C   UNL d   1     -41.596-122.599 -51.725  0.00  0.00     0.050 A 
ATOM     13  C   UNL d   1     -41.428-121.840 -51.990  0.00  0.00     0.142 A 
ATOM     14  F   UNL d   1     -41.498-121.198 -51.463  0.00  0.00    -0.204 F 
ATOM     15  C   UNL d   1     -41.192-121.715 -52.769  0.00  0.00     0.030 A 
ATOM     16  C   UNL d   1     -41.124-122.352 -53.285  0.00  0.00     0.002 A 
ATOM     17  C   UNL d   1     -41.293-123.116 -53.023  0.00  0.00     0.000 A 
ATOM     18  C   UNL d   1     -41.529-123.242 -52.244  0.00  0.00     0.004 A 
ENDBRANCH   1  12
BRANCH  10  19
ATOM     19  O   UNL d   1     -42.328-123.610 -47.296  0.00  0.00    -0.328 OA
ATOM     20  C   UNL d   1     -41.798-123.483 -46.677  0.00  0.00     0.181 C 
ENDBRANCH  10  19
TORSDOF 2
ENDMDL
MODEL 4
REMARK VINA RESULT:      -3.4      1.259      2.267
REMARK  2 active torsions:
REMARK  status: ('A' for Active; 'I' for Inactive)
REMARK    1  A    between atoms: C_7  and  C_1 
REMARK    2  A    between atoms: O_16  and  C_12 
ROOT
ATOM      1  C   UNL d   1     -41.605-122.608 -52.434  0.00  0.00     0.105 A 
ATOM      2  C   UNL d   1     -41.839-122.583 -54.088  0.00  0.00     0.064 A 
ATOM      3  O   UNL d   1     -42.024-121.980 -52.783  0.00  0.00    -0.307 OA
ATOM      4  C   UNL d   1     -41.422-123.207 -53.737  0.00  0.00     0.200 A 
ATOM      5  C   UNL d   1     -42.140-121.968 -53.604  0.00  0.00     0.103 A 
ATOM      6  C   UNL d   1     -41.301-123.226 -52.912  0.00  0.00     0.067 A 
ATOM      7  C   UNL d   1     -41.957-122.566 -54.901  0.00  0.00     0.029 A 
ATOM      8  O   UNL d   1     -41.123-123.816 -54.206  0.00  0.00    -0.286 OA
ATOM      9  C   UNL d   1     -42.558-121.343 -53.956  0.00  0.00     0.027 A 
ATOM     10  C   UNL d   1     -42.372-121.945 -55.246  0.00  0.00     0.094 A 
ATOM     11  C   UNL d   1     -42.671-121.335 -54.775  0.00  0.00     0.026 A 
ENDROOT
BRANCH   1  12
ATOM     12  C   UNL d   1     -41.485-122.628 -51.624  0.00  0.00     0.050 A 
ATOM     13  C   UNL d   1     -41.247-121.948 -51.230  0.00  0.00     0.142 A 
ATOM     14  F   UNL d   1     -41.130-121.245 -51.662  0.00  0.00    -0.204 F 
ATOM     15  C   UNL d   1     -41.125-121.961 -50.415  0.00  0.00     0.030 A 
ATOM     16  C   UNL d   1     -41.243-122.658 -49.994  0.00  0.00     0.002 A 
ATOM     17  C   UNL d   1     -41.482-123.343 -50.387  0.00  0.00     0.000 A 
ATOM     18  C   UNL d   1     -41.604-123.331 -51.200  0.00  0.00     0.004 A 
ENDBRANCH   1  12
BRANCH  10  19
ATOM     19  O   UNL d   1     -42.488-121.931 -56.061  0.00  0.00    -0.328 OA
ATOM     20  C   UNL d   1     -42.071-121.395 -56.528  0.00  0.00     0.181 C 
ENDBRANCH  10  19
TORSDOF 2
ENDMDL
