MODEL 1
REMARK VINA RESULT:      -4.5      0.000      0.000
REMARK  8 active torsions:
REMARK  status: ('A' for Active; 'I' for Inactive)
REMARK    1  A    between atoms: C_2  and  C_1 
REMARK    2  A    between atoms: C_5  and  C_1 
REMARK    3  A    between atoms: O_11  and  C_2 
REMARK    4  A    between atoms: C_13  and  C_3 
REMARK    5  A    between atoms: C_6  and  C_5 
REMARK    6  A    between atoms: C_23  and  O_11 
REMARK    7  A    between atoms: C_12  and  S_14 
REMARK    8  A    between atoms: S_14  and  C_18 
ROOT
ATOM      1  C   UNL d   1      59.232  -0.783  29.125  0.00  0.00     0.134 C 
ATOM      2  C   UNL d   1      59.741  -0.155  28.964  0.00  0.00     0.106 C 
ATOM      3  N   UNL d   1      60.247   0.477  28.805  0.00  0.00    -0.191 NA
ENDROOT
BRANCH   1   4
ATOM      4  C   UNL d   1      59.522  -1.557  29.106  0.00  0.00     0.310 C 
ATOM      5  O   UNL d   1      60.249  -1.735  29.453  0.00  0.00    -0.258 OA
BRANCH   4   6
ATOM      6  O   UNL d   1      59.085  -2.157  28.739  0.00  0.00    -0.273 OA
BRANCH   6   7
ATOM      7  C   UNL d   1      59.322  -2.937  28.811  0.00  0.00     0.103 C 
ATOM      8  C   UNL d   1      58.835  -3.488  29.185  0.00  0.00     0.027 C 
ATOM      9  C   UNL d   1      60.053  -3.175  28.507  0.00  0.00     0.027 C 
ENDBRANCH   6   7
ENDBRANCH   4   6
ENDBRANCH   1   4
BRANCH   1  10
ATOM     10  C   UNL d   1      58.443  -0.647  29.302  0.00  0.00     0.040 C 
BRANCH  10  11
ATOM     11  C   UNL d   1      58.248  -0.194  29.954  0.00  0.00     0.101 A 
ATOM     12  O   UNL d   1      57.724  -0.529  30.491  0.00  0.00    -0.307 OA
ATOM     13  C   UNL d   1      57.601   0.009  31.100  0.00  0.00     0.100 A 
ATOM     14  C   UNL d   1      58.050   0.681  30.940  0.00  0.00     0.027 A 
ATOM     15  C   UNL d   1      58.448   0.565  30.242  0.00  0.00     0.027 A 
BRANCH  13  16
ATOM     16  C   UNL d   1      57.119  -0.099  31.753  0.00  0.00     0.023 A 
ATOM     17  C   UNL d   1      56.748   0.627  31.922  0.00  0.00     0.003 A 
ATOM     18  C   UNL d   1      56.223   0.681  32.562  0.00  0.00     0.007 A 
ATOM     19  C   UNL d   1      56.069   0.021  33.028  0.00  0.00     0.034 A 
ATOM     20  C   UNL d   1      56.436  -0.697  32.860  0.00  0.00     0.007 A 
ATOM     21  C   UNL d   1      56.961  -0.762  32.225  0.00  0.00     0.003 A 
BRANCH  19  22
ATOM     22  S   UNL d   1      55.548   0.080  33.661  0.00  0.00    -0.028 SA
BRANCH  22  23
ATOM     23  C   UNL d   1      54.739   0.002  33.534  0.00  0.00     0.309 C 
ATOM     24  F   UNL d   1      54.403  -0.749  33.465  0.00  0.00    -0.165 F 
ATOM     25  F   UNL d   1      54.264   0.673  33.474  0.00  0.00    -0.165 F 
ENDBRANCH  22  23
ENDBRANCH  19  22
ENDBRANCH  13  16
ENDBRANCH  10  11
ENDBRANCH   1  10
TORSDOF 8
ENDMDL
MODEL 2
REMARK VINA RESULT:      -3.2      3.285      5.703
REMARK  8 active torsions:
REMARK  status: ('A' for Active; 'I' for Inactive)
REMARK    1  A    between atoms: C_2  and  C_1 
REMARK    2  A    between atoms: C_5  and  C_1 
REMARK    3  A    between atoms: O_11  and  C_2 
REMARK    4  A    between atoms: C_13  and  C_3 
REMARK    5  A    between atoms: C_6  and  C_5 
REMARK    6  A    between atoms: C_23  and  O_11 
REMARK    7  A    between atoms: C_12  and  S_14 
REMARK    8  A    between atoms: S_14  and  C_18 
ROOT
ATOM      1  C   UNL d   1      56.096  -0.095  33.324  0.00  0.00     0.134 C 
ATOM      2  C   UNL d   1      56.044  -0.897  33.136  0.00  0.00     0.106 C 
ATOM      3  N   UNL d   1      55.997  -1.699  32.947  0.00  0.00    -0.191 NA
ENDROOT
BRANCH   1   4
ATOM      4  C   UNL d   1      55.506   0.254  33.784  0.00  0.00     0.310 C 
ATOM      5  O   UNL d   1      54.713   0.177  33.569  0.00  0.00    -0.258 OA
BRANCH   4   6
ATOM      6  O   UNL d   1      55.706   0.681  34.464  0.00  0.00    -0.273 OA
BRANCH   6   7
ATOM      7  C   UNL d   1      55.205   0.678  35.111  0.00  0.00     0.103 C 
ATOM      8  C   UNL d   1      55.513   0.672  35.877  0.00  0.00     0.027 C 
ATOM      9  C   UNL d   1      54.386   0.681  34.998  0.00  0.00     0.027 C 
ENDBRANCH   6   7
ENDBRANCH   4   6
ENDBRANCH   1   4
BRANCH   1  10
ATOM     10  C   UNL d   1      56.727   0.356  33.057  0.00  0.00     0.040 C 
BRANCH  10  11
ATOM     11  C   UNL d   1      56.867   0.420  32.253  0.00  0.00     0.101 A 
ATOM     12  O   UNL d   1      57.653   0.404  32.015  0.00  0.00    -0.307 OA
ATOM     13  C   UNL d   1      57.674   0.475  31.196  0.00  0.00     0.100 A 
ATOM     14  C   UNL d   1      56.898   0.535  30.926  0.00  0.00     0.027 A 
ATOM     15  C   UNL d   1      56.399   0.503  31.565  0.00  0.00     0.027 A 
BRANCH  13  16
ATOM     16  C   UNL d   1      58.345   0.485  30.727  0.00  0.00     0.023 A 
ATOM     17  C   UNL d   1      58.128   0.244  29.961  0.00  0.00     0.003 A 
ATOM     18  C   UNL d   1      58.702   0.202  29.364  0.00  0.00     0.007 A 
ATOM     19  C   UNL d   1      59.484   0.397  29.528  0.00  0.00     0.034 A 
ATOM     20  C   UNL d   1      59.699   0.636  30.287  0.00  0.00     0.007 A 
ATOM     21  C   UNL d   1      59.134   0.681  30.889  0.00  0.00     0.003 A 
BRANCH  19  22
ATOM     22  S   UNL d   1      60.050   0.354  28.934  0.00  0.00    -0.028 SA
BRANCH  22  23
ATOM     23  C   UNL d   1      60.345  -0.378  28.702  0.00  0.00     0.309 C 
ATOM     24  F   UNL d   1      59.852  -1.039  28.699  0.00  0.00    -0.165 F 
ATOM     25  F   UNL d   1      61.133  -0.451  28.473  0.00  0.00    -0.165 F 
ENDBRANCH  22  23
ENDBRANCH  19  22
ENDBRANCH  13  16
ENDBRANCH  10  11
ENDBRANCH   1  10
TORSDOF 8
ENDMDL
