MODEL 1
REMARK VINA RESULT:      -8.4      0.000      0.000
REMARK  3 active torsions:
REMARK  status: ('A' for Active; 'I' for Inactive)
REMARK    1  A    between atoms: C_7  and  N_1 
REMARK    2  A    between atoms: N_3  and  C_8 
REMARK    3  A    between atoms: C_11  and  C_4 
ROOT
ATOM      1  N   UNL d   1     -48.390  14.226  22.850  0.00  0.00    -0.230 N 
ATOM      2  N   UNL d   1     -48.550  15.027  22.851  0.00  0.00    -0.165 NA
ATOM      3  C   UNL d   1     -49.112  13.814  22.943  0.00  0.00     0.084 A 
ATOM      4  C   UNL d   1     -49.363  15.127  22.943  0.00  0.00     0.103 A 
ATOM      5  C   UNL d   1     -49.708  14.386  23.000  0.00  0.00     0.040 A 
ATOM      6  C   UNL d   1     -49.689  15.907  22.964  0.00  0.00     0.022 C 
ENDROOT
BRANCH   1   7
ATOM      7  C   UNL d   1     -47.646  13.894  22.771  0.00  0.00     0.083 A 
ATOM      8  C   UNL d   1     -47.180  13.773  23.436  0.00  0.00     0.021 A 
ATOM      9  C   UNL d   1     -46.430  13.438  23.357  0.00  0.00     0.025 A 
ATOM     10  C   UNL d   1     -46.141  13.222  22.616  0.00  0.00     0.127 A 
ATOM     11  C   UNL d   1     -46.609  13.344  21.949  0.00  0.00     0.025 A 
ATOM     12  C   UNL d   1     -47.362  13.680  22.031  0.00  0.00     0.021 A 
BRANCH  10  13
ATOM     13  N   UNL d   1     -45.378  12.882  22.543  0.00  0.00    -0.114 N 
ATOM     14  O   UNL d   1     -45.096  12.208  22.985  0.00  0.00    -0.532 OA
ATOM     15  O   UNL d   1     -44.782  13.159  22.023  0.00  0.00    -0.532 OA
ENDBRANCH  10  13
ENDBRANCH   1   7
BRANCH   3  16
ATOM     16  C   UNL d   1     -49.256  12.999  22.978  0.00  0.00     0.018 A 
ATOM     17  C   UNL d   1     -49.442  12.599  22.269  0.00  0.00     0.002 A 
ATOM     18  C   UNL d   1     -49.590  11.776  22.284  0.00  0.00     0.000 A 
ATOM     19  C   UNL d   1     -49.550  11.371  23.000  0.00  0.00     0.000 A 
ATOM     20  C   UNL d   1     -49.366  11.769  23.693  0.00  0.00     0.000 A 
ATOM     21  C   UNL d   1     -49.217  12.579  23.698  0.00  0.00     0.002 A 
ENDBRANCH   3  16
TORSDOF 3
ENDMDL
MODEL 2
REMARK VINA RESULT:      -8.1      1.000      2.319
REMARK  3 active torsions:
REMARK  status: ('A' for Active; 'I' for Inactive)
REMARK    1  A    between atoms: C_7  and  N_1 
REMARK    2  A    between atoms: N_3  and  C_8 
REMARK    3  A    between atoms: C_11  and  C_4 
ROOT
ATOM      1  N   UNL d   1     -48.871  12.600  23.157  0.00  0.00    -0.230 N 
ATOM      2  N   UNL d   1     -49.188  11.878  23.371  0.00  0.00    -0.165 NA
ATOM      3  C   UNL d   1     -49.493  13.158  23.123  0.00  0.00     0.084 A 
ATOM      4  C   UNL d   1     -50.000  11.973  23.473  0.00  0.00     0.103 A 
ATOM      5  C   UNL d   1     -50.189  12.756  23.321  0.00  0.00     0.040 A 
ATOM      6  C   UNL d   1     -50.474  11.310  23.698  0.00  0.00     0.022 C 
ENDROOT
BRANCH   1   7
ATOM      7  C   UNL d   1     -48.080  12.741  23.004  0.00  0.00     0.083 A 
ATOM      8  C   UNL d   1     -47.568  12.910  23.623  0.00  0.00     0.021 A 
ATOM      9  C   UNL d   1     -46.770  13.052  23.470  0.00  0.00     0.025 A 
ATOM     10  C   UNL d   1     -46.478  13.028  22.699  0.00  0.00     0.127 A 
ATOM     11  C   UNL d   1     -46.992  12.859  22.078  0.00  0.00     0.025 A 
ATOM     12  C   UNL d   1     -47.794  12.716  22.235  0.00  0.00     0.021 A 
BRANCH  10  13
ATOM     13  N   UNL d   1     -45.666  13.174  22.550  0.00  0.00    -0.114 N 
ATOM     14  O   UNL d   1     -45.040  12.600  22.640  0.00  0.00    -0.532 OA
ATOM     15  O   UNL d   1     -45.354  13.907  22.290  0.00  0.00    -0.532 OA
ENDBRANCH  10  13
ENDBRANCH   1   7
BRANCH   3  16
ATOM     16  C   UNL d   1     -49.470  13.965  22.933  0.00  0.00     0.018 A 
ATOM     17  C   UNL d   1     -49.414  14.517  23.557  0.00  0.00     0.002 A 
ATOM     18  C   UNL d   1     -49.389  15.335  23.386  0.00  0.00     0.000 A 
ATOM     19  C   UNL d   1     -49.420  15.585  22.602  0.00  0.00     0.000 A 
ATOM     20  C   UNL d   1     -49.475  15.039  21.993  0.00  0.00     0.000 A 
ATOM     21  C   UNL d   1     -49.500  14.229  22.142  0.00  0.00     0.002 A 
ENDBRANCH   3  16
TORSDOF 3
ENDMDL
MODEL 3
REMARK VINA RESULT:      -7.8      2.287      3.291
REMARK  3 active torsions:
REMARK  status: ('A' for Active; 'I' for Inactive)
REMARK    1  A    between atoms: C_7  and  N_1 
REMARK    2  A    between atoms: N_3  and  C_8 
REMARK    3  A    between atoms: C_11  and  C_4 
ROOT
ATOM      1  N   UNL d   1     -47.649  13.828  22.639  0.00  0.00    -0.230 N 
ATOM      2  N   UNL d   1     -46.912  14.166  22.540  0.00  0.00    -0.165 NA
ATOM      3  C   UNL d   1     -47.548  13.004  22.736  0.00  0.00     0.084 A 
ATOM      4  C   UNL d   1     -46.347  13.567  22.574  0.00  0.00     0.103 A 
ATOM      5  C   UNL d   1     -46.734  12.855  22.693  0.00  0.00     0.040 A 
ATOM      6  C   UNL d   1     -45.527  13.758  22.488  0.00  0.00     0.022 C 
ENDROOT
BRANCH   1   7
ATOM      7  C   UNL d   1     -48.358  14.236  22.640  0.00  0.00     0.083 A 
ATOM      8  C   UNL d   1     -48.648  14.548  23.342  0.00  0.00     0.021 A 
ATOM      9  C   UNL d   1     -49.363  14.960  23.344  0.00  0.00     0.025 A 
ATOM     10  C   UNL d   1     -49.793  15.063  22.648  0.00  0.00     0.127 A 
ATOM     11  C   UNL d   1     -49.502  14.749  21.944  0.00  0.00     0.025 A 
ATOM     12  C   UNL d   1     -48.783  14.336  21.945  0.00  0.00     0.021 A 
BRANCH  10  13
ATOM     13  N   UNL d   1     -50.519  15.482  22.658  0.00  0.00    -0.114 N 
ATOM     14  O   UNL d   1     -51.064  15.532  22.002  0.00  0.00    -0.532 OA
ATOM     15  O   UNL d   1     -50.812  15.912  23.315  0.00  0.00    -0.532 OA
ENDBRANCH  10  13
ENDBRANCH   1   7
BRANCH   3  16
ATOM     16  C   UNL d   1     -48.116  12.412  22.854  0.00  0.00     0.018 A 
ATOM     17  C   UNL d   1     -48.449  12.043  22.183  0.00  0.00     0.002 A 
ATOM     18  C   UNL d   1     -49.023  11.444  22.282  0.00  0.00     0.000 A 
ATOM     19  C   UNL d   1     -49.252  11.225  23.042  0.00  0.00     0.000 A 
ATOM     20  C   UNL d   1     -48.922  11.590  23.698  0.00  0.00     0.000 A 
ATOM     21  C   UNL d   1     -48.355  12.182  23.620  0.00  0.00     0.002 A 
ENDBRANCH   3  16
TORSDOF 3
ENDMDL
MODEL 4
REMARK VINA RESULT:      -6.2      8.329      9.975
REMARK  3 active torsions:
REMARK  status: ('A' for Active; 'I' for Inactive)
REMARK    1  A    between atoms: C_7  and  N_1 
REMARK    2  A    between atoms: N_3  and  C_8 
REMARK    3  A    between atoms: C_11  and  C_4 
ROOT
ATOM      1  N   UNL d   1     -39.152  13.863  18.562  0.00  0.00    -0.230 N 
ATOM      2  N   UNL d   1     -38.679  13.199  18.617  0.00  0.00    -0.165 NA
ATOM      3  C   UNL d   1     -39.294  14.017  17.752  0.00  0.00     0.084 A 
ATOM      4  C   UNL d   1     -38.521  12.932  17.854  0.00  0.00     0.103 A 
ATOM      5  C   UNL d   1     -38.896  13.430  17.323  0.00  0.00     0.040 A 
ATOM      6  C   UNL d   1     -38.039  12.245  17.742  0.00  0.00     0.022 C 
ENDROOT
BRANCH   1   7
ATOM      7  C   UNL d   1     -39.433  14.296  19.197  0.00  0.00     0.083 A 
ATOM      8  C   UNL d   1     -40.154  14.101  19.537  0.00  0.00     0.021 A 
ATOM      9  C   UNL d   1     -40.438  14.536  20.177  0.00  0.00     0.025 A 
ATOM     10  C   UNL d   1     -40.006  15.168  20.482  0.00  0.00     0.127 A 
ATOM     11  C   UNL d   1     -39.282  15.364  20.141  0.00  0.00     0.025 A 
ATOM     12  C   UNL d   1     -38.999  14.924  19.497  0.00  0.00     0.021 A 
BRANCH  10  13
ATOM     13  N   UNL d   1     -40.300  15.607  21.133  0.00  0.00    -0.114 N 
ATOM     14  O   UNL d   1     -41.091  15.922  21.195  0.00  0.00    -0.532 OA
ATOM     15  O   UNL d   1     -39.855  15.800  21.817  0.00  0.00    -0.532 OA
ENDBRANCH  10  13
ENDBRANCH   1   7
BRANCH   3  16
ATOM     16  C   UNL d   1     -39.737  14.621  17.398  0.00  0.00     0.018 A 
ATOM     17  C   UNL d   1     -39.335  15.302  17.130  0.00  0.00     0.002 A 
ATOM     18  C   UNL d   1     -39.764  15.922  16.770  0.00  0.00     0.000 A 
ATOM     19  C   UNL d   1     -40.581  15.853  16.686  0.00  0.00     0.000 A 
ATOM     20  C   UNL d   1     -40.971  15.182  16.951  0.00  0.00     0.000 A 
ATOM     21  C   UNL d   1     -40.564  14.561  17.308  0.00  0.00     0.002 A 
ENDBRANCH   3  16
TORSDOF 3
ENDMDL
MODEL 5
REMARK VINA RESULT:      -5.6      8.477      9.676
REMARK  3 active torsions:
REMARK  status: ('A' for Active; 'I' for Inactive)
REMARK    1  A    between atoms: C_7  and  N_1 
REMARK    2  A    between atoms: N_3  and  C_8 
REMARK    3  A    between atoms: C_11  and  C_4 
ROOT
ATOM      1  N   UNL d   1     -40.432  15.264  18.186  0.00  0.00    -0.230 N 
ATOM      2  N   UNL d   1     -41.058  15.677  17.862  0.00  0.00    -0.165 NA
ATOM      3  C   UNL d   1     -40.026  14.877  17.566  0.00  0.00     0.084 A 
ATOM      4  C   UNL d   1     -41.052  15.557  17.047  0.00  0.00     0.103 A 
ATOM      5  C   UNL d   1     -40.421  15.067  16.864  0.00  0.00     0.040 A 
ATOM      6  C   UNL d   1     -41.643  15.922  16.564  0.00  0.00     0.022 C 
ENDROOT
BRANCH   1   7
ATOM      7  C   UNL d   1     -40.245  15.239  18.981  0.00  0.00     0.083 A 
ATOM      8  C   UNL d   1     -39.735  15.799  19.298  0.00  0.00     0.021 A 
ATOM      9  C   UNL d   1     -39.545  15.776  20.101  0.00  0.00     0.025 A 
ATOM     10  C   UNL d   1     -39.862  15.195  20.592  0.00  0.00     0.127 A 
ATOM     11  C   UNL d   1     -40.374  14.633  20.274  0.00  0.00     0.025 A 
ATOM     12  C   UNL d   1     -40.563  14.659  19.467  0.00  0.00     0.021 A 
BRANCH  10  13
ATOM     13  N   UNL d   1     -39.665  15.176  21.407  0.00  0.00    -0.114 N 
ATOM     14  O   UNL d   1     -39.825  15.803  21.964  0.00  0.00    -0.532 OA
ATOM     15  O   UNL d   1     -39.282  14.536  21.789  0.00  0.00    -0.532 OA
ENDBRANCH  10  13
ENDBRANCH   1   7
BRANCH   3  16
ATOM     16  C   UNL d   1     -39.356  14.389  17.596  0.00  0.00     0.018 A 
ATOM     17  C   UNL d   1     -39.469  13.565  17.671  0.00  0.00     0.002 A 
ATOM     18  C   UNL d   1     -38.806  13.057  17.703  0.00  0.00     0.000 A 
ATOM     19  C   UNL d   1     -38.049  13.378  17.660  0.00  0.00     0.000 A 
ATOM     20  C   UNL d   1     -37.943  14.188  17.586  0.00  0.00     0.000 A 
ATOM     21  C   UNL d   1     -38.584  14.703  17.553  0.00  0.00     0.002 A 
ENDBRANCH   3  16
TORSDOF 3
ENDMDL
