MODEL 1
REMARK VINA RESULT:      23.0      0.000      0.000
REMARK  2 active torsions:
REMARK  status: ('A' for Active; 'I' for Inactive)
REMARK    1  A    between atoms: S_2  and  N_1 
REMARK    2  A    between atoms: N_6  and  S_2 
ROOT
ATOM      1  N   UNL d   1      13.459  12.359  -3.103  0.00  0.00    -0.199 N 
ATOM      2  C   UNL d   1      13.402  13.085  -3.480  0.00  0.00     0.095 A 
ATOM      3  C   UNL d   1      13.143  11.780  -3.621  0.00  0.00     0.194 A 
ATOM      4  N   UNL d   1      12.898  12.169  -4.309  0.00  0.00    -0.223 NA
ATOM      5  C   UNL d   1      13.058  12.970  -4.222  0.00  0.00     0.100 A 
ATOM      6  C   UNL d   1      13.624  13.839  -3.236  0.00  0.00     0.020 A 
ATOM      7  C   UNL d   1      12.937  13.618  -4.718  0.00  0.00     0.021 A 
ATOM      8  C   UNL d   1      13.503  14.487  -3.732  0.00  0.00     0.002 A 
ATOM      9  C   UNL d   1      13.158  14.377  -4.477  0.00  0.00     0.002 A 
ATOM     10  C   UNL d   1      13.725  15.245  -3.487  0.00  0.00     0.000 C 
ATOM     11  C   UNL d   1      13.035  15.025  -4.976  0.00  0.00     0.000 C 
ENDROOT
BRANCH   1  12
ATOM     12  S   UNL d   1      13.766  12.221  -2.361  0.00  0.00     0.339 S 
ATOM     13  O   UNL d   1      14.438  12.657  -2.548  0.00  0.00    -0.181 OA
ATOM     14  O   UNL d   1      13.096  11.784  -2.170  0.00  0.00    -0.181 OA
BRANCH  12  15
ATOM     15  N   UNL d   1      14.065  12.075  -1.608  0.00  0.00    -0.212 N 
ATOM     16  C   UNL d   1      13.549  11.965  -0.974  0.00  0.00     0.120 A 
ATOM     17  C   UNL d   1      13.847  11.820  -0.225  0.00  0.00     0.142 A 
ATOM     18  O   UNL d   1      14.652  11.782  -0.099  0.00  0.00    -0.300 OA
ATOM     19  C   UNL d   1      15.175  11.890  -0.727  0.00  0.00     0.142 A 
ATOM     20  C   UNL d   1      14.876  12.038  -1.489  0.00  0.00     0.120 A 
ENDBRANCH  12  15
ENDBRANCH   1  12
TORSDOF 2
ENDMDL
