MODEL 1
REMARK VINA RESULT:      43.2      0.000      0.000
REMARK  3 active torsions:
REMARK  status: ('A' for Active; 'I' for Inactive)
REMARK    1  A    between atoms: C_5  and  C_1 
REMARK       I    between atoms: N_7  and  C_5 
REMARK    2  A    between atoms: C_15  and  N_10 
REMARK    3  A    between atoms: C_21  and  C_15 
ROOT
ATOM      1  C   UNL d   1      14.859  13.109  -0.626  0.00  0.00     0.270 C 
ATOM      2  N   UNL d   1      14.455  12.832  -1.314  0.00  0.00    -0.270 N 
ATOM      3  N   UNL d   1      13.657  12.294  -2.683  0.00  0.00    -0.300 N 
ATOM      4  O   UNL d   1      14.961  12.607  -0.015  0.00  0.00    -0.269 OA
ATOM      5  C   UNL d   1      14.167  12.042  -1.354  0.00  0.00     0.102 A 
ATOM      6  C   UNL d   1      14.350  13.360  -1.950  0.00  0.00     0.102 A 
ATOM      7  C   UNL d   1      13.774  11.780  -2.029  0.00  0.00     0.100 A 
ATOM      8  C   UNL d   1      13.945  13.085  -2.644  0.00  0.00     0.100 A 
ENDROOT
BRANCH   1   9
ATOM      9  C   UNL d   1      15.129  13.851  -0.589  0.00  0.00     0.191 A 
ATOM     10  O   UNL d   1      15.852  13.583  -0.487  0.00  0.00    -0.293 OA
ATOM     11  C   UNL d   1      16.123  14.325  -0.450  0.00  0.00     0.275 A 
ATOM     12  O   UNL d   1      16.842  14.674  -0.350  0.00  0.00    -0.264 OA
ATOM     13  C   UNL d   1      15.393  14.614  -0.552  0.00  0.00     0.099 A 
ATOM     14  C   UNL d   1      15.050  15.335  -0.601  0.00  0.00     0.047 A 
ATOM     15  C   UNL d   1      15.831  15.263  -0.492  0.00  0.00     0.014 C 
ATOM     16  C   UNL d   1      14.615  14.463  -0.661  0.00  0.00    -0.019 A 
ATOM     17  C   UNL d   1      15.501  15.983  -0.538  0.00  0.00     0.004 C 
ATOM     18  C   UNL d   1      14.315  15.608  -0.703  0.00  0.00     0.004 C 
ATOM     19  C   UNL d   1      14.353  13.718  -0.697  0.00  0.00     0.006 A 
ENDBRANCH   1   9
BRANCH   3  20
ATOM     20  C   UNL d   1      13.254  12.027  -3.378  0.00  0.00     0.080 C 
BRANCH  20  21
ATOM     21  C   UNL d   1      13.259  12.497  -4.076  0.00  0.00     0.018 A 
ATOM     22  C   UNL d   1      12.781  13.184  -4.122  0.00  0.00     0.002 A 
ATOM     23  C   UNL d   1      12.778  13.664  -4.820  0.00  0.00     0.000 A 
ATOM     24  C   UNL d   1      13.270  13.433  -5.469  0.00  0.00     0.000 A 
ATOM     25  C   UNL d   1      13.750  12.742  -5.422  0.00  0.00     0.000 A 
ATOM     26  C   UNL d   1      13.743  12.276  -4.726  0.00  0.00     0.002 A 
ENDBRANCH  20  21
ENDBRANCH   3  20
TORSDOF 3
ENDMDL
