MODEL 1
REMARK VINA RESULT:      28.5      0.000      0.000
REMARK  1 active torsions:
REMARK  status: ('A' for Active; 'I' for Inactive)
REMARK    1  A    between atoms: C_10  and  N_2 
ROOT
ATOM      1  C   UNL d   1      58.207  49.679  51.113  0.00  0.00     0.166 A 
ATOM      2  N   UNL d   1      57.379  49.674  51.192  0.00  0.00    -0.291 N 
ATOM      3  C   UNL d   1      58.362  49.692  50.305  0.00  0.00     0.117 A 
ATOM      4  C   UNL d   1      57.048  49.684  50.450  0.00  0.00     0.067 A 
ATOM      5  N   UNL d   1      58.824  49.673  51.674  0.00  0.00    -0.225 NA
ATOM      6  C   UNL d   1      57.660  49.695  49.897  0.00  0.00     0.037 A 
ATOM      7  N   UNL d   1      59.159  49.699  50.070  0.00  0.00    -0.241 NA
ATOM      8  C   UNL d   1      59.595  49.680  51.426  0.00  0.00     0.101 A 
ATOM      9  C   UNL d   1      59.757  49.693  50.611  0.00  0.00     0.099 A 
ATOM     10  C   UNL d   1      56.258  49.685  50.195  0.00  0.00     0.018 A 
ATOM     11  C   UNL d   1      57.482  49.707  49.089  0.00  0.00     0.003 A 
ATOM     12  C   UNL d   1      60.534  49.701  50.355  0.00  0.00     0.021 A 
ATOM     13  C   UNL d   1      60.198  49.675  51.961  0.00  0.00     0.021 A 
ATOM     14  C   UNL d   1      56.084  49.696  49.383  0.00  0.00     0.002 A 
ATOM     15  C   UNL d   1      56.696  49.707  48.830  0.00  0.00     0.000 A 
ATOM     16  C   UNL d   1      60.997  49.682  51.687  0.00  0.00     0.002 A 
ATOM     17  C   UNL d   1      61.174  49.695  50.896  0.00  0.00     0.002 A 
ENDROOT
BRANCH   2  18
ATOM     18  C   UNL d   1      56.975  49.662  51.893  0.00  0.00     0.066 C 
ATOM     19  C   UNL d   1      56.131  49.610  51.872  0.00  0.00     0.019 C 
ATOM     20  C   UNL d   1      57.388  49.700  52.602  0.00  0.00     0.019 C 
ENDBRANCH   2  18
TORSDOF 1
ENDMDL
