MODEL 1
REMARK VINA RESULT:      57.2      0.000      0.000
REMARK  5 active torsions:
REMARK  status: ('A' for Active; 'I' for Inactive)
REMARK    1  A    between atoms: C_16  and  N_5 
REMARK    2  A    between atoms: S_12  and  C_6 
REMARK    3  A    between atoms: C_10  and  C_14 
REMARK       I    between atoms: N_11  and  C_10 
REMARK    4  A    between atoms: C_14  and  S_12 
REMARK    5  A    between atoms: C_18  and  C_16 
ROOT
ATOM      1  C   UNL d   1     -51.601  24.947  33.313  0.00  0.00     0.081 A 
ATOM      2  C   UNL d   1     -51.872  25.725  33.311  0.00  0.00     0.117 A 
ATOM      3  N   UNL d   1     -51.346  26.347  33.312  0.00  0.00    -0.215 NA
ATOM      4  C   UNL d   1     -50.795  24.795  33.316  0.00  0.00     0.268 A 
ATOM      5  N   UNL d   1     -50.262  25.418  33.317  0.00  0.00    -0.253 N 
ATOM      6  C   UNL d   1     -50.520  26.218  33.315  0.00  0.00     0.182 A 
ATOM      7  S   UNL d   1     -52.726  25.697  33.309  0.00  0.00    -0.068 SA
ATOM      8  C   UNL d   1     -52.270  24.460  33.312  0.00  0.00     0.013 A 
ATOM      9  C   UNL d   1     -52.940  24.941  33.309  0.00  0.00     0.031 A 
ATOM     10  O   UNL d   1     -50.487  24.025  33.318  0.00  0.00    -0.267 OA
ATOM     11  C   UNL d   1     -52.349  23.633  33.312  0.00  0.00     0.001 A 
ATOM     12  C   UNL d   1     -53.688  24.589  33.307  0.00  0.00     0.006 A 
ATOM     13  C   UNL d   1     -53.099  23.309  33.310  0.00  0.00     0.000 A 
ATOM     14  C   UNL d   1     -53.753  23.771  33.308  0.00  0.00     0.001 A 
ENDROOT
BRANCH   6  15
ATOM     15  S   UNL d   1     -49.988  26.841  33.316  0.00  0.00    -0.044 SA
BRANCH  15  16
ATOM     16  C   UNL d   1     -49.826  27.238  34.014  0.00  0.00     0.099 C 
BRANCH  16  17
ATOM     17  C   UNL d   1     -49.615  28.039  33.984  0.00  0.00     0.272 C 
ATOM     18  N   UNL d   1     -49.061  28.389  34.487  0.00  0.00    -0.267 N 
ATOM     19  C   UNL d   1     -48.882  29.182  34.422  0.00  0.00     0.110 A 
ATOM     20  C   UNL d   1     -48.680  27.934  35.062  0.00  0.00     0.110 A 
ATOM     21  C   UNL d   1     -48.321  29.571  34.920  0.00  0.00     0.142 A 
ATOM     22  O   UNL d   1     -47.946  29.107  35.492  0.00  0.00    -0.300 OA
ATOM     23  C   UNL d   1     -48.127  28.268  35.569  0.00  0.00     0.142 A 
ATOM     24  O   UNL d   1     -50.031  28.452  33.382  0.00  0.00    -0.266 OA
ENDBRANCH  16  17
ENDBRANCH  15  16
ENDBRANCH   6  15
BRANCH   5  25
ATOM     25  C   UNL d   1     -49.428  25.268  33.320  0.00  0.00     0.085 C 
BRANCH  25  26
ATOM     26  C   UNL d   1     -49.108  24.495  33.446  0.00  0.00     0.019 C 
ATOM     27  C   UNL d   1     -48.412  24.373  33.867  0.00  0.00     0.002 C 
ENDBRANCH  25  26
ENDBRANCH   5  25
TORSDOF 5
ENDMDL
