MODEL 1
REMARK VINA RESULT:      25.8      0.000      0.000
REMARK  2 active torsions:
REMARK  status: ('A' for Active; 'I' for Inactive)
REMARK    1  A    between atoms: C_9  and  C_1 
REMARK    2  A    between atoms: O_13  and  C_11 
ROOT
ATOM      1  C   UNL d   1     -54.836-101.656 -37.502  0.00  0.00     0.064 A 
ATOM      2  C   UNL d   1     -54.778-101.221 -38.194  0.00  0.00     0.199 A 
ATOM      3  C   UNL d   1     -54.785-101.583 -38.941  0.00  0.00     0.062 A 
ATOM      4  C   UNL d   1     -54.904-102.500 -37.547  0.00  0.00     0.126 A 
ATOM      5  C   UNL d   1     -54.852-102.405 -38.985  0.00  0.00     0.105 A 
ATOM      6  O   UNL d   1     -54.912-102.873 -38.282  0.00  0.00    -0.305 OA
ATOM      7  C   UNL d   1     -54.729-101.150 -39.607  0.00  0.00     0.007 A 
ATOM      8  C   UNL d   1     -54.863-102.801 -39.695  0.00  0.00     0.049 A 
ATOM      9  O   UNL d   1     -54.712-100.404 -38.151  0.00  0.00    -0.286 OA
ATOM     10  C   UNL d   1     -54.805-102.356 -40.387  0.00  0.00     0.096 A 
ATOM     11  C   UNL d   1     -54.736-101.512 -40.342  0.00  0.00     0.024 A 
ENDROOT
BRANCH   1  12
ATOM     12  C   UNL d   1     -54.825-101.270 -36.793  0.00  0.00     0.005 A 
ATOM     13  C   UNL d   1     -54.846-101.710 -36.073  0.00  0.00     0.000 A 
ATOM     14  C   UNL d   1     -54.835-101.324 -35.364  0.00  0.00     0.000 A 
ATOM     15  C   UNL d   1     -54.805-100.500 -35.331  0.00  0.00     0.000 A 
ATOM     16  C   UNL d   1     -54.785-100.052 -36.040  0.00  0.00     0.000 A 
ATOM     17  C   UNL d   1     -54.795-100.444 -36.759  0.00  0.00     0.000 A 
ENDBRANCH   1  12
BRANCH  10  18
ATOM     18  O   UNL d   1     -54.817-102.778 -41.137  0.00  0.00    -0.328 OA
ATOM     19  C   UNL d   1     -54.725-102.348 -41.829  0.00  0.00     0.181 C 
ENDBRANCH  10  18
TORSDOF 2
ENDMDL
