MODEL 1
REMARK VINA RESULT:      -7.6      0.000      0.000
REMARK  5 active torsions:
REMARK  status: ('A' for Active; 'I' for Inactive)
REMARK    1  A    between atoms: N_2  and  C_1 
REMARK    2  A    between atoms: C_8  and  C_1 
REMARK    3  A    between atoms: O_5  and  N_2 
REMARK    4  A    between atoms: C_3  and  O_5 
REMARK    5  A    between atoms: C_4  and  C_3 
ROOT
ATOM      1  C   UNL d   1      53.995  32.583  53.542  0.00  0.00     0.319 C 
ATOM      2  O   UNL d   1      54.864  32.478  53.318  0.00  0.00    -0.257 OA
ENDROOT
BRANCH   1   3
ATOM      3  O   UNL d   1      53.428  31.872  53.471  0.00  0.00    -0.168 OA
BRANCH   3   4
ATOM      4  N   UNL d   1      53.709  31.104  53.579  0.00  0.00    -0.100 NA
BRANCH   4   5
ATOM      5  C   UNL d   1      53.181  30.473  53.517  0.00  0.00     0.228 C 
ATOM      6  N   UNL d   1      52.565  30.490  52.956  0.00  0.00    -0.123 N 
BRANCH   5   7
ATOM      7  C   UNL d   1      53.273  29.825  54.018  0.00  0.00     0.121 A 
ATOM      8  N   UNL d   1      52.967  29.878  54.779  0.00  0.00    -0.241 NA
ATOM      9  C   UNL d   1      53.051  29.227  55.304  0.00  0.00     0.099 A 
ATOM     10  C   UNL d   1      53.441  28.545  55.043  0.00  0.00     0.021 A 
ATOM     11  C   UNL d   1      53.740  28.510  54.281  0.00  0.00     0.003 A 
ATOM     12  C   UNL d   1      53.653  29.151  53.775  0.00  0.00     0.022 A 
ENDBRANCH   5   7
ENDBRANCH   4   5
ENDBRANCH   3   4
ENDBRANCH   1   3
BRANCH   1  13
ATOM     13  C   UNL d   1      53.707  33.313  53.811  0.00  0.00     0.065 A 
ATOM     14  C   UNL d   1      53.204  33.742  53.319  0.00  0.00     0.005 A 
ATOM     15  C   UNL d   1      52.913  34.469  53.580  0.00  0.00     0.000 A 
ATOM     16  C   UNL d   1      52.403  34.920  53.099  0.00  0.00     0.000 C 
ATOM     17  C   UNL d   1      53.122  34.759  54.314  0.00  0.00     0.000 A 
ATOM     18  C   UNL d   1      53.623  34.325  54.797  0.00  0.00     0.000 A 
ATOM     19  C   UNL d   1      52.838  35.493  54.596  0.00  0.00     0.000 C 
ATOM     20  C   UNL d   1      53.914  33.602  54.543  0.00  0.00     0.005 A 
ENDBRANCH   1  13
TORSDOF 5
ENDMDL
MODEL 2
REMARK VINA RESULT:      -7.5      2.804      4.779
REMARK  5 active torsions:
REMARK  status: ('A' for Active; 'I' for Inactive)
REMARK    1  A    between atoms: N_2  and  C_1 
REMARK    2  A    between atoms: C_8  and  C_1 
REMARK    3  A    between atoms: O_5  and  N_2 
REMARK    4  A    between atoms: C_3  and  O_5 
REMARK    5  A    between atoms: C_4  and  C_3 
ROOT
ATOM      1  C   UNL d   1      52.543  34.479  53.248  0.00  0.00     0.319 C 
ATOM      2  O   UNL d   1      52.731  35.121  52.641  0.00  0.00    -0.257 OA
ENDROOT
BRANCH   1   3
ATOM      3  O   UNL d   1      51.702  34.129  53.281  0.00  0.00    -0.168 OA
BRANCH   3   4
ATOM      4  N   UNL d   1      51.094  34.467  52.838  0.00  0.00    -0.100 NA
BRANCH   4   5
ATOM      5  C   UNL d   1      50.347  34.117  52.852  0.00  0.00     0.228 C 
ATOM      6  N   UNL d   1      50.237  33.368  53.200  0.00  0.00    -0.123 N 
BRANCH   5   7
ATOM      7  C   UNL d   1      49.711  34.521  52.518  0.00  0.00     0.121 A 
ATOM      8  N   UNL d   1      49.298  35.052  52.990  0.00  0.00    -0.241 NA
ATOM      9  C   UNL d   1      48.647  35.472  52.665  0.00  0.00     0.099 A 
ATOM     10  C   UNL d   1      48.434  35.342  51.875  0.00  0.00     0.021 A 
ATOM     11  C   UNL d   1      48.857  34.808  51.420  0.00  0.00     0.003 A 
ATOM     12  C   UNL d   1      49.492  34.402  51.746  0.00  0.00     0.022 A 
ENDBRANCH   5   7
ENDBRANCH   4   5
ENDBRANCH   3   4
ENDBRANCH   1   3
BRANCH   1  13
ATOM     13  C   UNL d   1      53.124  34.204  53.774  0.00  0.00     0.065 A 
ATOM     14  C   UNL d   1      53.565  33.541  53.560  0.00  0.00     0.005 A 
ATOM     15  C   UNL d   1      54.144  33.263  54.078  0.00  0.00     0.000 A 
ATOM     16  C   UNL d   1      54.602  32.595  53.883  0.00  0.00     0.000 C 
ATOM     17  C   UNL d   1      54.278  33.637  54.790  0.00  0.00     0.000 A 
ATOM     18  C   UNL d   1      53.834  34.296  54.995  0.00  0.00     0.000 A 
ATOM     19  C   UNL d   1      54.860  33.370  55.328  0.00  0.00     0.000 C 
ATOM     20  C   UNL d   1      53.257  34.577  54.484  0.00  0.00     0.005 A 
ENDBRANCH   1  13
TORSDOF 5
ENDMDL
MODEL 3
REMARK VINA RESULT:      -7.5      1.854      4.454
REMARK  5 active torsions:
REMARK  status: ('A' for Active; 'I' for Inactive)
REMARK    1  A    between atoms: N_2  and  C_1 
REMARK    2  A    between atoms: C_8  and  C_1 
REMARK    3  A    between atoms: O_5  and  N_2 
REMARK    4  A    between atoms: C_3  and  O_5 
REMARK    5  A    between atoms: C_4  and  C_3 
ROOT
ATOM      1  C   UNL d   1      53.779  32.545  53.498  0.00  0.00     0.319 C 
ATOM      2  O   UNL d   1      54.566  32.806  53.138  0.00  0.00    -0.257 OA
ENDROOT
BRANCH   1   3
ATOM      3  O   UNL d   1      53.145  33.173  53.684  0.00  0.00    -0.168 OA
BRANCH   3   4
ATOM      4  N   UNL d   1      52.907  33.708  53.103  0.00  0.00    -0.100 NA
BRANCH   4   5
ATOM      5  C   UNL d   1      52.356  34.290  53.297  0.00  0.00     0.228 C 
ATOM      6  N   UNL d   1      52.526  34.855  53.886  0.00  0.00    -0.123 N 
BRANCH   5   7
ATOM      7  C   UNL d   1      51.634  34.304  52.900  0.00  0.00     0.121 A 
ATOM      8  N   UNL d   1      50.945  34.316  53.349  0.00  0.00    -0.241 NA
ATOM      9  C   UNL d   1      50.200  34.330  52.961  0.00  0.00     0.099 A 
ATOM     10  C   UNL d   1      50.175  34.332  52.133  0.00  0.00     0.021 A 
ATOM     11  C   UNL d   1      50.872  34.320  51.702  0.00  0.00     0.003 A 
ATOM     12  C   UNL d   1      51.595  34.306  52.090  0.00  0.00     0.022 A 
ENDBRANCH   5   7
ENDBRANCH   4   5
ENDBRANCH   3   4
ENDBRANCH   1   3
BRANCH   1  13
ATOM     13  C   UNL d   1      53.627  31.746  53.661  0.00  0.00     0.065 A 
ATOM     14  C   UNL d   1      53.342  31.269  53.052  0.00  0.00     0.005 A 
ATOM     15  C   UNL d   1      53.189  30.473  53.207  0.00  0.00     0.000 A 
ATOM     16  C   UNL d   1      52.900  29.971  52.607  0.00  0.00     0.000 C 
ATOM     17  C   UNL d   1      53.317  30.163  53.951  0.00  0.00     0.000 A 
ATOM     18  C   UNL d   1      53.601  30.645  54.550  0.00  0.00     0.000 A 
ATOM     19  C   UNL d   1      53.168  29.359  54.127  0.00  0.00     0.000 C 
ATOM     20  C   UNL d   1      53.755  31.437  54.402  0.00  0.00     0.005 A 
ENDBRANCH   1  13
TORSDOF 5
ENDMDL
MODEL 4
REMARK VINA RESULT:      -7.3      2.782      4.377
REMARK  5 active torsions:
REMARK  status: ('A' for Active; 'I' for Inactive)
REMARK    1  A    between atoms: N_2  and  C_1 
REMARK    2  A    between atoms: C_8  and  C_1 
REMARK    3  A    between atoms: O_5  and  N_2 
REMARK    4  A    between atoms: C_3  and  O_5 
REMARK    5  A    between atoms: C_4  and  C_3 
ROOT
ATOM      1  C   UNL d   1      50.684  33.904  53.071  0.00  0.00     0.319 C 
ATOM      2  O   UNL d   1      50.582  33.056  53.369  0.00  0.00    -0.257 OA
ENDROOT
BRANCH   1   3
ATOM      3  O   UNL d   1      51.487  34.321  53.183  0.00  0.00    -0.168 OA
BRANCH   3   4
ATOM      4  N   UNL d   1      52.123  33.915  53.514  0.00  0.00    -0.100 NA
BRANCH   4   5
ATOM      5  C   UNL d   1      52.827  34.323  53.656  0.00  0.00     0.228 C 
ATOM      6  N   UNL d   1      52.906  35.121  53.431  0.00  0.00    -0.123 N 
BRANCH   5   7
ATOM      7  C   UNL d   1      53.450  33.928  54.023  0.00  0.00     0.121 A 
ATOM      8  N   UNL d   1      53.854  33.357  53.591  0.00  0.00    -0.241 NA
ATOM      9  C   UNL d   1      54.493  32.944  53.950  0.00  0.00     0.099 A 
ATOM     10  C   UNL d   1      54.701  33.121  54.732  0.00  0.00     0.021 A 
ATOM     11  C   UNL d   1      54.286  33.694  55.147  0.00  0.00     0.003 A 
ATOM     12  C   UNL d   1      53.664  34.092  54.788  0.00  0.00     0.022 A 
ENDBRANCH   5   7
ENDBRANCH   4   5
ENDBRANCH   3   4
ENDBRANCH   1   3
BRANCH   1  13
ATOM     13  C   UNL d   1      50.059  34.305  52.700  0.00  0.00     0.065 A 
ATOM     14  C   UNL d   1      49.600  34.819  53.152  0.00  0.00     0.005 A 
ATOM     15  C   UNL d   1      48.977  35.221  52.790  0.00  0.00     0.000 A 
ATOM     16  C   UNL d   1      48.499  35.745  53.226  0.00  0.00     0.000 C 
ATOM     17  C   UNL d   1      48.819  35.111  51.996  0.00  0.00     0.000 A 
ATOM     18  C   UNL d   1      49.281  34.598  51.555  0.00  0.00     0.000 A 
ATOM     19  C   UNL d   1      48.192  35.510  51.612  0.00  0.00     0.000 C 
ATOM     20  C   UNL d   1      49.902  34.196  51.910  0.00  0.00     0.005 A 
ENDBRANCH   1  13
TORSDOF 5
ENDMDL
MODEL 5
REMARK VINA RESULT:      -7.0      1.418      4.639
REMARK  5 active torsions:
REMARK  status: ('A' for Active; 'I' for Inactive)
REMARK    1  A    between atoms: N_2  and  C_1 
REMARK    2  A    between atoms: C_8  and  C_1 
REMARK    3  A    between atoms: O_5  and  N_2 
REMARK    4  A    between atoms: C_3  and  O_5 
REMARK    5  A    between atoms: C_4  and  C_3 
ROOT
ATOM      1  C   UNL d   1      54.075  31.697  53.565  0.00  0.00     0.319 C 
ATOM      2  O   UNL d   1      54.752  31.847  52.984  0.00  0.00    -0.257 OA
ENDROOT
BRANCH   1   3
ATOM      3  O   UNL d   1      53.916  32.302  54.229  0.00  0.00    -0.168 OA
BRANCH   3   4
ATOM      4  N   UNL d   1      54.046  33.106  54.098  0.00  0.00    -0.100 NA
BRANCH   4   5
ATOM      5  C   UNL d   1      53.975  33.630  54.731  0.00  0.00     0.228 C 
ATOM      6  N   UNL d   1      54.325  33.456  55.466  0.00  0.00    -0.123 N 
BRANCH   5   7
ATOM      7  C   UNL d   1      53.550  34.329  54.624  0.00  0.00     0.121 A 
ATOM      8  N   UNL d   1      53.443  34.820  55.275  0.00  0.00    -0.241 NA
ATOM      9  C   UNL d   1      53.013  35.536  55.184  0.00  0.00     0.099 A 
ATOM     10  C   UNL d   1      52.706  35.733  54.440  0.00  0.00     0.021 A 
ATOM     11  C   UNL d   1      52.824  35.231  53.802  0.00  0.00     0.003 A 
ATOM     12  C   UNL d   1      53.245  34.534  53.901  0.00  0.00     0.022 A 
ENDBRANCH   5   7
ENDBRANCH   4   5
ENDBRANCH   3   4
ENDBRANCH   1   3
BRANCH   1  13
ATOM     13  C   UNL d   1      53.600  31.020  53.503  0.00  0.00     0.065 A 
ATOM     14  C   UNL d   1      53.751  30.386  54.009  0.00  0.00     0.005 A 
ATOM     15  C   UNL d   1      53.283  29.710  53.952  0.00  0.00     0.000 A 
ATOM     16  C   UNL d   1      53.417  29.057  54.453  0.00  0.00     0.000 C 
ATOM     17  C   UNL d   1      52.679  29.668  53.405  0.00  0.00     0.000 A 
ATOM     18  C   UNL d   1      52.536  30.303  52.907  0.00  0.00     0.000 A 
ATOM     19  C   UNL d   1      52.193  28.991  53.333  0.00  0.00     0.000 C 
ATOM     20  C   UNL d   1      52.998  30.978  52.958  0.00  0.00     0.005 A 
ENDBRANCH   1  13
TORSDOF 5
ENDMDL
MODEL 6
REMARK VINA RESULT:      -7.0      4.551      6.531
REMARK  5 active torsions:
REMARK  status: ('A' for Active; 'I' for Inactive)
REMARK    1  A    between atoms: N_2  and  C_1 
REMARK    2  A    between atoms: C_8  and  C_1 
REMARK    3  A    between atoms: O_5  and  N_2 
REMARK    4  A    between atoms: C_3  and  O_5 
REMARK    5  A    between atoms: C_4  and  C_3 
ROOT
ATOM      1  C   UNL d   1      49.982  34.525  52.537  0.00  0.00     0.319 C 
ATOM      2  O   UNL d   1      49.733  34.349  51.686  0.00  0.00    -0.257 OA
ENDROOT
BRANCH   1   3
ATOM      3  O   UNL d   1      49.461  35.071  53.049  0.00  0.00    -0.168 OA
BRANCH   3   4
ATOM      4  N   UNL d   1      48.739  35.347  52.760  0.00  0.00    -0.100 NA
BRANCH   4   5
ATOM      5  C   UNL d   1      48.297  35.867  53.223  0.00  0.00     0.228 C 
ATOM      6  N   UNL d   1      48.630  36.219  53.900  0.00  0.00    -0.123 N 
BRANCH   5   7
ATOM      7  C   UNL d   1      47.519  36.033  53.005  0.00  0.00     0.121 A 
ATOM      8  N   UNL d   1      46.926  35.906  53.560  0.00  0.00    -0.241 NA
ATOM      9  C   UNL d   1      46.128  36.070  53.354  0.00  0.00     0.099 A 
ATOM     10  C   UNL d   1      45.955  36.355  52.596  0.00  0.00     0.021 A 
ATOM     11  C   UNL d   1      46.560  36.476  52.056  0.00  0.00     0.003 A 
ATOM     12  C   UNL d   1      47.337  36.313  52.266  0.00  0.00     0.022 A 
ENDBRANCH   5   7
ENDBRANCH   4   5
ENDBRANCH   3   4
ENDBRANCH   1   3
BRANCH   1  13
ATOM     13  C   UNL d   1      50.675  34.199  52.856  0.00  0.00     0.065 A 
ATOM     14  C   UNL d   1      51.360  34.658  52.857  0.00  0.00     0.005 A 
ATOM     15  C   UNL d   1      52.053  34.340  53.174  0.00  0.00     0.000 A 
ATOM     16  C   UNL d   1      52.757  34.785  53.186  0.00  0.00     0.000 C 
ATOM     17  C   UNL d   1      52.059  33.584  53.480  0.00  0.00     0.000 A 
ATOM     18  C   UNL d   1      51.373  33.135  53.475  0.00  0.00     0.000 A 
ATOM     19  C   UNL d   1      52.751  33.244  53.805  0.00  0.00     0.000 C 
ATOM     20  C   UNL d   1      50.681  33.446  53.162  0.00  0.00     0.005 A 
ENDBRANCH   1  13
TORSDOF 5
ENDMDL
MODEL 7
REMARK VINA RESULT:      -7.0      1.526      2.261
REMARK  5 active torsions:
REMARK  status: ('A' for Active; 'I' for Inactive)
REMARK    1  A    between atoms: N_2  and  C_1 
REMARK    2  A    between atoms: C_8  and  C_1 
REMARK    3  A    between atoms: O_5  and  N_2 
REMARK    4  A    between atoms: C_3  and  O_5 
REMARK    5  A    between atoms: C_4  and  C_3 
ROOT
ATOM      1  C   UNL d   1      52.527  33.664  53.716  0.00  0.00     0.319 C 
ATOM      2  O   UNL d   1      52.786  34.106  54.461  0.00  0.00    -0.257 OA
ENDROOT
BRANCH   1   3
ATOM      3  O   UNL d   1      53.051  32.990  53.394  0.00  0.00    -0.168 OA
BRANCH   3   4
ATOM      4  N   UNL d   1      53.245  32.349  53.874  0.00  0.00    -0.100 NA
BRANCH   4   5
ATOM      5  C   UNL d   1      53.736  31.759  53.573  0.00  0.00     0.228 C 
ATOM      6  N   UNL d   1      54.484  31.950  53.259  0.00  0.00    -0.123 N 
BRANCH   5   7
ATOM      7  C   UNL d   1      53.475  30.977  53.588  0.00  0.00     0.121 A 
ATOM      8  N   UNL d   1      53.578  30.548  54.281  0.00  0.00    -0.241 NA
ATOM      9  C   UNL d   1      53.318  29.749  54.314  0.00  0.00     0.099 A 
ATOM     10  C   UNL d   1      52.964  29.411  53.646  0.00  0.00     0.021 A 
ATOM     11  C   UNL d   1      52.870  29.854  52.963  0.00  0.00     0.003 A 
ATOM     12  C   UNL d   1      53.127  30.634  52.941  0.00  0.00     0.022 A 
ENDBRANCH   5   7
ENDBRANCH   4   5
ENDBRANCH   3   4
ENDBRANCH   1   3
BRANCH   1  13
ATOM     13  C   UNL d   1      51.823  33.862  53.323  0.00  0.00     0.065 A 
ATOM     14  C   UNL d   1      51.863  34.065  52.525  0.00  0.00     0.005 A 
ATOM     15  C   UNL d   1      51.167  34.263  52.128  0.00  0.00     0.000 A 
ATOM     16  C   UNL d   1      51.183  34.471  51.321  0.00  0.00     0.000 C 
ATOM     17  C   UNL d   1      50.451  34.258  52.520  0.00  0.00     0.000 A 
ATOM     18  C   UNL d   1      50.422  34.056  53.314  0.00  0.00     0.000 A 
ATOM     19  C   UNL d   1      49.736  34.456  52.135  0.00  0.00     0.000 C 
ATOM     20  C   UNL d   1      51.110  33.858  53.713  0.00  0.00     0.005 A 
ENDBRANCH   1  13
TORSDOF 5
ENDMDL
MODEL 8
REMARK VINA RESULT:      -6.7      2.522      3.328
REMARK  5 active torsions:
REMARK  status: ('A' for Active; 'I' for Inactive)
REMARK    1  A    between atoms: N_2  and  C_1 
REMARK    2  A    between atoms: C_8  and  C_1 
REMARK    3  A    between atoms: O_5  and  N_2 
REMARK    4  A    between atoms: C_3  and  O_5 
REMARK    5  A    between atoms: C_4  and  C_3 
ROOT
ATOM      1  C   UNL d   1      52.258  32.405  52.962  0.00  0.00     0.319 C 
ATOM      2  O   UNL d   1      52.059  31.523  52.958  0.00  0.00    -0.257 OA
ENDROOT
BRANCH   1   3
ATOM      3  O   UNL d   1      53.129  32.664  53.042  0.00  0.00    -0.168 OA
BRANCH   3   4
ATOM      4  N   UNL d   1      53.591  32.381  53.664  0.00  0.00    -0.100 NA
BRANCH   4   5
ATOM      5  C   UNL d   1      54.370  32.645  53.734  0.00  0.00     0.228 C 
ATOM      6  N   UNL d   1      54.915  32.522  53.117  0.00  0.00    -0.123 N 
BRANCH   5   7
ATOM      7  C   UNL d   1      54.599  33.032  54.425  0.00  0.00     0.121 A 
ATOM      8  N   UNL d   1      54.277  32.777  55.137  0.00  0.00    -0.241 NA
ATOM      9  C   UNL d   1      54.499  33.161  55.851  0.00  0.00     0.099 A 
ATOM     10  C   UNL d   1      55.039  33.788  55.822  0.00  0.00     0.021 A 
ATOM     11  C   UNL d   1      55.350  34.029  55.103  0.00  0.00     0.003 A 
ATOM     12  C   UNL d   1      55.127  33.648  54.411  0.00  0.00     0.022 A 
ENDBRANCH   5   7
ENDBRANCH   4   5
ENDBRANCH   3   4
ENDBRANCH   1   3
BRANCH   1  13
ATOM     13  C   UNL d   1      51.662  32.979  52.896  0.00  0.00     0.065 A 
ATOM     14  C   UNL d   1      51.646  33.450  52.220  0.00  0.00     0.005 A 
ATOM     15  C   UNL d   1      51.056  34.023  52.146  0.00  0.00     0.000 A 
ATOM     16  C   UNL d   1      51.020  34.511  51.472  0.00  0.00     0.000 C 
ATOM     17  C   UNL d   1      50.499  34.121  52.734  0.00  0.00     0.000 A 
ATOM     18  C   UNL d   1      50.523  33.647  53.403  0.00  0.00     0.000 A 
ATOM     19  C   UNL d   1      49.894  34.696  52.678  0.00  0.00     0.000 C 
ATOM     20  C   UNL d   1      51.107  33.076  53.481  0.00  0.00     0.005 A 
ENDBRANCH   1  13
TORSDOF 5
ENDMDL
MODEL 9
REMARK VINA RESULT:      -4.9      9.562     10.341
REMARK  5 active torsions:
REMARK  status: ('A' for Active; 'I' for Inactive)
REMARK    1  A    between atoms: N_2  and  C_1 
REMARK    2  A    between atoms: C_8  and  C_1 
REMARK    3  A    between atoms: O_5  and  N_2 
REMARK    4  A    between atoms: C_3  and  O_5 
REMARK    5  A    between atoms: C_4  and  C_3 
ROOT
ATOM      1  C   UNL d   1      45.436  27.410  57.169  0.00  0.00     0.319 C 
ATOM      2  O   UNL d   1      46.195  27.105  57.554  0.00  0.00    -0.257 OA
ENDROOT
BRANCH   1   3
ATOM      3  O   UNL d   1      44.964  26.858  56.618  0.00  0.00    -0.168 OA
BRANCH   3   4
ATOM      4  N   UNL d   1      45.072  26.041  56.656  0.00  0.00    -0.100 NA
BRANCH   4   5
ATOM      5  C   UNL d   1      44.714  25.564  56.085  0.00  0.00     0.228 C 
ATOM      6  N   UNL d   1      44.314  25.905  55.439  0.00  0.00    -0.123 N 
BRANCH   5   7
ATOM      7  C   UNL d   1      44.759  24.745  56.166  0.00  0.00     0.121 A 
ATOM      8  N   UNL d   1      45.115  24.316  55.561  0.00  0.00    -0.241 NA
ATOM      9  C   UNL d   1      45.169  23.480  55.627  0.00  0.00     0.099 A 
ATOM     10  C   UNL d   1      44.862  23.105  56.299  0.00  0.00     0.021 A 
ATOM     11  C   UNL d   1      44.511  23.550  56.891  0.00  0.00     0.003 A 
ATOM     12  C   UNL d   1      44.462  24.366  56.819  0.00  0.00     0.022 A 
ENDBRANCH   5   7
ENDBRANCH   4   5
ENDBRANCH   3   4
ENDBRANCH   1   3
BRANCH   1  13
ATOM     13  C   UNL d   1      45.164  28.181  57.311  0.00  0.00     0.065 A 
ATOM     14  C   UNL d   1      45.048  28.680  56.665  0.00  0.00     0.005 A 
ATOM     15  C   UNL d   1      44.779  29.449  56.798  0.00  0.00     0.000 A 
ATOM     16  C   UNL d   1      44.654  29.971  56.161  0.00  0.00     0.000 C 
ATOM     17  C   UNL d   1      44.629  29.710  57.556  0.00  0.00     0.000 A 
ATOM     18  C   UNL d   1      44.748  29.207  58.192  0.00  0.00     0.000 A 
ATOM     19  C   UNL d   1      44.356  30.485  57.711  0.00  0.00     0.000 C 
ATOM     20  C   UNL d   1      45.016  28.442  58.066  0.00  0.00     0.005 A 
ENDBRANCH   1  13
TORSDOF 5
ENDMDL
