MODEL 1
REMARK VINA RESULT:      -4.1      0.000      0.000
REMARK  5 active torsions:
REMARK  status: ('A' for Active; 'I' for Inactive)
REMARK    1  A    between atoms: S_14  and  C_7 
REMARK       I    between atoms: N_10  and  C_13 
REMARK    2  A    between atoms: C_26  and  C_11 
REMARK    3  A    between atoms: C_22  and  N_12 
REMARK    4  A    between atoms: C_13  and  C_17 
REMARK    5  A    between atoms: C_17  and  S_14 
ROOT
ATOM      1  N   UNL d   1     -47.748  11.509  23.417  0.00  0.00    -0.224 N 
ATOM      2  N   UNL d   1     -48.509  12.723  23.297  0.00  0.00    -0.241 N 
ATOM      3  C   UNL d   1     -48.474  11.918  23.470  0.00  0.00     0.343 A 
ATOM      4  C   UNL d   1     -47.817  13.121  23.070  0.00  0.00     0.160 A 
ATOM      5  C   UNL d   1     -47.063  11.910  23.191  0.00  0.00     0.273 A 
ATOM      6  C   UNL d   1     -47.098  12.716  23.018  0.00  0.00     0.115 A 
ATOM      7  C   UNL d   1     -46.413  13.118  22.792  0.00  0.00     0.120 A 
ATOM      8  N   UNL d   1     -47.848  13.933  22.895  0.00  0.00    -0.209 NA
ATOM      9  N   UNL d   1     -46.444  13.921  22.619  0.00  0.00    -0.220 NA
ATOM     10  C   UNL d   1     -47.164  14.335  22.669  0.00  0.00     0.165 A 
ATOM     11  O   UNL d   1     -49.160  11.513  23.697  0.00  0.00    -0.245 OA
ATOM     12  O   UNL d   1     -46.346  11.503  23.140  0.00  0.00    -0.266 OA
ATOM     13  C   UNL d   1     -47.721  10.707  23.591  0.00  0.00     0.107 C 
ATOM     14  C   UNL d   1     -49.228  13.128  23.349  0.00  0.00     0.105 C 
ENDROOT
BRANCH   7  15
ATOM     15  S   UNL d   1     -45.696  12.710  22.741  0.00  0.00    -0.062 SA
BRANCH  15  16
ATOM     16  C   UNL d   1     -45.090  12.997  22.257  0.00  0.00     0.098 C 
BRANCH  16  17
ATOM     17  C   UNL d   1     -44.398  12.561  22.156  0.00  0.00     0.272 C 
ATOM     18  N   UNL d   1     -43.733  12.897  21.810  0.00  0.00    -0.269 N 
ATOM     19  C   UNL d   1     -43.761  13.688  21.559  0.00  0.00     0.102 A 
ATOM     20  C   UNL d   1     -43.048  12.461  21.712  0.00  0.00     0.102 A 
ATOM     21  C   UNL d   1     -43.093  14.020  21.213  0.00  0.00     0.100 A 
ATOM     22  N   UNL d   1     -42.404  13.584  21.113  0.00  0.00    -0.301 N 
ATOM     23  C   UNL d   1     -42.384  12.797  21.366  0.00  0.00     0.100 A 
ATOM     24  O   UNL d   1     -44.373  11.774  22.407  0.00  0.00    -0.266 OA
BRANCH  22  25
ATOM     25  C   UNL d   1     -41.740  13.920  20.768  0.00  0.00     0.064 A 
ATOM     26  C   UNL d   1     -41.614  13.866  19.958  0.00  0.00     0.018 A 
ATOM     27  C   UNL d   1     -40.945  14.203  19.606  0.00  0.00     0.002 A 
ATOM     28  C   UNL d   1     -40.393  14.601  20.075  0.00  0.00     0.000 A 
ATOM     29  C   UNL d   1     -40.520  14.656  20.900  0.00  0.00     0.002 A 
ATOM     30  C   UNL d   1     -41.184  14.319  21.231  0.00  0.00     0.018 A 
ENDBRANCH  22  25
ENDBRANCH  16  17
ENDBRANCH  15  16
ENDBRANCH   7  15
BRANCH  10  31
ATOM     31  C   UNL d   1     -47.193  15.143  22.494  0.00  0.00     0.039 C 
ATOM     32  C   UNL d   1     -47.886  15.481  22.200  0.00  0.00     0.003 C 
ENDBRANCH  10  31
TORSDOF 5
ENDMDL
MODEL 2
REMARK VINA RESULT:      -2.7      2.623      3.387
REMARK  5 active torsions:
REMARK  status: ('A' for Active; 'I' for Inactive)
REMARK    1  A    between atoms: S_14  and  C_7 
REMARK       I    between atoms: N_10  and  C_13 
REMARK    2  A    between atoms: C_26  and  C_11 
REMARK    3  A    between atoms: C_22  and  N_12 
REMARK    4  A    between atoms: C_13  and  C_17 
REMARK    5  A    between atoms: C_17  and  S_14 
ROOT
ATOM      1  N   UNL d   1     -49.389  12.373  21.632  0.00  0.00    -0.224 N 
ATOM      2  N   UNL d   1     -50.300  13.191  22.385  0.00  0.00    -0.241 N 
ATOM      3  C   UNL d   1     -50.159  12.527  21.917  0.00  0.00     0.343 A 
ATOM      4  C   UNL d   1     -49.673  13.701  22.570  0.00  0.00     0.160 A 
ATOM      5  C   UNL d   1     -48.768  12.884  21.819  0.00  0.00     0.273 A 
ATOM      6  C   UNL d   1     -48.910  13.548  22.288  0.00  0.00     0.115 A 
ATOM      7  C   UNL d   1     -48.290  14.059  22.475  0.00  0.00     0.120 A 
ATOM      8  N   UNL d   1     -49.812  14.372  23.042  0.00  0.00    -0.209 NA
ATOM      9  N   UNL d   1     -48.427  14.722  22.942  0.00  0.00    -0.220 NA
ATOM     10  C   UNL d   1     -49.192  14.883  23.229  0.00  0.00     0.165 A 
ATOM     11  O   UNL d   1     -50.780  12.013  21.728  0.00  0.00    -0.245 OA
ATOM     12  O   UNL d   1     -48.008  12.727  21.536  0.00  0.00    -0.266 OA
ATOM     13  C   UNL d   1     -49.255  11.710  21.167  0.00  0.00     0.107 C 
ATOM     14  C   UNL d   1     -51.062  13.345  22.667  0.00  0.00     0.105 C 
ENDROOT
BRANCH   7  15
ATOM     15  S   UNL d   1     -47.530  13.902  22.191  0.00  0.00    -0.062 SA
BRANCH  15  16
ATOM     16  C   UNL d   1     -46.900  13.816  22.721  0.00  0.00     0.098 C 
BRANCH  16  17
ATOM     17  C   UNL d   1     -46.132  13.711  22.439  0.00  0.00     0.272 C 
ATOM     18  N   UNL d   1     -45.698  13.042  22.633  0.00  0.00    -0.269 N 
ATOM     19  C   UNL d   1     -46.039  12.464  23.122  0.00  0.00     0.102 A 
ATOM     20  C   UNL d   1     -44.937  12.942  22.352  0.00  0.00     0.102 A 
ATOM     21  C   UNL d   1     -45.600  11.795  23.314  0.00  0.00     0.100 A 
ATOM     22  N   UNL d   1     -44.836  11.693  23.032  0.00  0.00    -0.301 N 
ATOM     23  C   UNL d   1     -44.503  12.273  22.546  0.00  0.00     0.100 A 
ATOM     24  O   UNL d   1     -45.795  14.289  21.953  0.00  0.00    -0.266 OA
BRANCH  22  25
ATOM     25  C   UNL d   1     -44.402  11.024  23.227  0.00  0.00     0.064 A 
ATOM     26  C   UNL d   1     -44.774  10.341  23.489  0.00  0.00     0.018 A 
ATOM     27  C   UNL d   1     -44.339   9.665  23.687  0.00  0.00     0.002 A 
ATOM     28  C   UNL d   1     -43.516   9.674  23.618  0.00  0.00     0.000 A 
ATOM     29  C   UNL d   1     -43.135  10.369  23.351  0.00  0.00     0.002 A 
ATOM     30  C   UNL d   1     -43.578  11.027  23.161  0.00  0.00     0.018 A 
ENDBRANCH  22  25
ENDBRANCH  16  17
ENDBRANCH  15  16
ENDBRANCH   7  15
BRANCH  10  31
ATOM     31  C   UNL d   1     -49.328  15.550  23.698  0.00  0.00     0.039 C 
ATOM     32  C   UNL d   1     -50.066  15.919  23.693  0.00  0.00     0.003 C 
ENDBRANCH  10  31
TORSDOF 5
ENDMDL
MODEL 3
REMARK VINA RESULT:      -1.9      1.794      2.957
REMARK  5 active torsions:
REMARK  status: ('A' for Active; 'I' for Inactive)
REMARK    1  A    between atoms: S_14  and  C_7 
REMARK       I    between atoms: N_10  and  C_13 
REMARK    2  A    between atoms: C_26  and  C_11 
REMARK    3  A    between atoms: C_22  and  N_12 
REMARK    4  A    between atoms: C_13  and  C_17 
REMARK    5  A    between atoms: C_17  and  S_14 
ROOT
ATOM      1  N   UNL d   1     -44.011  10.679  23.061  0.00  0.00    -0.224 N 
ATOM      2  N   UNL d   1     -45.300  11.310  23.145  0.00  0.00    -0.241 N 
ATOM      3  C   UNL d   1     -44.810  10.665  23.302  0.00  0.00     0.343 A 
ATOM      4  C   UNL d   1     -44.992  11.969  22.748  0.00  0.00     0.160 A 
ATOM      5  C   UNL d   1     -43.709  11.338  22.665  0.00  0.00     0.273 A 
ATOM      6  C   UNL d   1     -44.200  11.983  22.509  0.00  0.00     0.115 A 
ATOM      7  C   UNL d   1     -43.899  12.642  22.114  0.00  0.00     0.120 A 
ATOM      8  N   UNL d   1     -45.483  12.621  22.588  0.00  0.00    -0.209 NA
ATOM      9  N   UNL d   1     -44.385  13.286  21.956  0.00  0.00    -0.220 NA
ATOM     10  C   UNL d   1     -45.183  13.279  22.193  0.00  0.00     0.165 A 
ATOM     11  O   UNL d   1     -45.110  10.003  23.698  0.00  0.00    -0.245 OA
ATOM     12  O   UNL d   1     -42.918  11.349  22.429  0.00  0.00    -0.266 OA
ATOM     13  C   UNL d   1     -43.528  10.035  23.220  0.00  0.00     0.107 C 
ATOM     14  C   UNL d   1     -46.092  11.296  23.383  0.00  0.00     0.105 C 
ENDROOT
BRANCH   7  15
ATOM     15  S   UNL d   1     -43.107  12.652  21.877  0.00  0.00    -0.062 SA
BRANCH  15  16
ATOM     16  C   UNL d   1     -42.830  13.258  21.387  0.00  0.00     0.098 C 
BRANCH  16  17
ATOM     17  C   UNL d   1     -42.045  13.506  21.438  0.00  0.00     0.272 C 
ATOM     18  N   UNL d   1     -41.657  13.819  20.786  0.00  0.00    -0.269 N 
ATOM     19  C   UNL d   1     -42.064  13.886  20.064  0.00  0.00     0.102 A 
ATOM     20  C   UNL d   1     -40.880  14.065  20.840  0.00  0.00     0.102 A 
ATOM     21  C   UNL d   1     -41.671  14.200  19.414  0.00  0.00     0.100 A 
ATOM     22  N   UNL d   1     -40.890  14.447  19.466  0.00  0.00    -0.301 N 
ATOM     23  C   UNL d   1     -40.492  14.378  20.188  0.00  0.00     0.100 A 
ATOM     24  O   UNL d   1     -41.644  13.439  22.158  0.00  0.00    -0.266 OA
BRANCH  22  25
ATOM     25  C   UNL d   1     -40.502  14.761  18.814  0.00  0.00     0.064 A 
ATOM     26  C   UNL d   1     -40.140  14.271  18.264  0.00  0.00     0.018 A 
ATOM     27  C   UNL d   1     -39.748  14.583  17.605  0.00  0.00     0.002 A 
ATOM     28  C   UNL d   1     -39.719  15.401  17.497  0.00  0.00     0.000 A 
ATOM     29  C   UNL d   1     -40.088  15.902  18.057  0.00  0.00     0.002 A 
ATOM     30  C   UNL d   1     -40.470  15.578  18.700  0.00  0.00     0.018 A 
ENDBRANCH  22  25
ENDBRANCH  16  17
ENDBRANCH  15  16
ENDBRANCH   7  15
BRANCH  10  31
ATOM     31  C   UNL d   1     -45.670  13.929  22.033  0.00  0.00     0.039 C 
ATOM     32  C   UNL d   1     -46.169  14.228  22.618  0.00  0.00     0.003 C 
ENDBRANCH  10  31
TORSDOF 5
ENDMDL
