MODEL 1
REMARK VINA RESULT:      34.4      0.000      0.000
REMARK  3 active torsions:
REMARK  status: ('A' for Active; 'I' for Inactive)
REMARK    1  A    between atoms: N_6  and  S_1 
REMARK    2  A    between atoms: C_11  and  S_1 
REMARK    3  A    between atoms: C_2  and  N_6 
ROOT
ATOM      1  C   UNL d   1      58.384  49.638  50.195  0.00  0.00     0.106 A 
ATOM      2  C   UNL d   1      57.031  49.431  49.906  0.00  0.00     0.110 A 
ATOM      3  C   UNL d   1      57.807  49.502  49.650  0.00  0.00     0.090 A 
ATOM      4  C   UNL d   1      56.831  49.494  50.682  0.00  0.00     0.217 A 
ATOM      5  C   UNL d   1      58.184  49.703  50.994  0.00  0.00     0.035 A 
ATOM      6  C   UNL d   1      57.406  49.630  51.230  0.00  0.00     0.099 A 
ATOM      7  O   UNL d   1      56.033  49.420  50.932  0.00  0.00    -0.285 OA
ATOM      8 CL   UNL d   1      56.383  49.282  49.325  0.00  0.00    -0.078 Cl
ATOM      9 CL   UNL d   1      58.004  49.434  48.837  0.00  0.00    -0.080 Cl
ATOM     10 CL   UNL d   1      57.216  49.700  52.065  0.00  0.00    -0.079 Cl
ENDROOT
BRANCH   1  11
ATOM     11  N   UNL d   1      59.161  49.708  49.939  0.00  0.00    -0.158 NA
BRANCH  11  12
ATOM     12  S   UNL d   1      59.783  49.466  50.442  0.00  0.00     0.285 S 
ATOM     13  O   UNL d   1      59.330  49.685  51.101  0.00  0.00    -0.198 OA
ATOM     14  O   UNL d   1      60.248  49.240  49.758  0.00  0.00    -0.198 OA
BRANCH  12  15
ATOM     15  C   UNL d   1      60.433  49.211  50.941  0.00  0.00     0.105 A 
ATOM     16  C   UNL d   1      60.835  48.489  50.807  0.00  0.00     0.013 A 
ATOM     17  C   UNL d   1      61.464  48.254  51.299  0.00  0.00     0.001 A 
ATOM     18  C   UNL d   1      61.686  48.748  51.921  0.00  0.00     0.000 A 
ATOM     19  C   UNL d   1      61.311  49.445  52.064  0.00  0.00     0.001 A 
ATOM     20  C   UNL d   1      60.655  49.704  51.563  0.00  0.00     0.013 A 
ENDBRANCH  12  15
ENDBRANCH  11  12
ENDBRANCH   1  11
TORSDOF 3
ENDMDL
