MODEL 1
REMARK VINA RESULT:      -1.9      0.000      0.000
REMARK  7 active torsions:
REMARK  status: ('A' for Active; 'I' for Inactive)
REMARK    1  A    between atoms: C_8  and  C_1 
REMARK    2  A    between atoms: N_7  and  C_2 
REMARK    3  A    between atoms: C_5  and  N_7 
REMARK    4  A    between atoms: N_9  and  C_5 
REMARK    5  A    between atoms: O_14  and  C_8 
REMARK    6  A    between atoms: C_10  and  N_9 
REMARK    7  A    between atoms: C_20  and  O_14 
ROOT
ATOM      1  C   UNL d   1      31.039  17.353 -24.170  0.00  0.00     0.162 A 
ATOM      2  C   UNL d   1      31.737  17.612 -23.835  0.00  0.00     0.108 A 
ATOM      3  N   UNL d   1      31.040  16.528 -24.163  0.00  0.00    -0.239 NA
ATOM      4  C   UNL d   1      32.177  16.955 -23.617  0.00  0.00     0.037 A 
ATOM      5  C   UNL d   1      31.750  16.282 -23.818  0.00  0.00     0.083 A 
ATOM      6  C   UNL d   1      32.916  16.882 -23.259  0.00  0.00     0.003 A 
ATOM      7  C   UNL d   1      32.057  15.532 -23.662  0.00  0.00     0.019 A 
ATOM      8  C   UNL d   1      33.229  16.137 -23.101  0.00  0.00     0.000 A 
ATOM      9  C   UNL d   1      32.793  15.461 -23.306  0.00  0.00     0.002 A 
ENDROOT
BRANCH   2  10
ATOM     10  N   UNL d   1      31.968  18.407 -23.730  0.00  0.00    -0.216 NA
BRANCH  10  11
ATOM     11  C   UNL d   1      32.768  18.607 -23.770  0.00  0.00     0.221 C 
ATOM     12  S   UNL d   1      33.224  18.398 -24.429  0.00  0.00    -0.037 SA
BRANCH  11  13
ATOM     13  N   UNL d   1      33.112  19.021 -23.142  0.00  0.00    -0.217 NA
BRANCH  13  14
ATOM     14  C   UNL d   1      33.155  19.844 -23.174  0.00  0.00     0.084 A 
ATOM     15  C   UNL d   1      33.182  20.293 -22.477  0.00  0.00     0.018 A 
ATOM     16  C   UNL d   1      33.166  19.910 -21.730  0.00  0.00     0.002 C 
ATOM     17  C   UNL d   1      33.225  21.112 -22.503  0.00  0.00     0.002 A 
ATOM     18  C   UNL d   1      33.241  21.491 -23.238  0.00  0.00     0.000 A 
ATOM     19  C   UNL d   1      33.214  21.055 -23.940  0.00  0.00     0.002 A 
ATOM     20  C   UNL d   1      33.171  20.227 -23.901  0.00  0.00     0.019 A 
ENDBRANCH  13  14
ENDBRANCH  11  13
ENDBRANCH  10  11
ENDBRANCH   2  10
BRANCH   1  21
ATOM     21  C   UNL d   1      30.435  17.832 -24.467  0.00  0.00     0.320 C 
ATOM     22  O   UNL d   1      30.594  18.350 -25.090  0.00  0.00    -0.257 OA
BRANCH  21  23
ATOM     23  O   UNL d   1      29.679  17.801 -24.151  0.00  0.00    -0.270 OA
BRANCH  23  24
ATOM     24  C   UNL d   1      29.033  17.685 -24.653  0.00  0.00     0.126 C 
ATOM     25  C   UNL d   1      28.274  17.823 -24.378  0.00  0.00     0.029 C 
ENDBRANCH  23  24
ENDBRANCH  21  23
ENDBRANCH   1  21
TORSDOF 7
ENDMDL
