MODEL 1
REMARK VINA RESULT:      -6.1      0.000      0.000
REMARK  6 active torsions:
REMARK  status: ('A' for Active; 'I' for Inactive)
REMARK       I    between atoms: C_6  and  N_1 
REMARK    1  A    between atoms: C_10  and  C_2 
REMARK    2  A    between atoms: O_16  and  C_8 
REMARK    3  A    between atoms: O_14  and  C_10 
REMARK    4  A    between atoms: O_17  and  C_11 
REMARK    5  A    between atoms: C_15  and  O_14 
REMARK    6  A    between atoms: C_24  and  C_18 
ROOT
ATOM      1  N   UNL d   1     -49.223  12.232  23.351  0.00  0.00    -0.271 N 
ATOM      2  C   UNL d   1     -48.831  12.895  23.056  0.00  0.00     0.092 A 
ATOM      3  C   UNL d   1     -49.194  13.627  23.084  0.00  0.00     0.020 A 
ATOM      4  C   UNL d   1     -49.950  13.704  23.404  0.00  0.00     0.005 A 
ATOM      5  C   UNL d   1     -48.802  14.286  22.790  0.00  0.00     0.028 A 
ATOM      6  C   UNL d   1     -48.855  11.482  23.325  0.00  0.00     0.265 C 
ATOM      7  C   UNL d   1     -49.979  12.309  23.671  0.00  0.00     0.083 A 
ATOM      8  C   UNL d   1     -49.165  15.026  22.816  0.00  0.00     0.116 A 
ATOM      9  C   UNL d   1     -50.314  14.440  23.431  0.00  0.00     0.026 A 
ATOM     10  C   UNL d   1     -49.921  15.103  23.136  0.00  0.00     0.116 A 
ATOM     11  C   UNL d   1     -50.343  13.049  23.697  0.00  0.00     0.019 A 
ATOM     12  O   UNL d   1     -48.099  11.405  23.005  0.00  0.00    -0.267 OA
ATOM     13  C   UNL d   1     -49.248  10.827  23.618  0.00  0.00     0.066 C 
ENDROOT
BRANCH   2  14
ATOM     14  C   UNL d   1     -48.074  12.818  22.736  0.00  0.00     0.140 C 
BRANCH  14  15
ATOM     15  O   UNL d   1     -47.418  13.091  23.157  0.00  0.00    -0.304 OA
BRANCH  15  16
ATOM     16  C   UNL d   1     -46.673  13.096  22.802  0.00  0.00     0.100 A 
ATOM     17  C   UNL d   1     -46.607  13.195  21.985  0.00  0.00     0.025 A 
ATOM     18  C   UNL d   1     -45.862  13.201  21.630  0.00  0.00     0.002 A 
ATOM     19  C   UNL d   1     -45.184  13.106  22.091  0.00  0.00     0.000 A 
ATOM     20  C   UNL d   1     -45.251  13.006  22.908  0.00  0.00     0.002 A 
ATOM     21  C   UNL d   1     -45.996  13.001  23.263  0.00  0.00     0.025 A 
BRANCH  19  22
ATOM     22  C   UNL d   1     -44.439  13.111  21.736  0.00  0.00     0.000 C 
ATOM     23  C   UNL d   1     -43.988  12.424  21.715  0.00  0.00     0.000 C 
ENDBRANCH  19  22
ENDBRANCH  15  16
ENDBRANCH  14  15
ENDBRANCH   2  14
BRANCH   8  24
ATOM     24  O   UNL d   1     -48.768  15.694  22.519  0.00  0.00    -0.326 OA
ATOM     25  C   UNL d   1     -48.617  15.757  21.709  0.00  0.00     0.181 C 
ENDBRANCH   8  24
BRANCH  10  26
ATOM     26  O   UNL d   1     -50.293  15.850  23.165  0.00  0.00    -0.326 OA
ATOM     27  C   UNL d   1     -51.064  15.911  23.455  0.00  0.00     0.181 C 
ENDBRANCH  10  26
TORSDOF 6
ENDMDL
MODEL 2
REMARK VINA RESULT:      -5.5      8.267     10.325
REMARK  6 active torsions:
REMARK  status: ('A' for Active; 'I' for Inactive)
REMARK       I    between atoms: C_6  and  N_1 
REMARK    1  A    between atoms: C_10  and  C_2 
REMARK    2  A    between atoms: O_16  and  C_8 
REMARK    3  A    between atoms: O_14  and  C_10 
REMARK    4  A    between atoms: O_17  and  C_11 
REMARK    5  A    between atoms: C_15  and  O_14 
REMARK    6  A    between atoms: C_24  and  C_18 
ROOT
ATOM      1  N   UNL d   1     -40.509  15.100  19.005  0.00  0.00    -0.271 N 
ATOM      2  C   UNL d   1     -39.892  14.553  19.048  0.00  0.00     0.092 A 
ATOM      3  C   UNL d   1     -39.541  14.282  18.362  0.00  0.00     0.020 A 
ATOM      4  C   UNL d   1     -39.800  14.554  17.627  0.00  0.00     0.005 A 
ATOM      5  C   UNL d   1     -38.928  13.738  18.407  0.00  0.00     0.028 A 
ATOM      6  C   UNL d   1     -40.870  15.380  19.704  0.00  0.00     0.265 C 
ATOM      7  C   UNL d   1     -40.768  15.372  18.270  0.00  0.00     0.083 A 
ATOM      8  C   UNL d   1     -38.571  13.462  17.716  0.00  0.00     0.116 A 
ATOM      9  C   UNL d   1     -39.447  14.281  16.937  0.00  0.00     0.026 A 
ATOM     10  C   UNL d   1     -38.830  13.734  16.981  0.00  0.00     0.116 A 
ATOM     11  C   UNL d   1     -40.411  15.096  17.579  0.00  0.00     0.019 A 
ATOM     12  O   UNL d   1     -40.611  15.108  20.439  0.00  0.00    -0.267 OA
ATOM     13  C   UNL d   1     -41.481  15.922  19.656  0.00  0.00     0.066 C 
ENDROOT
BRANCH   2  14
ATOM     14  C   UNL d   1     -39.633  14.282  19.783  0.00  0.00     0.140 C 
BRANCH  14  15
ATOM     15  O   UNL d   1     -38.879  14.481  20.054  0.00  0.00    -0.304 OA
BRANCH  15  16
ATOM     16  C   UNL d   1     -38.644  14.266  20.815  0.00  0.00     0.100 A 
ATOM     17  C   UNL d   1     -38.831  13.518  21.108  0.00  0.00     0.025 A 
ATOM     18  C   UNL d   1     -38.596  13.303  21.869  0.00  0.00     0.002 A 
ATOM     19  C   UNL d   1     -38.175  13.836  22.337  0.00  0.00     0.000 A 
ATOM     20  C   UNL d   1     -37.988  14.585  22.044  0.00  0.00     0.002 A 
ATOM     21  C   UNL d   1     -38.223  14.800  21.283  0.00  0.00     0.025 A 
BRANCH  19  22
ATOM     22  C   UNL d   1     -37.940  13.621  23.099  0.00  0.00     0.000 C 
ATOM     23  C   UNL d   1     -38.481  13.285  23.617  0.00  0.00     0.000 C 
ENDBRANCH  19  22
ENDBRANCH  15  16
ENDBRANCH  14  15
ENDBRANCH   2  14
BRANCH   8  24
ATOM     24  O   UNL d   1     -37.949  12.911  17.761  0.00  0.00    -0.326 OA
ATOM     25  C   UNL d   1     -38.109  12.127  17.968  0.00  0.00     0.181 C 
ENDBRANCH   8  24
BRANCH  10  26
ATOM     26  O   UNL d   1     -38.472  13.458  16.280  0.00  0.00    -0.326 OA
ATOM     27  C   UNL d   1     -38.245  13.999  15.698  0.00  0.00     0.181 C 
ENDBRANCH  10  26
TORSDOF 6
ENDMDL
MODEL 3
REMARK VINA RESULT:      -4.9      8.678     10.250
REMARK  6 active torsions:
REMARK  status: ('A' for Active; 'I' for Inactive)
REMARK       I    between atoms: C_6  and  N_1 
REMARK    1  A    between atoms: C_10  and  C_2 
REMARK    2  A    between atoms: O_16  and  C_8 
REMARK    3  A    between atoms: O_14  and  C_10 
REMARK    4  A    between atoms: O_17  and  C_11 
REMARK    5  A    between atoms: C_15  and  O_14 
REMARK    6  A    between atoms: C_24  and  C_18 
ROOT
ATOM      1  N   UNL d   1     -40.833  15.484  18.846  0.00  0.00    -0.271 N 
ATOM      2  C   UNL d   1     -40.134  15.057  18.949  0.00  0.00     0.092 A 
ATOM      3  C   UNL d   1     -39.767  15.048  19.679  0.00  0.00     0.020 A 
ATOM      4  C   UNL d   1     -40.092  15.464  20.313  0.00  0.00     0.005 A 
ATOM      5  C   UNL d   1     -39.072  14.623  19.778  0.00  0.00     0.028 A 
ATOM      6  C   UNL d   1     -41.212  15.496  18.102  0.00  0.00     0.265 C 
ATOM      7  C   UNL d   1     -41.158  15.900  19.481  0.00  0.00     0.083 A 
ATOM      8  C   UNL d   1     -38.698  14.611  20.513  0.00  0.00     0.116 A 
ATOM      9  C   UNL d   1     -39.722  15.454  21.046  0.00  0.00     0.026 A 
ATOM     10  C   UNL d   1     -39.023  15.027  21.147  0.00  0.00     0.116 A 
ATOM     11  C   UNL d   1     -40.784  15.889  20.217  0.00  0.00     0.019 A 
ATOM     12  O   UNL d   1     -40.887  15.080  17.468  0.00  0.00    -0.267 OA
ATOM     13  C   UNL d   1     -41.904  15.921  18.006  0.00  0.00     0.066 C 
ENDROOT
BRANCH   2  14
ATOM     14  C   UNL d   1     -39.809  14.641  18.314  0.00  0.00     0.140 C 
BRANCH  14  15
ATOM     15  O   UNL d   1     -39.127  14.922  17.943  0.00  0.00    -0.304 OA
BRANCH  15  16
ATOM     16  C   UNL d   1     -38.830  14.534  17.278  0.00  0.00     0.100 A 
ATOM     17  C   UNL d   1     -38.415  14.958  16.705  0.00  0.00     0.025 A 
ATOM     18  C   UNL d   1     -38.118  14.570  16.040  0.00  0.00     0.002 A 
ATOM     19  C   UNL d   1     -38.237  13.758  15.948  0.00  0.00     0.000 A 
ATOM     20  C   UNL d   1     -38.653  13.334  16.522  0.00  0.00     0.002 A 
ATOM     21  C   UNL d   1     -38.949  13.722  17.187  0.00  0.00     0.025 A 
BRANCH  19  22
ATOM     22  C   UNL d   1     -37.940  13.370  15.283  0.00  0.00     0.000 C 
ATOM     23  C   UNL d   1     -38.232  13.551  14.537  0.00  0.00     0.000 C 
ENDBRANCH  19  22
ENDBRANCH  15  16
ENDBRANCH  14  15
ENDBRANCH   2  14
BRANCH   8  24
ATOM     24  O   UNL d   1     -37.994  14.180  20.614  0.00  0.00    -0.326 OA
ATOM     25  C   UNL d   1     -37.985  13.366  20.473  0.00  0.00     0.181 C 
ENDBRANCH   8  24
BRANCH  10  26
ATOM     26  O   UNL d   1     -38.649  15.018  21.893  0.00  0.00    -0.326 OA
ATOM     27  C   UNL d   1     -38.756  15.653  22.411  0.00  0.00     0.181 C 
ENDBRANCH  10  26
TORSDOF 6
ENDMDL
MODEL 4
REMARK VINA RESULT:      -4.9      1.152      2.744
REMARK  6 active torsions:
REMARK  status: ('A' for Active; 'I' for Inactive)
REMARK       I    between atoms: C_6  and  N_1 
REMARK    1  A    between atoms: C_10  and  C_2 
REMARK    2  A    between atoms: O_16  and  C_8 
REMARK    3  A    between atoms: O_14  and  C_10 
REMARK    4  A    between atoms: O_17  and  C_11 
REMARK    5  A    between atoms: C_15  and  O_14 
REMARK    6  A    between atoms: C_24  and  C_18 
ROOT
ATOM      1  N   UNL d   1     -48.422  14.541  22.745  0.00  0.00    -0.271 N 
ATOM      2  C   UNL d   1     -48.110  13.790  22.887  0.00  0.00     0.092 A 
ATOM      3  C   UNL d   1     -48.608  13.174  23.088  0.00  0.00     0.020 A 
ATOM      4  C   UNL d   1     -49.421  13.301  23.149  0.00  0.00     0.005 A 
ATOM      5  C   UNL d   1     -48.296  12.429  23.228  0.00  0.00     0.028 A 
ATOM      6  C   UNL d   1     -47.916  15.173  22.539  0.00  0.00     0.265 C 
ATOM      7  C   UNL d   1     -49.235  14.667  22.806  0.00  0.00     0.083 A 
ATOM      8  C   UNL d   1     -48.795  11.804  23.431  0.00  0.00     0.116 A 
ATOM      9  C   UNL d   1     -49.922  12.681  23.351  0.00  0.00     0.026 A 
ATOM     10  C   UNL d   1     -49.608  11.930  23.493  0.00  0.00     0.116 A 
ATOM     11  C   UNL d   1     -49.736  14.043  23.009  0.00  0.00     0.019 A 
ATOM     12  O   UNL d   1     -47.103  15.047  22.478  0.00  0.00    -0.267 OA
ATOM     13  C   UNL d   1     -48.231  15.915  22.399  0.00  0.00     0.066 C 
ENDROOT
BRANCH   2  14
ATOM     14  C   UNL d   1     -47.297  13.664  22.826  0.00  0.00     0.140 C 
BRANCH  14  15
ATOM     15  O   UNL d   1     -46.987  13.284  22.161  0.00  0.00    -0.304 OA
BRANCH  15  16
ATOM     16  C   UNL d   1     -46.180  13.119  22.120  0.00  0.00     0.100 A 
ATOM     17  C   UNL d   1     -45.824  12.982  21.388  0.00  0.00     0.025 A 
ATOM     18  C   UNL d   1     -45.017  12.817  21.347  0.00  0.00     0.002 A 
ATOM     19  C   UNL d   1     -44.565  12.788  22.037  0.00  0.00     0.000 A 
ATOM     20  C   UNL d   1     -44.922  12.925  22.769  0.00  0.00     0.002 A 
ATOM     21  C   UNL d   1     -45.729  13.090  22.811  0.00  0.00     0.025 A 
BRANCH  19  22
ATOM     22  C   UNL d   1     -43.758  12.623  21.996  0.00  0.00     0.000 C 
ATOM     23  C   UNL d   1     -43.353  12.720  21.287  0.00  0.00     0.000 C 
ENDBRANCH  19  22
ENDBRANCH  15  16
ENDBRANCH  14  15
ENDBRANCH   2  14
BRANCH   8  24
ATOM     24  O   UNL d   1     -48.479  11.048  23.574  0.00  0.00    -0.326 OA
ATOM     25  C   UNL d   1     -47.667  10.957  23.692  0.00  0.00     0.181 C 
ENDBRANCH   8  24
BRANCH  10  26
ATOM     26  O   UNL d   1     -50.118  11.303  23.698  0.00  0.00    -0.326 OA
ATOM     27  C   UNL d   1     -50.935  11.423  23.696  0.00  0.00     0.181 C 
ENDBRANCH  10  26
TORSDOF 6
ENDMDL
MODEL 5
REMARK VINA RESULT:      -4.9      1.727      2.885
REMARK  6 active torsions:
REMARK  status: ('A' for Active; 'I' for Inactive)
REMARK       I    between atoms: C_6  and  N_1 
REMARK    1  A    between atoms: C_10  and  C_2 
REMARK    2  A    between atoms: O_16  and  C_8 
REMARK    3  A    between atoms: O_14  and  C_10 
REMARK    4  A    between atoms: O_17  and  C_11 
REMARK    5  A    between atoms: C_15  and  O_14 
REMARK    6  A    between atoms: C_24  and  C_18 
ROOT
ATOM      1  N   UNL d   1     -47.151  14.318  22.772  0.00  0.00    -0.271 N 
ATOM      2  C   UNL d   1     -47.440  13.553  22.876  0.00  0.00     0.092 A 
ATOM      3  C   UNL d   1     -48.212  13.379  22.674  0.00  0.00     0.020 A 
ATOM      4  C   UNL d   1     -48.704  13.965  22.365  0.00  0.00     0.005 A 
ATOM      5  C   UNL d   1     -48.497  12.616  22.779  0.00  0.00     0.028 A 
ATOM      6  C   UNL d   1     -46.362  14.501  22.977  0.00  0.00     0.265 C 
ATOM      7  C   UNL d   1     -47.642  14.905  22.463  0.00  0.00     0.083 A 
ATOM      8  C   UNL d   1     -49.277  12.436  22.576  0.00  0.00     0.116 A 
ATOM      9  C   UNL d   1     -49.480  13.789  22.162  0.00  0.00     0.026 A 
ATOM     10  C   UNL d   1     -49.768  13.023  22.267  0.00  0.00     0.116 A 
ATOM     11  C   UNL d   1     -48.422  14.726  22.259  0.00  0.00     0.019 A 
ATOM     12  O   UNL d   1     -45.871  13.914  23.286  0.00  0.00    -0.267 OA
ATOM     13  C   UNL d   1     -46.081  15.261  22.872  0.00  0.00     0.066 C 
ENDROOT
BRANCH   2  14
ATOM     14  C   UNL d   1     -46.949  12.966  23.185  0.00  0.00     0.140 C 
BRANCH  14  15
ATOM     15  O   UNL d   1     -46.744  12.313  22.722  0.00  0.00    -0.304 OA
BRANCH  15  16
ATOM     16  C   UNL d   1     -46.139  11.808  22.966  0.00  0.00     0.100 A 
ATOM     17  C   UNL d   1     -46.315  11.147  23.428  0.00  0.00     0.025 A 
ATOM     18  C   UNL d   1     -45.710  10.642  23.672  0.00  0.00     0.002 A 
ATOM     19  C   UNL d   1     -44.929  10.798  23.454  0.00  0.00     0.000 A 
ATOM     20  C   UNL d   1     -44.753  11.460  22.992  0.00  0.00     0.002 A 
ATOM     21  C   UNL d   1     -45.358  11.965  22.748  0.00  0.00     0.025 A 
BRANCH  19  22
ATOM     22  C   UNL d   1     -44.324  10.293  23.698  0.00  0.00     0.000 C 
ATOM     23  C   UNL d   1     -43.837   9.935  23.141  0.00  0.00     0.000 C 
ENDBRANCH  19  22
ENDBRANCH  15  16
ENDBRANCH  14  15
ENDBRANCH   2  14
BRANCH   8  24
ATOM     24  O   UNL d   1     -49.566  11.663  22.682  0.00  0.00    -0.326 OA
ATOM     25  C   UNL d   1     -49.862  11.432  23.417  0.00  0.00     0.181 C 
ENDBRANCH   8  24
BRANCH  10  26
ATOM     26  O   UNL d   1     -50.557  12.847  22.060  0.00  0.00    -0.326 OA
ATOM     27  C   UNL d   1     -51.052  13.449  21.789  0.00  0.00     0.181 C 
ENDBRANCH  10  26
TORSDOF 6
ENDMDL
MODEL 6
REMARK VINA RESULT:      -3.6      6.491      9.773
REMARK  6 active torsions:
REMARK  status: ('A' for Active; 'I' for Inactive)
REMARK       I    between atoms: C_6  and  N_1 
REMARK    1  A    between atoms: C_10  and  C_2 
REMARK    2  A    between atoms: O_16  and  C_8 
REMARK    3  A    between atoms: O_14  and  C_10 
REMARK    4  A    between atoms: O_17  and  C_11 
REMARK    5  A    between atoms: C_15  and  O_14 
REMARK    6  A    between atoms: C_24  and  C_18 
ROOT
ATOM      1  N   UNL d   1     -38.685  15.686  20.423  0.00  0.00    -0.271 N 
ATOM      2  C   UNL d   1     -39.335  15.451  19.972  0.00  0.00     0.092 A 
ATOM      3  C   UNL d   1     -39.285  15.452  19.156  0.00  0.00     0.020 A 
ATOM      4  C   UNL d   1     -38.588  15.687  18.782  0.00  0.00     0.005 A 
ATOM      5  C   UNL d   1     -39.932  15.217  18.709  0.00  0.00     0.028 A 
ATOM      6  C   UNL d   1     -38.732  15.687  21.257  0.00  0.00     0.265 C 
ATOM      7  C   UNL d   1     -37.988  15.922  20.049  0.00  0.00     0.083 A 
ATOM      8  C   UNL d   1     -39.886  15.216  17.885  0.00  0.00     0.116 A 
ATOM      9  C   UNL d   1     -38.538  15.688  17.962  0.00  0.00     0.026 A 
ATOM     10  C   UNL d   1     -39.189  15.452  17.512  0.00  0.00     0.116 A 
ATOM     11  C   UNL d   1     -37.941  15.921  19.225  0.00  0.00     0.019 A 
ATOM     12  O   UNL d   1     -39.429  15.451  21.630  0.00  0.00    -0.267 OA
ATOM     13  C   UNL d   1     -38.085  15.921  21.699  0.00  0.00     0.066 C 
ENDROOT
BRANCH   2  14
ATOM     14  C   UNL d   1     -40.032  15.215  20.345  0.00  0.00     0.140 C 
BRANCH  14  15
ATOM     15  O   UNL d   1     -40.178  14.414  20.480  0.00  0.00    -0.304 OA
BRANCH  15  16
ATOM     16  C   UNL d   1     -40.927  14.166  20.720  0.00  0.00     0.100 A 
ATOM     17  C   UNL d   1     -41.519  14.722  20.866  0.00  0.00     0.025 A 
ATOM     18  C   UNL d   1     -42.268  14.474  21.106  0.00  0.00     0.002 A 
ATOM     19  C   UNL d   1     -42.425  13.669  21.201  0.00  0.00     0.000 A 
ATOM     20  C   UNL d   1     -41.833  13.113  21.055  0.00  0.00     0.002 A 
ATOM     21  C   UNL d   1     -41.084  13.361  20.815  0.00  0.00     0.025 A 
BRANCH  19  22
ATOM     22  C   UNL d   1     -43.174  13.421  21.441  0.00  0.00     0.000 C 
ATOM     23  C   UNL d   1     -43.418  12.649  21.299  0.00  0.00     0.000 C 
ENDBRANCH  19  22
ENDBRANCH  15  16
ENDBRANCH  14  15
ENDBRANCH   2  14
BRANCH   8  24
ATOM     24  O   UNL d   1     -40.542  14.979  17.432  0.00  0.00    -0.326 OA
ATOM     25  C   UNL d   1     -41.217  15.453  17.404  0.00  0.00     0.181 C 
ENDBRANCH   8  24
BRANCH  10  26
ATOM     26  O   UNL d   1     -39.136  15.453  16.679  0.00  0.00    -0.326 OA
ATOM     27  C   UNL d   1     -38.410  15.605  16.316  0.00  0.00     0.181 C 
ENDBRANCH  10  26
TORSDOF 6
ENDMDL
MODEL 7
REMARK VINA RESULT:      -3.5      8.374     11.098
REMARK  6 active torsions:
REMARK  status: ('A' for Active; 'I' for Inactive)
REMARK       I    between atoms: C_6  and  N_1 
REMARK    1  A    between atoms: C_10  and  C_2 
REMARK    2  A    between atoms: O_16  and  C_8 
REMARK    3  A    between atoms: O_14  and  C_10 
REMARK    4  A    between atoms: O_17  and  C_11 
REMARK    5  A    between atoms: C_15  and  O_14 
REMARK    6  A    between atoms: C_24  and  C_18 
ROOT
ATOM      1  N   UNL d   1     -38.244  12.529  17.893  0.00  0.00    -0.271 N 
ATOM      2  C   UNL d   1     -38.452  13.326  17.848  0.00  0.00     0.092 A 
ATOM      3  C   UNL d   1     -38.417  13.714  17.129  0.00  0.00     0.020 A 
ATOM      4  C   UNL d   1     -38.176  13.313  16.450  0.00  0.00     0.005 A 
ATOM      5  C   UNL d   1     -38.625  14.508  17.086  0.00  0.00     0.028 A 
ATOM      6  C   UNL d   1     -38.277  12.128  18.625  0.00  0.00     0.265 C 
ATOM      7  C   UNL d   1     -38.002  12.127  17.214  0.00  0.00     0.083 A 
ATOM      8  C   UNL d   1     -38.592  14.903  16.363  0.00  0.00     0.116 A 
ATOM      9  C   UNL d   1     -38.142  13.704  15.729  0.00  0.00     0.026 A 
ATOM     10  C   UNL d   1     -38.350  14.501  15.684  0.00  0.00     0.116 A 
ATOM     11  C   UNL d   1     -37.969  12.522  16.490  0.00  0.00     0.019 A 
ATOM     12  O   UNL d   1     -38.518  12.530  19.304  0.00  0.00    -0.267 OA
ATOM     13  C   UNL d   1     -38.070  11.338  18.665  0.00  0.00     0.066 C 
ENDROOT
BRANCH   2  14
ATOM     14  C   UNL d   1     -38.693  13.728  18.527  0.00  0.00     0.140 C 
BRANCH  14  15
ATOM     15  O   UNL d   1     -39.496  13.784  18.710  0.00  0.00    -0.304 OA
BRANCH  15  16
ATOM     16  C   UNL d   1     -39.752  14.318  19.284  0.00  0.00     0.100 A 
ATOM     17  C   UNL d   1     -39.208  14.813  19.658  0.00  0.00     0.025 A 
ATOM     18  C   UNL d   1     -39.465  15.347  20.232  0.00  0.00     0.002 A 
ATOM     19  C   UNL d   1     -40.265  15.387  20.432  0.00  0.00     0.000 A 
ATOM     20  C   UNL d   1     -40.809  14.892  20.056  0.00  0.00     0.002 A 
ATOM     21  C   UNL d   1     -40.552  14.357  19.483  0.00  0.00     0.025 A 
BRANCH  19  22
ATOM     22  C   UNL d   1     -40.521  15.921  21.006  0.00  0.00     0.000 C 
ATOM     23  C   UNL d   1     -41.257  15.826  21.358  0.00  0.00     0.000 C 
ENDBRANCH  19  22
ENDBRANCH  15  16
ENDBRANCH  14  15
ENDBRANCH   2  14
BRANCH   8  24
ATOM     24  O   UNL d   1     -38.802  15.707  16.319  0.00  0.00    -0.326 OA
ATOM     25  C   UNL d   1     -39.584  15.920  16.163  0.00  0.00     0.181 C 
ENDBRANCH   8  24
BRANCH  10  26
ATOM     26  O   UNL d   1     -38.315  14.896  14.950  0.00  0.00    -0.326 OA
ATOM     27  C   UNL d   1     -38.001  14.508  14.292  0.00  0.00     0.181 C 
ENDBRANCH  10  26
TORSDOF 6
ENDMDL
MODEL 8
REMARK VINA RESULT:      -3.1      1.839      3.082
REMARK  6 active torsions:
REMARK  status: ('A' for Active; 'I' for Inactive)
REMARK       I    between atoms: C_6  and  N_1 
REMARK    1  A    between atoms: C_10  and  C_2 
REMARK    2  A    between atoms: O_16  and  C_8 
REMARK    3  A    between atoms: O_14  and  C_10 
REMARK    4  A    between atoms: O_17  and  C_11 
REMARK    5  A    between atoms: C_15  and  O_14 
REMARK    6  A    between atoms: C_24  and  C_18 
ROOT
ATOM      1  N   UNL d   1     -45.673  11.381  23.350  0.00  0.00    -0.271 N 
ATOM      2  C   UNL d   1     -45.697  12.146  23.043  0.00  0.00     0.092 A 
ATOM      3  C   UNL d   1     -46.408  12.547  23.004  0.00  0.00     0.020 A 
ATOM      4  C   UNL d   1     -47.102  12.189  23.272  0.00  0.00     0.005 A 
ATOM      5  C   UNL d   1     -46.429  13.308  22.698  0.00  0.00     0.028 A 
ATOM      6  C   UNL d   1     -44.948  10.968  23.391  0.00  0.00     0.265 C 
ATOM      7  C   UNL d   1     -46.367  11.023  23.617  0.00  0.00     0.083 A 
ATOM      8  C   UNL d   1     -47.145  13.716  22.658  0.00  0.00     0.116 A 
ATOM      9  C   UNL d   1     -47.816  12.592  23.233  0.00  0.00     0.026 A 
ATOM     10  C   UNL d   1     -47.839  13.358  22.925  0.00  0.00     0.116 A 
ATOM     11  C   UNL d   1     -47.084  11.431  23.577  0.00  0.00     0.019 A 
ATOM     12  O   UNL d   1     -44.255  11.326  23.124  0.00  0.00    -0.267 OA
ATOM     13  C   UNL d   1     -44.930  10.209  23.697  0.00  0.00     0.066 C 
ENDROOT
BRANCH   2  14
ATOM     14  C   UNL d   1     -45.003  12.504  22.775  0.00  0.00     0.140 C 
BRANCH  14  15
ATOM     15  O   UNL d   1     -44.899  12.652  21.970  0.00  0.00    -0.304 OA
BRANCH  15  16
ATOM     16  C   UNL d   1     -44.179  12.946  21.694  0.00  0.00     0.100 A 
ATOM     17  C   UNL d   1     -43.630  12.435  21.350  0.00  0.00     0.025 A 
ATOM     18  C   UNL d   1     -42.910  12.728  21.074  0.00  0.00     0.002 A 
ATOM     19  C   UNL d   1     -42.739  13.533  21.143  0.00  0.00     0.000 A 
ATOM     20  C   UNL d   1     -43.289  14.044  21.487  0.00  0.00     0.002 A 
ATOM     21  C   UNL d   1     -44.009  13.750  21.763  0.00  0.00     0.025 A 
BRANCH  19  22
ATOM     22  C   UNL d   1     -42.019  13.827  20.867  0.00  0.00     0.000 C 
ATOM     23  C   UNL d   1     -41.319  13.629  21.250  0.00  0.00     0.000 C 
ENDBRANCH  19  22
ENDBRANCH  15  16
ENDBRANCH  14  15
ENDBRANCH   2  14
BRANCH   8  24
ATOM     24  O   UNL d   1     -47.167  14.488  22.347  0.00  0.00    -0.326 OA
ATOM     25  C   UNL d   1     -46.936  15.127  22.816  0.00  0.00     0.181 C 
ENDBRANCH   8  24
BRANCH  10  26
ATOM     26  O   UNL d   1     -48.566  13.766  22.886  0.00  0.00    -0.326 OA
ATOM     27  C   UNL d   1     -49.273  13.350  22.984  0.00  0.00     0.181 C 
ENDBRANCH  10  26
TORSDOF 6
ENDMDL
