MODEL 1
REMARK VINA RESULT:      33.3      0.000      0.000
REMARK  1 active torsions:
REMARK  status: ('A' for Active; 'I' for Inactive)
REMARK    1  A    between atoms: C_10  and  C_5 
ROOT
ATOM      1  C   UNL d   1     -57.133 -98.822 -45.061  0.00  0.00     0.118 A 
ATOM      2  C   UNL d   1     -57.130 -98.839 -44.248  0.00  0.00     0.088 A 
ATOM      3  N   UNL d   1     -57.866 -98.803 -45.476  0.00  0.00    -0.219 NA
ATOM      4  C   UNL d   1     -57.862 -98.836 -43.857  0.00  0.00     0.303 A 
ATOM      5  C   UNL d   1     -58.572 -98.800 -45.067  0.00  0.00     0.162 A 
ATOM      6  O   UNL d   1     -58.567 -98.817 -44.260  0.00  0.00    -0.259 OA
ATOM      7  S   UNL d   1     -56.335 -98.829 -45.323  0.00  0.00    -0.068 SA
ATOM      8  C   UNL d   1     -56.348 -98.856 -44.005  0.00  0.00     0.013 A 
ATOM      9  C   UNL d   1     -55.881 -98.850 -44.652  0.00  0.00     0.031 A 
ATOM     10  O   UNL d   1     -57.899 -98.853 -43.028  0.00  0.00    -0.259 OA
ATOM     11  C   UNL d   1     -56.024 -98.877 -43.251  0.00  0.00     0.001 A 
ATOM     12  C   UNL d   1     -55.058 -98.864 -44.607  0.00  0.00     0.006 A 
ATOM     13  C   UNL d   1     -55.184 -98.891 -43.196  0.00  0.00     0.000 A 
ATOM     14  C   UNL d   1     -54.718 -98.885 -43.831  0.00  0.00     0.001 A 
ENDROOT
BRANCH   5  15
ATOM     15  C   UNL d   1     -59.285 -98.780 -45.516  0.00  0.00     0.058 C 
ATOM     16  C   UNL d   1     -58.827 -98.759 -46.204  0.00  0.00     0.008 C 
ATOM     17  C   UNL d   1     -59.961 -98.760 -45.983  0.00  0.00     0.008 C 
ATOM     18  C   UNL d   1     -59.747 -98.801 -44.830  0.00  0.00     0.008 C 
ENDBRANCH   5  15
TORSDOF 1
ENDMDL
MODEL 2
REMARK VINA RESULT:      35.5      6.617      8.077
REMARK  1 active torsions:
REMARK  status: ('A' for Active; 'I' for Inactive)
REMARK    1  A    between atoms: C_10  and  C_5 
ROOT
ATOM      1  C   UNL d   1     -54.808-100.578 -38.125  0.00  0.00     0.118 A 
ATOM      2  C   UNL d   1     -54.769-101.365 -37.929  0.00  0.00     0.088 A 
ATOM      3  N   UNL d   1     -54.829 -99.996 -37.515  0.00  0.00    -0.219 NA
ATOM      4  C   UNL d   1     -54.751-101.566 -37.125  0.00  0.00     0.303 A 
ATOM      5  C   UNL d   1     -54.811-100.220 -36.730  0.00  0.00     0.162 A 
ATOM      6  O   UNL d   1     -54.772-101.004 -36.538  0.00  0.00    -0.259 OA
ATOM      7  S   UNL d   1     -54.818-100.519 -38.963  0.00  0.00    -0.068 SA
ATOM      8  C   UNL d   1     -54.755-101.792 -38.629  0.00  0.00     0.013 A 
ATOM      9  C   UNL d   1     -54.785-101.279 -39.239  0.00  0.00     0.031 A 
ATOM     10  O   UNL d   1     -54.712-102.360 -36.886  0.00  0.00    -0.259 OA
ATOM     11  C   UNL d   1     -54.718-102.602 -38.759  0.00  0.00     0.001 A 
ATOM     12  C   UNL d   1     -54.781-101.524 -40.027  0.00  0.00     0.006 A 
ATOM     13  C   UNL d   1     -54.714-102.861 -39.560  0.00  0.00     0.000 A 
ATOM     14  C   UNL d   1     -54.743-102.359 -40.167  0.00  0.00     0.001 A 
ENDROOT
BRANCH   5  15
ATOM     15  C   UNL d   1     -54.834 -99.611 -36.149  0.00  0.00     0.058 C 
ATOM     16  C   UNL d   1     -54.878-100.196 -35.567  0.00  0.00     0.008 C 
ATOM     17  C   UNL d   1     -54.859 -99.042 -35.557  0.00  0.00     0.008 C 
ATOM     18  C   UNL d   1     -54.791 -99.022 -36.728  0.00  0.00     0.008 C 
ENDBRANCH   5  15
TORSDOF 1
ENDMDL
