MODEL 1
REMARK VINA RESULT:      48.5      0.000      0.000
REMARK  3 active torsions:
REMARK  status: ('A' for Active; 'I' for Inactive)
REMARK    1  A    between atoms: C_8  and  S_1 
REMARK    2  A    between atoms: N_10  and  S_1 
REMARK    3  A    between atoms: C_17  and  N_10 
ROOT
ATOM      1  C   UNL d   1      14.371  13.963  -1.976  0.00  0.00     0.043 A 
ATOM      2  C   UNL d   1      14.491  14.774  -1.905  0.00  0.00     0.196 A 
ATOM      3  C   UNL d   1      15.135  13.744  -0.789  0.00  0.00     0.196 A 
ATOM      4  C   UNL d   1      14.693  13.447  -1.418  0.00  0.00     0.042 A 
ATOM      5  C   UNL d   1      14.934  15.073  -1.276  0.00  0.00     0.042 A 
ATOM      6  C   UNL d   1      15.256  14.558  -0.718  0.00  0.00     0.042 A 
ATOM      7  C   UNL d   1      13.809  12.855  -2.675  0.00  0.00     0.105 A 
ATOM      8  C   UNL d   1      13.929  13.667  -2.604  0.00  0.00     0.016 A 
ATOM      9  C   UNL d   1      14.573  12.636  -1.488  0.00  0.00     0.004 A 
ATOM     10  O   UNL d   1      14.169  15.290  -2.464  0.00  0.00    -0.287 OA
ATOM     11  O   UNL d   1      15.457  13.228  -0.231  0.00  0.00    -0.287 OA
ATOM     12  C   UNL d   1      14.131  12.340  -2.117  0.00  0.00     0.013 A 
ATOM     13  C   UNL d   1      15.055  15.885  -1.205  0.00  0.00     0.003 A 
ATOM     14  C   UNL d   1      15.698  14.854  -0.089  0.00  0.00     0.003 A 
ATOM     15  C   UNL d   1      15.822  15.673  -0.015  0.00  0.00     0.000 A 
ATOM     16  C   UNL d   1      15.500  16.188  -0.573  0.00  0.00     0.000 A 
ENDROOT
BRANCH   7  17
ATOM     17  S   UNL d   1      13.359  12.554  -3.315  0.00  0.00     0.285 S 
ATOM     18  O   UNL d   1      13.610  11.780  -3.131  0.00  0.00    -0.198 OA
ATOM     19  O   UNL d   1      13.111  13.329  -3.494  0.00  0.00    -0.198 OA
BRANCH  17  20
ATOM     20  N   UNL d   1      12.913  12.255  -3.950  0.00  0.00    -0.158 NA
BRANCH  20  21
ATOM     21  C   UNL d   1      13.183  12.344  -4.726  0.00  0.00     0.094 A 
ATOM     22  C   UNL d   1      13.639  13.007  -4.926  0.00  0.00     0.020 A 
ATOM     23  C   UNL d   1      13.914  13.103  -5.705  0.00  0.00     0.002 A 
ATOM     24  C   UNL d   1      13.733  12.535  -6.282  0.00  0.00     0.000 A 
ATOM     25  C   UNL d   1      13.271  11.867  -6.074  0.00  0.00     0.002 A 
ATOM     26  C   UNL d   1      13.003  11.780  -5.300  0.00  0.00     0.020 A 
ENDBRANCH  20  21
ENDBRANCH  17  20
ENDBRANCH   7  17
TORSDOF 3
ENDMDL
