MODEL 1
REMARK VINA RESULT:       4.4      0.000      0.000
REMARK  4 active torsions:
REMARK  status: ('A' for Active; 'I' for Inactive)
REMARK    1  A    between atoms: N_15  and  C_2 
REMARK    2  A    between atoms: C_3  and  C_9 
REMARK    3  A    between atoms: C_11  and  C_7 
REMARK       I    between atoms: C_9  and  N_14 
REMARK    4  A    between atoms: N_14  and  N_15 
ROOT
ATOM      1  C   UNL d   1     -41.582-122.562 -52.754  0.00  0.00     0.062 A 
ATOM      2  N   UNL d   1     -41.955-121.010 -53.165  0.00  0.00    -0.245 NA
ATOM      3  C   UNL d   1     -41.585-121.168 -52.436  0.00  0.00     0.087 A 
ATOM      4  C   UNL d   1     -41.402-121.952 -52.240  0.00  0.00     0.025 A 
ATOM      5  C   UNL d   1     -41.951-122.387 -53.478  0.00  0.00     0.022 A 
ATOM      6  C   UNL d   1     -42.134-121.620 -53.679  0.00  0.00     0.082 A 
ATOM      7  C   UNL d   1     -42.127-123.011 -53.989  0.00  0.00     0.002 A 
ATOM      8  C   UNL d   1     -42.495-121.458 -54.390  0.00  0.00     0.019 A 
ATOM      9  C   UNL d   1     -42.495-122.847 -54.713  0.00  0.00     0.000 A 
ATOM     10  C   UNL d   1     -42.677-122.074 -54.909  0.00  0.00     0.002 A 
ENDROOT
BRANCH   1  11
ATOM     11  C   UNL d   1     -41.395-123.334 -52.547  0.00  0.00     0.297 C 
ATOM     12  N   UNL d   1     -41.511-123.506 -51.756  0.00  0.00    -0.104 NA
ATOM     13  O   UNL d   1     -41.124-123.783 -53.193  0.00  0.00    -0.264 OA
BRANCH  12  14
ATOM     14  N   UNL d   1     -41.792-122.923 -51.253  0.00  0.00    -0.118 NA
BRANCH  14  15
ATOM     15  C   UNL d   1     -42.049-123.118 -50.486  0.00  0.00     0.215 A 
ATOM     16  N   UNL d   1     -41.588-123.121 -49.809  0.00  0.00    -0.219 NA
ATOM     17  C   UNL d   1     -42.051-123.345 -49.172  0.00  0.00     0.090 A 
ATOM     18  C   UNL d   1     -42.817-123.484 -49.464  0.00  0.00     0.050 A 
ATOM     19  C   UNL d   1     -41.892-123.443 -48.373  0.00  0.00     0.018 A 
ATOM     20  C   UNL d   1     -43.424-123.721 -48.957  0.00  0.00     0.008 A 
ATOM     21  S   UNL d   1     -42.810-123.343 -50.272  0.00  0.00    -0.045 SA
ATOM     22  C   UNL d   1     -43.250-123.817 -48.150  0.00  0.00     0.001 A 
ATOM     23  C   UNL d   1     -42.492-123.680 -47.861  0.00  0.00     0.002 A 
ATOM     24  C   UNL d   1     -41.127-123.304 -48.086  0.00  0.00     0.002 C 
ENDBRANCH  14  15
ENDBRANCH  12  14
ENDBRANCH   1  11
BRANCH   3  25
ATOM     25  C   UNL d   1     -41.403-120.548 -51.914  0.00  0.00     0.047 A 
ATOM     26  S   UNL d   1     -41.297-119.783 -52.203  0.00  0.00    -0.085 SA
ATOM     27  C   UNL d   1     -41.123-119.283 -51.569  0.00  0.00     0.035 A 
ATOM     28  C   UNL d   1     -41.123-119.737 -50.904  0.00  0.00     0.007 A 
ATOM     29  C   UNL d   1     -41.295-120.527 -51.100  0.00  0.00     0.009 A 
ENDBRANCH   3  25
TORSDOF 4
ENDMDL
