MODEL 1
REMARK VINA RESULT:      -3.4      0.000      0.000
REMARK  1 active torsions:
REMARK  status: ('A' for Active; 'I' for Inactive)
REMARK    1  A    between atoms: C_10  and  N_2 
ROOT
ATOM      1  C   UNL d   1      32.766  20.001 -22.047  0.00  0.00     0.174 A 
ATOM      2  N   UNL d   1      32.840  21.370 -21.655  0.00  0.00    -0.224 N 
ATOM      3  C   UNL d   1      32.683  20.583 -21.473  0.00  0.00     0.292 A 
ATOM      4  C   UNL d   1      33.005  20.200 -22.802  0.00  0.00     0.115 A 
ATOM      5  C   UNL d   1      33.079  21.574 -22.409  0.00  0.00     0.356 A 
ATOM      6  N   UNL d   1      33.161  20.986 -22.983  0.00  0.00    -0.190 NA
ATOM      7  O   UNL d   1      32.648  19.179 -22.021  0.00  0.00    -0.301 OA
ATOM      8  C   UNL d   1      33.038  19.505 -23.253  0.00  0.00     0.043 A 
ATOM      9  C   UNL d   1      32.818  18.874 -22.770  0.00  0.00     0.102 A 
ATOM     10  O   UNL d   1      32.437  20.382 -20.696  0.00  0.00    -0.264 OA
ATOM     11  O   UNL d   1      33.239  22.371 -22.597  0.00  0.00    -0.244 OA
ATOM     12  C   UNL d   1      33.241  19.377 -24.034  0.00  0.00     0.004 A 
ATOM     13  C   UNL d   1      32.799  18.114 -23.068  0.00  0.00     0.025 A 
ATOM     14  C   UNL d   1      33.224  18.606 -24.343  0.00  0.00     0.000 A 
ATOM     15  C   UNL d   1      33.004  17.975 -23.860  0.00  0.00     0.002 A 
ENDROOT
BRANCH   2  16
ATOM     16  C   UNL d   1      32.755  21.957 -21.074  0.00  0.00     0.071 A 
ATOM     17  C   UNL d   1      32.231  22.580 -21.188  0.00  0.00     0.018 A 
ATOM     18  C   UNL d   1      32.149  23.162 -20.610  0.00  0.00     0.002 A 
ATOM     19  C   UNL d   1      32.595  23.117 -19.918  0.00  0.00     0.000 A 
ATOM     20  C   UNL d   1      33.119  22.498 -19.798  0.00  0.00     0.002 A 
ATOM     21  C   UNL d   1      32.513  23.701 -19.335  0.00  0.00     0.000 C 
ATOM     22  C   UNL d   1      33.198  21.915 -20.381  0.00  0.00     0.018 A 
ENDBRANCH   2  16
TORSDOF 1
ENDMDL
MODEL 2
REMARK VINA RESULT:      -2.6      0.910      1.489
REMARK  1 active torsions:
REMARK  status: ('A' for Active; 'I' for Inactive)
REMARK    1  A    between atoms: C_10  and  N_2 
ROOT
ATOM      1  C   UNL d   1      32.792  19.880 -22.970  0.00  0.00     0.174 A 
ATOM      2  N   UNL d   1      32.861  20.663 -21.780  0.00  0.00    -0.224 N 
ATOM      3  C   UNL d   1      32.715  20.603 -22.587  0.00  0.00     0.292 A 
ATOM      4  C   UNL d   1      33.015  19.216 -22.550  0.00  0.00     0.115 A 
ATOM      5  C   UNL d   1      33.085  20.002 -21.356  0.00  0.00     0.356 A 
ATOM      6  N   UNL d   1      33.161  19.276 -21.743  0.00  0.00    -0.190 NA
ATOM      7  O   UNL d   1      32.682  19.659 -23.762  0.00  0.00    -0.301 OA
ATOM      8  C   UNL d   1      33.046  18.576 -23.077  0.00  0.00     0.043 A 
ATOM      9  C   UNL d   1      32.840  18.851 -23.827  0.00  0.00     0.102 A 
ATOM     10  O   UNL d   1      32.486  21.288 -23.016  0.00  0.00    -0.264 OA
ATOM     11  O   UNL d   1      33.234  20.058 -20.537  0.00  0.00    -0.244 OA
ATOM     12  C   UNL d   1      33.234  17.790 -22.962  0.00  0.00     0.004 A 
ATOM     13  C   UNL d   1      32.822  18.339 -24.462  0.00  0.00     0.025 A 
ATOM     14  C   UNL d   1      33.218  17.264 -23.605  0.00  0.00     0.000 A 
ATOM     15  C   UNL d   1      33.012  17.538 -24.355  0.00  0.00     0.002 A 
ENDROOT
BRANCH   2  16
ATOM     16  C   UNL d   1      32.783  21.394 -21.396  0.00  0.00     0.071 A 
ATOM     17  C   UNL d   1      33.241  22.037 -21.629  0.00  0.00     0.018 A 
ATOM     18  C   UNL d   1      33.161  22.761 -21.245  0.00  0.00     0.002 A 
ATOM     19  C   UNL d   1      32.621  22.840 -20.626  0.00  0.00     0.000 A 
ATOM     20  C   UNL d   1      32.162  22.205 -20.389  0.00  0.00     0.002 A 
ATOM     21  C   UNL d   1      32.541  23.569 -20.240  0.00  0.00     0.000 C 
ATOM     22  C   UNL d   1      32.245  21.477 -20.777  0.00  0.00     0.018 A 
ENDBRANCH   2  16
TORSDOF 1
ENDMDL
MODEL 3
REMARK VINA RESULT:      -2.5      1.241      4.609
REMARK  1 active torsions:
REMARK  status: ('A' for Active; 'I' for Inactive)
REMARK    1  A    between atoms: C_10  and  N_2 
ROOT
ATOM      1  C   UNL d   1      32.930  19.529 -22.233  0.00  0.00     0.174 A 
ATOM      2  N   UNL d   1      32.742  18.818 -23.455  0.00  0.00    -0.224 N 
ATOM      3  C   UNL d   1      32.839  18.820 -22.639  0.00  0.00     0.292 A 
ATOM      4  C   UNL d   1      32.924  20.237 -22.639  0.00  0.00     0.115 A 
ATOM      5  C   UNL d   1      32.735  19.524 -23.866  0.00  0.00     0.356 A 
ATOM      6  N   UNL d   1      32.827  20.235 -23.456  0.00  0.00    -0.190 NA
ATOM      7  O   UNL d   1      33.036  19.695 -21.427  0.00  0.00    -0.301 OA
ATOM      8  C   UNL d   1      33.026  20.850 -22.091  0.00  0.00     0.043 A 
ATOM      9  C   UNL d   1      33.095  20.515 -21.340  0.00  0.00     0.102 A 
ATOM     10  O   UNL d   1      32.845  18.090 -22.224  0.00  0.00    -0.264 OA
ATOM     11  O   UNL d   1      32.637  19.527 -24.695  0.00  0.00    -0.244 OA
ATOM     12  C   UNL d   1      33.064  21.660 -22.186  0.00  0.00     0.004 A 
ATOM     13  C   UNL d   1      33.202  20.989 -20.685  0.00  0.00     0.025 A 
ATOM     14  C   UNL d   1      33.172  22.150 -21.524  0.00  0.00     0.000 A 
ATOM     15  C   UNL d   1      33.241  21.814 -20.773  0.00  0.00     0.002 A 
ENDROOT
BRANCH   2  16
ATOM     16  C   UNL d   1      32.650  18.101 -23.863  0.00  0.00     0.071 A 
ATOM     17  C   UNL d   1      31.990  17.630 -23.729  0.00  0.00     0.018 A 
ATOM     18  C   UNL d   1      31.902  16.918 -24.136  0.00  0.00     0.002 A 
ATOM     19  C   UNL d   1      32.477  16.681 -24.676  0.00  0.00     0.000 A 
ATOM     20  C   UNL d   1      33.138  17.145 -24.814  0.00  0.00     0.002 A 
ATOM     21  C   UNL d   1      32.389  15.965 -25.085  0.00  0.00     0.000 C 
ATOM     22  C   UNL d   1      33.223  17.860 -24.403  0.00  0.00     0.018 A 
ENDBRANCH   2  16
TORSDOF 1
ENDMDL
MODEL 4
REMARK VINA RESULT:      -2.2      0.983      4.345
REMARK  1 active torsions:
REMARK  status: ('A' for Active; 'I' for Inactive)
REMARK    1  A    between atoms: C_10  and  N_2 
ROOT
ATOM      1  C   UNL d   1      32.749  20.362 -21.903  0.00  0.00     0.174 A 
ATOM      2  N   UNL d   1      32.812  19.414 -22.967  0.00  0.00    -0.224 N 
ATOM      3  C   UNL d   1      32.660  19.593 -22.179  0.00  0.00     0.292 A 
ATOM      4  C   UNL d   1      32.989  20.954 -22.411  0.00  0.00     0.115 A 
ATOM      5  C   UNL d   1      33.052  20.004 -23.480  0.00  0.00     0.356 A 
ATOM      6  N   UNL d   1      33.140  20.776 -23.199  0.00  0.00    -0.190 NA
ATOM      7  O   UNL d   1      32.637  20.696 -21.152  0.00  0.00    -0.301 OA
ATOM      8  C   UNL d   1      33.028  21.662 -21.982  0.00  0.00     0.043 A 
ATOM      9  C   UNL d   1      32.811  21.502 -21.202  0.00  0.00     0.102 A 
ATOM     10  O   UNL d   1      32.414  18.981 -21.660  0.00  0.00    -0.264 OA
ATOM     11  O   UNL d   1      33.208  19.828 -24.280  0.00  0.00    -0.244 OA
ATOM     12  C   UNL d   1      33.234  22.420 -22.206  0.00  0.00     0.004 A 
ATOM     13  C   UNL d   1      32.798  22.100 -20.647  0.00  0.00     0.025 A 
ATOM     14  C   UNL d   1      33.223  23.033 -21.645  0.00  0.00     0.000 A 
ATOM     15  C   UNL d   1      33.005  22.873 -20.866  0.00  0.00     0.002 A 
ENDROOT
BRANCH   2  16
ATOM     16  C   UNL d   1      32.722  18.637 -23.244  0.00  0.00     0.071 A 
ATOM     17  C   UNL d   1      33.240  18.047 -22.999  0.00  0.00     0.018 A 
ATOM     18  C   UNL d   1      33.148  17.276 -23.276  0.00  0.00     0.002 A 
ATOM     19  C   UNL d   1      32.536  17.099 -23.799  0.00  0.00     0.000 A 
ATOM     20  C   UNL d   1      32.017  17.682 -24.047  0.00  0.00     0.002 A 
ATOM     21  C   UNL d   1      32.443  16.323 -24.078  0.00  0.00     0.000 C 
ATOM     22  C   UNL d   1      32.112  18.456 -23.767  0.00  0.00     0.018 A 
ENDBRANCH   2  16
TORSDOF 1
ENDMDL
MODEL 5
REMARK VINA RESULT:      -1.9      1.137      4.624
REMARK  1 active torsions:
REMARK  status: ('A' for Active; 'I' for Inactive)
REMARK    1  A    between atoms: C_10  and  N_2 
ROOT
ATOM      1  C   UNL d   1      32.705  20.342 -22.527  0.00  0.00     0.174 A 
ATOM      2  N   UNL d   1      32.744  18.959 -22.875  0.00  0.00    -0.224 N 
ATOM      3  C   UNL d   1      32.599  19.743 -23.079  0.00  0.00     0.292 A 
ATOM      4  C   UNL d   1      32.956  20.163 -21.771  0.00  0.00     0.115 A 
ATOM      5  C   UNL d   1      32.995  18.775 -22.119  0.00  0.00     0.356 A 
ATOM      6  N   UNL d   1      33.101  19.380 -21.567  0.00  0.00    -0.190 NA
ATOM      7  O   UNL d   1      32.604  21.164 -22.578  0.00  0.00    -0.301 OA
ATOM      8  C   UNL d   1      33.013  20.871 -21.344  0.00  0.00     0.043 A 
ATOM      9  C   UNL d   1      32.795  21.491 -21.843  0.00  0.00     0.102 A 
ATOM     10  O   UNL d   1      32.341  19.923 -23.858  0.00  0.00    -0.264 OA
ATOM     11  O   UNL d   1      33.143  17.982 -21.907  0.00  0.00    -0.244 OA
ATOM     12  C   UNL d   1      33.235  21.021 -20.572  0.00  0.00     0.004 A 
ATOM     13  C   UNL d   1      32.798  22.260 -21.571  0.00  0.00     0.025 A 
ATOM     14  C   UNL d   1      33.240  21.802 -20.288  0.00  0.00     0.000 A 
ATOM     15  C   UNL d   1      33.022  22.421 -20.787  0.00  0.00     0.002 A 
ENDROOT
BRANCH   2  16
ATOM     16  C   UNL d   1      32.635  18.355 -23.433  0.00  0.00     0.071 A 
ATOM     17  C   UNL d   1      33.241  18.160 -23.955  0.00  0.00     0.018 A 
ATOM     18  C   UNL d   1      33.130  17.559 -24.508  0.00  0.00     0.002 A 
ATOM     19  C   UNL d   1      32.412  17.156 -24.538  0.00  0.00     0.000 A 
ATOM     20  C   UNL d   1      31.805  17.346 -24.021  0.00  0.00     0.002 A 
ATOM     21  C   UNL d   1      32.300  16.552 -25.094  0.00  0.00     0.000 C 
ATOM     22  C   UNL d   1      31.919  17.950 -23.465  0.00  0.00     0.018 A 
ENDBRANCH   2  16
TORSDOF 1
ENDMDL
MODEL 6
REMARK VINA RESULT:      -1.5      0.772      4.443
REMARK  1 active torsions:
REMARK  status: ('A' for Active; 'I' for Inactive)
REMARK    1  A    between atoms: C_10  and  N_2 
ROOT
ATOM      1  C   UNL d   1      33.023  21.936 -21.171  0.00  0.00     0.174 A 
ATOM      2  N   UNL d   1      33.072  20.624 -21.726  0.00  0.00    -0.224 N 
ATOM      3  C   UNL d   1      33.000  21.437 -21.823  0.00  0.00     0.292 A 
ATOM      4  C   UNL d   1      33.117  21.627 -20.421  0.00  0.00     0.115 A 
ATOM      5  C   UNL d   1      33.166  20.309 -20.978  0.00  0.00     0.356 A 
ATOM      6  N   UNL d   1      33.188  20.814 -20.324  0.00  0.00    -0.190 NA
ATOM      7  O   UNL d   1      32.965  22.762 -21.105  0.00  0.00    -0.301 OA
ATOM      8  C   UNL d   1      33.119  22.257 -19.881  0.00  0.00     0.043 A 
ATOM      9  C   UNL d   1      33.025  22.959 -20.304  0.00  0.00     0.102 A 
ATOM     10  O   UNL d   1      32.903  21.752 -22.596  0.00  0.00    -0.264 OA
ATOM     11  O   UNL d   1      33.239  19.485 -20.874  0.00  0.00    -0.244 OA
ATOM     12  C   UNL d   1      33.194  22.271 -19.068  0.00  0.00     0.004 A 
ATOM     13  C   UNL d   1      33.007  23.675 -19.914  0.00  0.00     0.025 A 
ATOM     14  C   UNL d   1      33.176  22.997 -18.665  0.00  0.00     0.000 A 
ATOM     15  C   UNL d   1      33.082  23.699 -19.088  0.00  0.00     0.002 A 
ENDROOT
BRANCH   2  16
ATOM     16  C   UNL d   1      33.048  20.121 -22.385  0.00  0.00     0.071 A 
ATOM     17  C   UNL d   1      32.848  19.328 -22.296  0.00  0.00     0.018 A 
ATOM     18  C   UNL d   1      32.826  18.831 -22.953  0.00  0.00     0.002 A 
ATOM     19  C   UNL d   1      33.005  19.131 -23.700  0.00  0.00     0.000 A 
ATOM     20  C   UNL d   1      33.206  19.919 -23.796  0.00  0.00     0.002 A 
ATOM     21  C   UNL d   1      32.983  18.631 -24.361  0.00  0.00     0.000 C 
ATOM     22  C   UNL d   1      33.227  20.416 -23.133  0.00  0.00     0.018 A 
ENDBRANCH   2  16
TORSDOF 1
ENDMDL
