MODEL 1
REMARK VINA RESULT:      51.2      0.000      0.000
REMARK  4 active torsions:
REMARK  status: ('A' for Active; 'I' for Inactive)
REMARK    1  A    between atoms: C_12  and  N_3 
REMARK    2  A    between atoms: C_13  and  N_10 
REMARK    3  A    between atoms: C_21  and  C_12 
REMARK    4  A    between atoms: C_16  and  C_13 
ROOT
ATOM      1  C   UNL d   1      44.629 -15.264  44.494  0.00  0.00     0.191 A 
ATOM      2  C   UNL d   1      45.450 -15.331  44.475  0.00  0.00     0.173 A 
ATOM      3  N   UNL d   1      45.351 -16.723  44.771  0.00  0.00    -0.224 N 
ATOM      4  N   UNL d   1      44.434 -14.477  44.337  0.00  0.00    -0.042 NA
ATOM      5  C   UNL d   1      45.144 -14.060  44.220  0.00  0.00     0.722 A 
ATOM      6  N   UNL d   1      45.768 -14.589  44.306  0.00  0.00    -0.131 N 
ATOM      7  N   UNL d   1      44.166 -15.934  44.654  0.00  0.00    -0.240 N 
ATOM      8  C   UNL d   1      44.525 -16.659  44.792  0.00  0.00     0.343 A 
ATOM      9  C   UNL d   1      45.817 -16.061  44.613  0.00  0.00     0.288 A 
ATOM     10  N   UNL d   1      45.456 -13.321  44.052  0.00  0.00    -0.135 N 
ATOM     11  C   UNL d   1      46.464 -14.174  44.190  0.00  0.00     0.118 A 
ATOM     12  O   UNL d   1      44.062 -17.329  44.951  0.00  0.00    -0.245 OA
ATOM     13  O   UNL d   1      46.643 -16.125  44.593  0.00  0.00    -0.265 OA
ATOM     14  C   UNL d   1      46.281 -13.389  44.033  0.00  0.00     0.118 A 
ATOM     15  C   UNL d   1      43.341 -15.871  44.674  0.00  0.00     0.105 C 
ENDROOT
BRANCH   3  16
ATOM     16  C   UNL d   1      45.713 -17.452  44.910  0.00  0.00     0.087 C 
BRANCH  16  17
ATOM     17  C   UNL d   1      45.706 -18.046  44.320  0.00  0.00     0.018 A 
ATOM     18  C   UNL d   1      46.171 -17.973  43.658  0.00  0.00     0.002 A 
ATOM     19  C   UNL d   1      46.163 -18.555  43.082  0.00  0.00     0.000 A 
ATOM     20  C   UNL d   1      46.631 -18.485  42.409  0.00  0.00     0.000 C 
ATOM     21  C   UNL d   1      45.679 -19.220  43.176  0.00  0.00     0.000 A 
ATOM     22  C   UNL d   1      45.204 -19.304  43.844  0.00  0.00     0.000 A 
ATOM     23  C   UNL d   1      45.218 -18.718  44.415  0.00  0.00     0.002 A 
ENDBRANCH  16  17
ENDBRANCH   3  16
BRANCH  10  24
ATOM     24  C   UNL d   1      45.028 -12.628  43.924  0.00  0.00     0.123 C 
BRANCH  24  25
ATOM     25  C   UNL d   1      44.755 -12.449  43.159  0.00  0.00     0.118 A 
ATOM     26  O   UNL d   1      45.214 -12.234  42.515  0.00  0.00    -0.304 OA
ATOM     27  C   UNL d   1      44.724 -12.110  41.878  0.00  0.00     0.123 A 
ATOM     28  C   UNL d   1      43.942 -12.248  42.125  0.00  0.00     0.029 A 
ATOM     29  C   UNL d   1      43.965 -12.459  42.923  0.00  0.00     0.028 A 
ENDBRANCH  24  25
ENDBRANCH  10  24
TORSDOF 4
ENDMDL
