MODEL 1
REMARK VINA RESULT:      74.1      0.000      0.000
REMARK  4 active torsions:
REMARK  status: ('A' for Active; 'I' for Inactive)
REMARK       I    between atoms: C_3  and  N_1 
REMARK    1  A    between atoms: C_7  and  C_3 
REMARK    2  A    between atoms: C_9  and  C_4 
REMARK    3  A    between atoms: C_12  and  C_5 
REMARK    4  A    between atoms: O_20  and  C_17 
ROOT
ATOM      1  N   UNL d   1     -50.591  25.195  33.598  0.00  0.00    -0.194 N 
ATOM      2  N   UNL d   1     -51.083  24.546  33.518  0.00  0.00    -0.163 NA
ATOM      3  C   UNL d   1     -49.750  25.197  33.500  0.00  0.00     0.286 C 
ATOM      4  C   UNL d   1     -51.063  25.843  33.789  0.00  0.00     0.088 A 
ATOM      5  C   UNL d   1     -51.855  24.779  33.657  0.00  0.00     0.103 A 
ATOM      6  C   UNL d   1     -51.839  25.584  33.824  0.00  0.00     0.040 A 
ATOM      7  O   UNL d   1     -49.381  24.484  33.308  0.00  0.00    -0.265 OA
ENDROOT
BRANCH   4   8
ATOM      8  C   UNL d   1     -50.725  26.598  33.908  0.00  0.00     0.018 A 
ATOM      9  C   UNL d   1     -50.343  26.787  34.632  0.00  0.00     0.004 A 
ATOM     10  C   UNL d   1     -50.014  27.538  34.733  0.00  0.00     0.024 A 
ATOM     11  C   UNL d   1     -50.052  28.111  34.131  0.00  0.00     0.094 A 
ATOM     12  C   UNL d   1     -50.433  27.921  33.407  0.00  0.00     0.024 A 
ATOM     13  C   UNL d   1     -50.766  27.164  33.306  0.00  0.00     0.004 A 
BRANCH  11  14
ATOM     14  O   UNL d   1     -49.714  28.866  34.249  0.00  0.00    -0.328 OA
ATOM     15  C   UNL d   1     -50.096  29.543  33.930  0.00  0.00     0.181 C 
ENDBRANCH  11  14
ENDBRANCH   4   8
BRANCH   3  16
ATOM     16  C   UNL d   1     -49.313  25.879  33.593  0.00  0.00     0.087 A 
ATOM     17  S   UNL d   1     -49.401  26.663  33.311  0.00  0.00    -0.082 SA
ATOM     18  C   UNL d   1     -48.779  27.104  33.594  0.00  0.00     0.036 A 
ATOM     19  C   UNL d   1     -48.297  26.626  34.050  0.00  0.00     0.008 A 
ATOM     20  C   UNL d   1     -48.618  25.878  34.052  0.00  0.00     0.012 A 
ENDBRANCH   3  16
BRANCH   5  21
ATOM     21  C   UNL d   1     -52.565  24.362  33.652  0.00  0.00     0.019 A 
ATOM     22  C   UNL d   1     -53.237  24.709  33.312  0.00  0.00     0.002 A 
ATOM     23  C   UNL d   1     -53.941  24.289  33.309  0.00  0.00     0.000 A 
ATOM     24  C   UNL d   1     -53.989  23.537  33.635  0.00  0.00     0.000 A 
ATOM     25  C   UNL d   1     -53.317  23.189  33.975  0.00  0.00     0.000 A 
ATOM     26  C   UNL d   1     -52.609  23.610  33.978  0.00  0.00     0.002 A 
ENDBRANCH   5  21
TORSDOF 4
ENDMDL
