MODEL 1
REMARK VINA RESULT:      17.2      0.000      0.000
REMARK  4 active torsions:
REMARK  status: ('A' for Active; 'I' for Inactive)
REMARK    1  A    between atoms: C_8  and  C_1 
REMARK    2  A    between atoms: N_11  and  C_9 
REMARK    3  A    between atoms: C_15  and  N_11 
REMARK    4  A    between atoms: C_16  and  N_11 
ROOT
ATOM      1  C   UNL d   1      14.247  12.154  -1.287  0.00  0.00     0.102 A 
ATOM      2  C   UNL d   1      14.905  12.435  -1.723  0.00  0.00     0.303 A 
ATOM      3  C   UNL d   1      13.559  11.945  -1.694  0.00  0.00     0.011 A 
ATOM      4  O   UNL d   1      14.845  12.494  -2.544  0.00  0.00    -0.273 OA
ATOM      5  C   UNL d   1      14.162  12.285  -2.943  0.00  0.00     0.105 A 
ATOM      6  C   UNL d   1      13.504  12.004  -2.508  0.00  0.00     0.023 A 
ATOM      7  C   UNL d   1      14.116  12.346  -3.743  0.00  0.00     0.042 A 
ATOM      8  C   UNL d   1      13.431  12.138  -4.146  0.00  0.00     0.066 A 
ATOM      9  O   UNL d   1      15.607  12.651  -1.331  0.00  0.00    -0.259 OA
ATOM     10  C   UNL d   1      12.830  11.798  -2.893  0.00  0.00     0.004 A 
ATOM     11  C   UNL d   1      12.772  11.857  -3.710  0.00  0.00     0.018 A 
ENDROOT
BRANCH   8  12
ATOM     12  N   UNL d   1      13.391  12.204  -4.971  0.00  0.00    -0.304 N 
BRANCH  12  13
ATOM     13  C   UNL d   1      13.947  12.679  -5.368  0.00  0.00     0.080 C 
ATOM     14  C   UNL d   1      14.191  12.470  -6.139  0.00  0.00     0.021 C 
ENDBRANCH  12  13
BRANCH  12  15
ATOM     15  C   UNL d   1      12.816  11.809  -5.389  0.00  0.00     0.080 C 
ATOM     16  C   UNL d   1      12.816  11.799  -6.197  0.00  0.00     0.021 C 
ENDBRANCH  12  15
ENDBRANCH   8  12
BRANCH   1  17
ATOM     17  C   UNL d   1      14.289  12.089  -0.460  0.00  0.00     0.201 C 
ATOM     18  O   UNL d   1      14.977  12.330  -0.053  0.00  0.00    -0.286 OA
ATOM     19  C   UNL d   1      13.642  11.783  -0.044  0.00  0.00     0.045 C 
ENDBRANCH   1  17
TORSDOF 4
ENDMDL
