MODEL 1
REMARK VINA RESULT:      -3.9      0.000      0.000
REMARK  2 active torsions:
REMARK  status: ('A' for Active; 'I' for Inactive)
REMARK    1  A    between atoms: C_10  and  N_1 
REMARK    2  A    between atoms: C_13  and  C_10 
ROOT
ATOM      1  N   UNL d   1      31.277  17.048 -24.319  0.00  0.00    -0.260 N 
ATOM      2  C   UNL d   1      31.139  16.390 -23.854  0.00  0.00     0.174 A 
ATOM      3  C   UNL d   1      30.802  17.594 -24.702  0.00  0.00     0.348 A 
ATOM      4  N   UNL d   1      30.004  17.704 -24.776  0.00  0.00    -0.216 NA
ATOM      5  C   UNL d   1      29.334  17.315 -24.499  0.00  0.00     0.137 A 
ATOM      6  O   UNL d   1      30.479  16.002 -23.578  0.00  0.00    -0.316 OA
ATOM      7  C   UNL d   1      30.391  17.122 -24.367  0.00  0.00     0.079 A 
ATOM      8  C   UNL d   1      29.204  16.661 -24.037  0.00  0.00     0.022 A 
ATOM      9  C   UNL d   1      29.674  16.121 -23.659  0.00  0.00     0.094 A 
ATOM     10  O   UNL d   1      31.234  18.151 -25.096  0.00  0.00    -0.245 OA
ATOM     11  C   UNL d   1      31.737  15.927 -23.531  0.00  0.00     0.055 C 
ATOM     12  C   UNL d   1      28.389  16.607 -23.996  0.00  0.00    -0.001 A 
ATOM     13  C   UNL d   1      29.322  15.511 -23.228  0.00  0.00     0.024 A 
ATOM     14  C   UNL d   1      28.045  16.002 -23.568  0.00  0.00    -0.000 A 
ATOM     15  C   UNL d   1      28.513  15.453 -23.183  0.00  0.00     0.002 A 
ENDROOT
BRANCH   1  16
ATOM     16  C   UNL d   1      32.023  17.353 -24.537  0.00  0.00     0.082 C 
BRANCH  16  17
ATOM     17  C   UNL d   1      32.430  17.882 -24.009  0.00  0.00     0.017 A 
ATOM     18  C   UNL d   1      32.467  18.707 -24.183  0.00  0.00     0.002 A 
ATOM     19  C   UNL d   1      32.874  19.236 -23.656  0.00  0.00     0.000 A 
ATOM     20  C   UNL d   1      33.241  18.936 -22.957  0.00  0.00     0.000 A 
ATOM     21  C   UNL d   1      33.204  18.099 -22.779  0.00  0.00     0.000 A 
ATOM     22  C   UNL d   1      32.797  17.582 -23.310  0.00  0.00     0.002 A 
ENDBRANCH  16  17
ENDBRANCH   1  16
TORSDOF 2
ENDMDL
MODEL 2
REMARK VINA RESULT:      -3.3      0.744      3.920
REMARK  2 active torsions:
REMARK  status: ('A' for Active; 'I' for Inactive)
REMARK    1  A    between atoms: C_10  and  N_1 
REMARK    2  A    between atoms: C_13  and  C_10 
ROOT
ATOM      1  N   UNL d   1      31.147  16.554 -24.133  0.00  0.00    -0.260 N 
ATOM      2  C   UNL d   1      31.059  17.273 -24.511  0.00  0.00     0.174 A 
ATOM      3  C   UNL d   1      31.658  16.260 -23.564  0.00  0.00     0.348 A 
ATOM      4  N   UNL d   1      32.281  16.561 -23.146  0.00  0.00    -0.216 NA
ATOM      5  C   UNL d   1      32.665  17.288 -23.115  0.00  0.00     0.137 A 
ATOM      6  O   UNL d   1      31.436  17.994 -24.484  0.00  0.00    -0.316 OA
ATOM      7  C   UNL d   1      31.825  16.936 -23.701  0.00  0.00     0.079 A 
ATOM      8  C   UNL d   1      32.572  17.999 -23.494  0.00  0.00     0.022 A 
ATOM      9  C   UNL d   1      32.067  18.289 -24.057  0.00  0.00     0.094 A 
ATOM     10  O   UNL d   1      31.498  15.490 -23.380  0.00  0.00    -0.245 OA
ATOM     11  C   UNL d   1      30.482  17.422 -25.078  0.00  0.00     0.055 C 
ATOM     12  C   UNL d   1      33.161  18.470 -23.177  0.00  0.00    -0.001 A 
ATOM     13  C   UNL d   1      32.152  19.071 -24.311  0.00  0.00     0.024 A 
ATOM     14  C   UNL d   1      33.241  19.242 -23.431  0.00  0.00    -0.000 A 
ATOM     15  C   UNL d   1      32.735  19.543 -23.999  0.00  0.00     0.002 A 
ENDROOT
BRANCH   1  16
ATOM     16  C   UNL d   1      30.682  15.871 -24.252  0.00  0.00     0.082 C 
BRANCH  16  17
ATOM     17  C   UNL d   1      29.918  15.814 -23.882  0.00  0.00     0.017 A 
ATOM     18  C   UNL d   1      29.855  15.565 -23.078  0.00  0.00     0.002 A 
ATOM     19  C   UNL d   1      29.091  15.509 -22.708  0.00  0.00     0.000 A 
ATOM     20  C   UNL d   1      28.395  15.701 -23.145  0.00  0.00     0.000 A 
ATOM     21  C   UNL d   1      28.457  15.954 -23.961  0.00  0.00     0.000 A 
ATOM     22  C   UNL d   1      29.221  16.007 -24.320  0.00  0.00     0.002 A 
ENDBRANCH  16  17
ENDBRANCH   1  16
TORSDOF 2
ENDMDL
MODEL 3
REMARK VINA RESULT:      -3.1      2.109      4.564
REMARK  2 active torsions:
REMARK  status: ('A' for Active; 'I' for Inactive)
REMARK    1  A    between atoms: C_10  and  N_1 
REMARK    2  A    between atoms: C_13  and  C_10 
ROOT
ATOM      1  N   UNL d   1      33.238  18.945 -23.308  0.00  0.00    -0.260 N 
ATOM      2  C   UNL d   1      33.238  18.861 -22.495  0.00  0.00     0.174 A 
ATOM      3  C   UNL d   1      33.238  19.583 -23.822  0.00  0.00     0.348 A 
ATOM      4  N   UNL d   1      33.239  20.387 -23.735  0.00  0.00    -0.216 NA
ATOM      5  C   UNL d   1      33.239  20.903 -23.094  0.00  0.00     0.137 A 
ATOM      6  O   UNL d   1      33.239  19.368 -21.858  0.00  0.00    -0.316 OA
ATOM      7  C   UNL d   1      33.239  19.822 -23.153  0.00  0.00     0.079 A 
ATOM      8  C   UNL d   1      33.239  20.813 -22.288  0.00  0.00     0.022 A 
ATOM      9  C   UNL d   1      33.239  20.182 -21.780  0.00  0.00     0.094 A 
ATOM     10  O   UNL d   1      33.238  19.350 -24.595  0.00  0.00    -0.245 OA
ATOM     11  C   UNL d   1      33.238  18.133 -22.112  0.00  0.00     0.055 C 
ATOM     12  C   UNL d   1      33.240  21.580 -22.003  0.00  0.00    -0.001 A 
ATOM     13  C   UNL d   1      33.239  20.320 -20.966  0.00  0.00     0.024 A 
ATOM     14  C   UNL d   1      33.240  21.711 -21.197  0.00  0.00    -0.000 A 
ATOM     15  C   UNL d   1      33.240  21.080 -20.677  0.00  0.00     0.002 A 
ENDROOT
BRANCH   1  16
ATOM     16  C   UNL d   1      33.238  18.328 -23.870  0.00  0.00     0.082 C 
BRANCH  16  17
ATOM     17  C   UNL d   1      32.533  17.865 -23.982  0.00  0.00     0.017 A 
ATOM     18  C   UNL d   1      32.438  17.133 -23.573  0.00  0.00     0.002 A 
ATOM     19  C   UNL d   1      31.734  16.669 -23.685  0.00  0.00     0.000 A 
ATOM     20  C   UNL d   1      31.128  16.941 -24.207  0.00  0.00     0.000 A 
ATOM     21  C   UNL d   1      31.223  17.684 -24.623  0.00  0.00     0.000 A 
ATOM     22  C   UNL d   1      31.927  18.137 -24.504  0.00  0.00     0.002 A 
ENDBRANCH  16  17
ENDBRANCH   1  16
TORSDOF 2
ENDMDL
MODEL 4
REMARK VINA RESULT:      -3.0      0.893      3.696
REMARK  2 active torsions:
REMARK  status: ('A' for Active; 'I' for Inactive)
REMARK    1  A    between atoms: C_10  and  N_1 
REMARK    2  A    between atoms: C_13  and  C_10 
ROOT
ATOM      1  N   UNL d   1      30.789  16.133 -24.074  0.00  0.00    -0.260 N 
ATOM      2  C   UNL d   1      31.373  16.169 -23.504  0.00  0.00     0.174 A 
ATOM      3  C   UNL d   1      30.555  16.617 -24.692  0.00  0.00     0.348 A 
ATOM      4  N   UNL d   1      30.805  17.326 -24.988  0.00  0.00    -0.216 NA
ATOM      5  C   UNL d   1      31.401  17.861 -24.795  0.00  0.00     0.137 A 
ATOM      6  O   UNL d   1      31.963  16.695 -23.309  0.00  0.00    -0.316 OA
ATOM      7  C   UNL d   1      31.106  16.915 -24.359  0.00  0.00     0.079 A 
ATOM      8  C   UNL d   1      31.978  17.891 -24.226  0.00  0.00     0.022 A 
ATOM      9  C   UNL d   1      32.210  17.412 -23.616  0.00  0.00     0.094 A 
ATOM     10  O   UNL d   1      29.927  16.311 -25.097  0.00  0.00    -0.245 OA
ATOM     11  C   UNL d   1      31.489  15.589 -22.933  0.00  0.00     0.055 C 
ATOM     12  C   UNL d   1      32.367  18.595 -24.377  0.00  0.00    -0.001 A 
ATOM     13  C   UNL d   1      32.846  17.641 -23.142  0.00  0.00     0.024 A 
ATOM     14  C   UNL d   1      32.996  18.817 -23.906  0.00  0.00    -0.000 A 
ATOM     15  C   UNL d   1      33.236  18.340 -23.287  0.00  0.00     0.002 A 
ENDROOT
BRANCH   1  16
ATOM     16  C   UNL d   1      30.229  15.522 -24.172  0.00  0.00     0.082 C 
BRANCH  16  17
ATOM     17  C   UNL d   1      29.497  15.551 -23.738  0.00  0.00     0.017 A 
ATOM     18  C   UNL d   1      29.499  15.453 -22.900  0.00  0.00     0.002 A 
ATOM     19  C   UNL d   1      28.768  15.482 -22.465  0.00  0.00     0.000 A 
ATOM     20  C   UNL d   1      28.039  15.609 -22.874  0.00  0.00     0.000 A 
ATOM     21  C   UNL d   1      28.037  15.709 -23.724  0.00  0.00     0.000 A 
ATOM     22  C   UNL d   1      28.769  15.679 -24.146  0.00  0.00     0.002 A 
ENDBRANCH  16  17
ENDBRANCH   1  16
TORSDOF 2
ENDMDL
MODEL 5
REMARK VINA RESULT:      -2.0      1.461      2.299
REMARK  2 active torsions:
REMARK  status: ('A' for Active; 'I' for Inactive)
REMARK    1  A    between atoms: C_10  and  N_1 
REMARK    2  A    between atoms: C_13  and  C_10 
ROOT
ATOM      1  N   UNL d   1      32.741  18.632 -23.655  0.00  0.00    -0.260 N 
ATOM      2  C   UNL d   1      32.736  17.921 -23.252  0.00  0.00     0.174 A 
ATOM      3  C   UNL d   1      32.315  18.943 -24.282  0.00  0.00     0.348 A 
ATOM      4  N   UNL d   1      31.718  18.674 -24.756  0.00  0.00    -0.216 NA
ATOM      5  C   UNL d   1      31.286  17.976 -24.809  0.00  0.00     0.137 A 
ATOM      6  O   UNL d   1      32.311  17.229 -23.301  0.00  0.00    -0.316 OA
ATOM      7  C   UNL d   1      32.084  18.286 -24.147  0.00  0.00     0.079 A 
ATOM      8  C   UNL d   1      31.286  17.272 -24.405  0.00  0.00     0.022 A 
ATOM      9  C   UNL d   1      31.707  16.965 -23.785  0.00  0.00     0.094 A 
ATOM     10  O   UNL d   1      32.550  19.693 -24.467  0.00  0.00    -0.245 OA
ATOM     11  C   UNL d   1      33.238  17.749 -22.625  0.00  0.00     0.055 C 
ATOM     12  C   UNL d   1      30.699  16.835 -24.771  0.00  0.00    -0.001 A 
ATOM     13  C   UNL d   1      31.538  16.201 -23.523  0.00  0.00     0.024 A 
ATOM     14  C   UNL d   1      30.536  16.079 -24.508  0.00  0.00    -0.000 A 
ATOM     15  C   UNL d   1      30.957  15.761 -23.883  0.00  0.00     0.002 A 
ENDROOT
BRANCH   1  16
ATOM     16  C   UNL d   1      33.241  19.284 -23.504  0.00  0.00     0.082 C 
BRANCH  16  17
ATOM     17  C   UNL d   1      33.107  19.763 -22.814  0.00  0.00     0.017 A 
ATOM     18  C   UNL d   1      32.841  20.559 -22.897  0.00  0.00     0.002 A 
ATOM     19  C   UNL d   1      32.707  21.038 -22.207  0.00  0.00     0.000 A 
ATOM     20  C   UNL d   1      32.841  20.717 -21.437  0.00  0.00     0.000 A 
ATOM     21  C   UNL d   1      33.111  19.908 -21.352  0.00  0.00     0.000 A 
ATOM     22  C   UNL d   1      33.241  19.441 -22.044  0.00  0.00     0.002 A 
ENDBRANCH  16  17
ENDBRANCH   1  16
TORSDOF 2
ENDMDL
MODEL 6
REMARK VINA RESULT:      -1.7      0.906      1.586
REMARK  2 active torsions:
REMARK  status: ('A' for Active; 'I' for Inactive)
REMARK    1  A    between atoms: C_10  and  N_1 
REMARK    2  A    between atoms: C_13  and  C_10 
ROOT
ATOM      1  N   UNL d   1      31.623  17.317 -24.476  0.00  0.00    -0.260 N 
ATOM      2  C   UNL d   1      30.869  17.624 -24.404  0.00  0.00     0.174 A 
ATOM      3  C   UNL d   1      31.989  16.625 -24.234  0.00  0.00     0.348 A 
ATOM      4  N   UNL d   1      31.756  15.966 -23.828  0.00  0.00    -0.216 NA
ATOM      5  C   UNL d   1      31.051  15.713 -23.486  0.00  0.00     0.137 A 
ATOM      6  O   UNL d   1      30.170  17.376 -24.067  0.00  0.00    -0.316 OA
ATOM      7  C   UNL d   1      31.311  16.615 -24.024  0.00  0.00     0.079 A 
ATOM      8  C   UNL d   1      30.305  16.023 -23.418  0.00  0.00     0.022 A 
ATOM      9  C   UNL d   1      29.943  16.707 -23.657  0.00  0.00     0.094 A 
ATOM     10  O   UNL d   1      32.766  16.599 -24.455  0.00  0.00    -0.245 OA
ATOM     11  C   UNL d   1      30.643  18.354 -24.708  0.00  0.00     0.055 C 
ATOM     12  C   UNL d   1      29.891  15.453 -23.003  0.00  0.00    -0.001 A 
ATOM     13  C   UNL d   1      29.146  16.825 -23.477  0.00  0.00     0.024 A 
ATOM     14  C   UNL d   1      29.103  15.574 -22.827  0.00  0.00    -0.000 A 
ATOM     15  C   UNL d   1      28.729  16.262 -23.065  0.00  0.00     0.002 A 
ENDROOT
BRANCH   1  16
ATOM     16  C   UNL d   1      32.272  17.679 -24.856  0.00  0.00     0.082 C 
BRANCH  16  17
ATOM     17  C   UNL d   1      32.552  18.433 -24.579  0.00  0.00     0.017 A 
ATOM     18  C   UNL d   1      32.468  19.119 -25.063  0.00  0.00     0.002 A 
ATOM     19  C   UNL d   1      32.748  19.874 -24.787  0.00  0.00     0.000 A 
ATOM     20  C   UNL d   1      33.110  19.936 -24.026  0.00  0.00     0.000 A 
ATOM     21  C   UNL d   1      33.196  19.241 -23.534  0.00  0.00     0.000 A 
ATOM     22  C   UNL d   1      32.914  18.496 -23.818  0.00  0.00     0.002 A 
ENDBRANCH  16  17
ENDBRANCH   1  16
TORSDOF 2
ENDMDL
