MODEL 1
REMARK VINA RESULT:      -7.5      0.000      0.000
REMARK  2 active torsions:
REMARK  status: ('A' for Active; 'I' for Inactive)
REMARK    1  A    between atoms: C_6  and  C_1 
REMARK       I    between atoms: N_11  and  C_6 
REMARK    2  A    between atoms: C_13  and  N_11 
ROOT
ATOM      1  C   UNL d   1      52.580  33.944  53.053  0.00  0.00     0.108 A 
ATOM      2  C   UNL d   1      51.343  34.406  53.052  0.00  0.00     0.044 A 
ATOM      3  C   UNL d   1      51.466  34.032  52.328  0.00  0.00     0.112 A 
ATOM      4  S   UNL d   1      52.237  33.745  52.331  0.00  0.00    -0.061 SA
ATOM      5  C   UNL d   1      52.012  34.352  53.485  0.00  0.00     0.116 A 
ATOM      6  N   UNL d   1      50.860  34.001  51.757  0.00  0.00    -0.239 NA
ATOM      7  C   UNL d   1      50.016  34.726  52.663  0.00  0.00     0.057 A 
ATOM      8  C   UNL d   1      50.613  34.756  53.222  0.00  0.00     0.008 A 
ATOM      9  C   UNL d   1      50.138  34.353  51.939  0.00  0.00     0.085 A 
ATOM     10  C   UNL d   1      49.287  35.074  52.829  0.00  0.00     0.197 A 
ATOM     11  N   UNL d   1      52.015  34.750  54.368  0.00  0.00    -0.147 N 
ATOM     12  O   UNL d   1      49.152  35.527  53.719  0.00  0.00    -0.286 OA
ATOM     13  C   UNL d   1      49.530  34.328  51.382  0.00  0.00     0.019 A 
ATOM     14  C   UNL d   1      48.688  35.047  52.274  0.00  0.00     0.042 A 
ATOM     15  C   UNL d   1      48.810  34.673  51.550  0.00  0.00     0.005 A 
ENDROOT
BRANCH   1  16
ATOM     16  C   UNL d   1      53.485  33.751  53.375  0.00  0.00     0.287 C 
ATOM     17  N   UNL d   1      54.080  33.039  53.674  0.00  0.00    -0.205 NA
ATOM     18  O   UNL d   1      53.848  34.474  53.385  0.00  0.00    -0.265 OA
BRANCH  17  19
ATOM     19  C   UNL d   1      53.807  32.214  53.708  0.00  0.00     0.112 A 
ATOM     20  C   UNL d   1      53.673  31.837  54.478  0.00  0.00     0.158 A 
ATOM     21  F   UNL d   1      53.746  32.102  55.556  0.00  0.00    -0.203 F 
ATOM     22  C   UNL d   1      53.394  30.993  54.510  0.00  0.00     0.031 A 
ATOM     23  C   UNL d   1      53.257  30.548  53.767  0.00  0.00     0.002 A 
ATOM     24  C   UNL d   1      53.396  30.939  52.995  0.00  0.00     0.002 A 
ATOM     25  C   UNL d   1      53.671  31.772  52.949  0.00  0.00     0.021 A 
ENDBRANCH  17  19
ENDBRANCH   1  16
TORSDOF 2
ENDMDL
MODEL 2
REMARK VINA RESULT:      -7.4      1.858      4.717
REMARK  2 active torsions:
REMARK  status: ('A' for Active; 'I' for Inactive)
REMARK    1  A    between atoms: C_6  and  C_1 
REMARK       I    between atoms: N_11  and  C_6 
REMARK    2  A    between atoms: C_13  and  N_11 
ROOT
ATOM      1  C   UNL d   1      53.143  32.811  53.320  0.00  0.00     0.108 A 
ATOM      2  C   UNL d   1      53.246  31.645  53.930  0.00  0.00     0.044 A 
ATOM      3  C   UNL d   1      53.026  31.495  53.151  0.00  0.00     0.112 A 
ATOM      4  S   UNL d   1      52.963  32.223  52.773  0.00  0.00    -0.061 SA
ATOM      5  C   UNL d   1      53.315  32.434  54.030  0.00  0.00     0.116 A 
ATOM      6  N   UNL d   1      52.912  30.715  52.883  0.00  0.00    -0.239 NA
ATOM      7  C   UNL d   1      53.244  30.251  54.200  0.00  0.00     0.057 A 
ATOM      8  C   UNL d   1      53.356  31.019  54.460  0.00  0.00     0.008 A 
ATOM      9  C   UNL d   1      53.025  30.100  53.420  0.00  0.00     0.085 A 
ATOM     10  C   UNL d   1      53.353  29.624  54.725  0.00  0.00     0.197 A 
ATOM     11  N   UNL d   1      53.570  32.760  54.906  0.00  0.00    -0.147 N 
ATOM     12  O   UNL d   1      53.622  29.824  55.676  0.00  0.00    -0.286 OA
ATOM     13  C   UNL d   1      52.915  29.323  53.167  0.00  0.00     0.019 A 
ATOM     14  C   UNL d   1      53.243  28.857  54.470  0.00  0.00     0.042 A 
ATOM     15  C   UNL d   1      53.023  28.706  53.690  0.00  0.00     0.005 A 
ENDROOT
BRANCH   1  16
ATOM     16  C   UNL d   1      53.160  33.782  53.193  0.00  0.00     0.287 C 
ATOM     17  N   UNL d   1      52.606  34.563  53.012  0.00  0.00    -0.205 NA
ATOM     18  O   UNL d   1      53.942  33.977  53.276  0.00  0.00    -0.265 OA
BRANCH  17  19
ATOM     19  C   UNL d   1      51.747  34.486  52.903  0.00  0.00     0.112 A 
ATOM     20  C   UNL d   1      51.419  34.430  52.102  0.00  0.00     0.158 A 
ATOM     21  F   UNL d   1      51.786  34.426  51.052  0.00  0.00    -0.203 F 
ATOM     22  C   UNL d   1      50.539  34.351  51.993  0.00  0.00     0.031 A 
ATOM     23  C   UNL d   1      50.011  34.329  52.693  0.00  0.00     0.002 A 
ATOM     24  C   UNL d   1      50.354  34.385  53.498  0.00  0.00     0.002 A 
ATOM     25  C   UNL d   1      51.221  34.464  53.619  0.00  0.00     0.021 A 
ENDBRANCH  17  19
ENDBRANCH   1  16
TORSDOF 2
ENDMDL
MODEL 3
REMARK VINA RESULT:      -7.3      1.764      4.663
REMARK  2 active torsions:
REMARK  status: ('A' for Active; 'I' for Inactive)
REMARK    1  A    between atoms: C_6  and  C_1 
REMARK       I    between atoms: N_11  and  C_6 
REMARK    2  A    between atoms: C_13  and  N_11 
ROOT
ATOM      1  C   UNL d   1      53.475  32.664  53.406  0.00  0.00     0.108 A 
ATOM      2  C   UNL d   1      53.442  31.519  54.062  0.00  0.00     0.044 A 
ATOM      3  C   UNL d   1      53.273  31.354  53.272  0.00  0.00     0.112 A 
ATOM      4  S   UNL d   1      53.294  32.070  52.867  0.00  0.00    -0.061 SA
ATOM      5  C   UNL d   1      53.563  32.304  54.140  0.00  0.00     0.116 A 
ATOM      6  N   UNL d   1      53.122  30.574  53.023  0.00  0.00    -0.239 NA
ATOM      7  C   UNL d   1      53.315  30.140  54.377  0.00  0.00     0.057 A 
ATOM      8  C   UNL d   1      53.464  30.908  54.619  0.00  0.00     0.008 A 
ATOM      9  C   UNL d   1      53.146  29.975  53.587  0.00  0.00     0.085 A 
ATOM     10  C   UNL d   1      53.336  29.528  54.929  0.00  0.00     0.197 A 
ATOM     11  N   UNL d   1      53.773  32.645  55.022  0.00  0.00    -0.147 N 
ATOM     12  O   UNL d   1      53.544  29.745  55.891  0.00  0.00    -0.286 OA
ATOM     13  C   UNL d   1      52.998  29.199  53.352  0.00  0.00     0.019 A 
ATOM     14  C   UNL d   1      53.188  28.761  54.692  0.00  0.00     0.042 A 
ATOM     15  C   UNL d   1      53.019  28.596  53.902  0.00  0.00     0.005 A 
ENDROOT
BRANCH   1  16
ATOM     16  C   UNL d   1      53.575  33.626  53.249  0.00  0.00     0.287 C 
ATOM     17  N   UNL d   1      53.090  34.444  53.034  0.00  0.00    -0.205 NA
ATOM     18  O   UNL d   1      54.368  33.758  53.337  0.00  0.00    -0.265 OA
BRANCH  17  19
ATOM     19  C   UNL d   1      52.229  34.434  52.915  0.00  0.00     0.112 A 
ATOM     20  C   UNL d   1      51.704  34.710  53.548  0.00  0.00     0.158 A 
ATOM     21  F   UNL d   1      51.789  35.119  54.579  0.00  0.00    -0.203 F 
ATOM     22  C   UNL d   1      50.823  34.699  53.423  0.00  0.00     0.031 A 
ATOM     23  C   UNL d   1      50.492  34.411  52.664  0.00  0.00     0.002 A 
ATOM     24  C   UNL d   1      51.032  34.134  52.031  0.00  0.00     0.002 A 
ATOM     25  C   UNL d   1      51.903  34.140  52.142  0.00  0.00     0.021 A 
ENDBRANCH  17  19
ENDBRANCH   1  16
TORSDOF 2
ENDMDL
MODEL 4
REMARK VINA RESULT:      -6.4      2.393      3.418
REMARK  2 active torsions:
REMARK  status: ('A' for Active; 'I' for Inactive)
REMARK    1  A    between atoms: C_6  and  C_1 
REMARK       I    between atoms: N_11  and  C_6 
REMARK    2  A    between atoms: C_13  and  N_11 
ROOT
ATOM      1  C   UNL d   1      53.124  31.711  53.129  0.00  0.00     0.108 A 
ATOM      2  C   UNL d   1      52.831  32.947  53.486  0.00  0.00     0.044 A 
ATOM      3  C   UNL d   1      53.541  32.748  53.853  0.00  0.00     0.112 A 
ATOM      4  S   UNL d   1      53.721  31.977  53.628  0.00  0.00    -0.061 SA
ATOM      5  C   UNL d   1      52.583  32.324  53.052  0.00  0.00     0.116 A 
ATOM      6  N   UNL d   1      53.933  33.292  54.345  0.00  0.00    -0.239 NA
ATOM      7  C   UNL d   1      52.881  34.233  54.086  0.00  0.00     0.057 A 
ATOM      8  C   UNL d   1      52.497  33.695  53.603  0.00  0.00     0.008 A 
ATOM      9  C   UNL d   1      53.591  34.034  54.453  0.00  0.00     0.085 A 
ATOM     10  C   UNL d   1      52.552  34.980  54.205  0.00  0.00     0.197 A 
ATOM     11  N   UNL d   1      51.753  32.415  52.561  0.00  0.00    -0.147 N 
ATOM     12  O   UNL d   1      51.682  35.209  53.749  0.00  0.00    -0.286 OA
ATOM     13  C   UNL d   1      53.971  34.582  54.939  0.00  0.00     0.019 A 
ATOM     14  C   UNL d   1      52.931  35.519  54.686  0.00  0.00     0.042 A 
ATOM     15  C   UNL d   1      53.641  35.320  55.053  0.00  0.00     0.005 A 
ENDROOT
BRANCH   1  16
ATOM     16  C   UNL d   1      53.036  30.840  52.688  0.00  0.00     0.287 C 
ATOM     17  N   UNL d   1      52.976  29.880  52.845  0.00  0.00    -0.205 NA
ATOM     18  O   UNL d   1      53.005  31.021  51.900  0.00  0.00    -0.265 OA
BRANCH  17  19
ATOM     19  C   UNL d   1      52.998  29.557  53.652  0.00  0.00     0.112 A 
ATOM     20  C   UNL d   1      52.256  29.416  54.079  0.00  0.00     0.158 A 
ATOM     21  F   UNL d   1      51.163  29.528  53.905  0.00  0.00    -0.203 F 
ATOM     22  C   UNL d   1      52.281  29.086  54.905  0.00  0.00     0.031 A 
ATOM     23  C   UNL d   1      53.052  28.906  55.281  0.00  0.00     0.002 A 
ATOM     24  C   UNL d   1      53.796  29.053  54.841  0.00  0.00     0.002 A 
ATOM     25  C   UNL d   1      53.784  29.378  54.024  0.00  0.00     0.021 A 
ENDBRANCH  17  19
ENDBRANCH   1  16
TORSDOF 2
ENDMDL
MODEL 5
REMARK VINA RESULT:      -6.0      1.730      2.326
REMARK  2 active torsions:
REMARK  status: ('A' for Active; 'I' for Inactive)
REMARK    1  A    between atoms: C_6  and  C_1 
REMARK       I    between atoms: N_11  and  C_6 
REMARK    2  A    between atoms: C_13  and  N_11 
ROOT
ATOM      1  C   UNL d   1      52.413  32.578  53.495  0.00  0.00     0.108 A 
ATOM      2  C   UNL d   1      51.555  33.274  52.774  0.00  0.00     0.044 A 
ATOM      3  C   UNL d   1      51.384  33.420  53.567  0.00  0.00     0.112 A 
ATOM      4  S   UNL d   1      51.921  32.985  54.014  0.00  0.00    -0.061 SA
ATOM      5  C   UNL d   1      52.172  32.769  52.733  0.00  0.00     0.116 A 
ATOM      6  N   UNL d   1      50.763  33.930  53.782  0.00  0.00    -0.239 NA
ATOM      7  C   UNL d   1      50.496  34.137  52.387  0.00  0.00     0.057 A 
ATOM      8  C   UNL d   1      51.108  33.635  52.179  0.00  0.00     0.008 A 
ATOM      9  C   UNL d   1      50.325  34.283  53.179  0.00  0.00     0.085 A 
ATOM     10  C   UNL d   1      50.048  34.499  51.796  0.00  0.00     0.197 A 
ATOM     11  N   UNL d   1      52.485  32.506  51.856  0.00  0.00    -0.147 N 
ATOM     12  O   UNL d   1      50.270  34.311  50.831  0.00  0.00    -0.286 OA
ATOM     13  C   UNL d   1      49.707  34.791  53.380  0.00  0.00     0.019 A 
ATOM     14  C   UNL d   1      49.437  35.001  51.999  0.00  0.00     0.042 A 
ATOM     15  C   UNL d   1      49.266  35.147  52.792  0.00  0.00     0.005 A 
ENDROOT
BRANCH   1  16
ATOM     16  C   UNL d   1      53.155  31.972  53.702  0.00  0.00     0.287 C 
ATOM     17  N   UNL d   1      54.041  31.921  54.108  0.00  0.00    -0.205 NA
ATOM     18  O   UNL d   1      52.910  31.256  53.418  0.00  0.00    -0.265 OA
BRANCH  17  19
ATOM     19  C   UNL d   1      54.416  32.626  54.451  0.00  0.00     0.112 A 
ATOM     20  C   UNL d   1      55.006  33.065  53.991  0.00  0.00     0.158 A 
ATOM     21  F   UNL d   1      55.490  33.010  52.990  0.00  0.00    -0.203 F 
ATOM     22  C   UNL d   1      55.389  33.786  54.345  0.00  0.00     0.031 A 
ATOM     23  C   UNL d   1      55.170  34.047  55.152  0.00  0.00     0.002 A 
ATOM     24  C   UNL d   1      54.572  33.595  55.608  0.00  0.00     0.002 A 
ATOM     25  C   UNL d   1      54.187  32.882  55.270  0.00  0.00     0.021 A 
ENDBRANCH  17  19
ENDBRANCH   1  16
TORSDOF 2
ENDMDL
MODEL 6
REMARK VINA RESULT:      -5.5      2.475      3.455
REMARK  2 active torsions:
REMARK  status: ('A' for Active; 'I' for Inactive)
REMARK    1  A    between atoms: C_6  and  C_1 
REMARK       I    between atoms: N_11  and  C_6 
REMARK    2  A    between atoms: C_13  and  N_11 
ROOT
ATOM      1  C   UNL d   1      52.969  31.632  53.050  0.00  0.00     0.108 A 
ATOM      2  C   UNL d   1      53.340  32.767  53.612  0.00  0.00     0.044 A 
ATOM      3  C   UNL d   1      52.530  32.817  53.471  0.00  0.00     0.112 A 
ATOM      4  S   UNL d   1      52.302  32.109  53.120  0.00  0.00    -0.061 SA
ATOM      5  C   UNL d   1      53.601  32.056  53.359  0.00  0.00     0.116 A 
ATOM      6  N   UNL d   1      52.103  33.501  53.679  0.00  0.00    -0.239 NA
ATOM      7  C   UNL d   1      53.324  34.072  54.171  0.00  0.00     0.057 A 
ATOM      8  C   UNL d   1      53.741  33.398  53.965  0.00  0.00     0.008 A 
ATOM      9  C   UNL d   1      52.514  34.123  54.029  0.00  0.00     0.085 A 
ATOM     10  C   UNL d   1      53.720  34.704  54.523  0.00  0.00     0.197 A 
ATOM     11  N   UNL d   1      54.543  31.855  53.463  0.00  0.00    -0.147 N 
ATOM     12  O   UNL d   1      54.711  34.627  54.690  0.00  0.00    -0.286 OA
ATOM     13  C   UNL d   1      52.102  34.805  54.240  0.00  0.00     0.019 A 
ATOM     14  C   UNL d   1      53.308  35.378  54.729  0.00  0.00     0.042 A 
ATOM     15  C   UNL d   1      52.498  35.428  54.588  0.00  0.00     0.005 A 
ENDROOT
BRANCH   1  16
ATOM     16  C   UNL d   1      53.040  30.729  52.675  0.00  0.00     0.287 C 
ATOM     17  N   UNL d   1      53.057  29.781  52.903  0.00  0.00    -0.205 NA
ATOM     18  O   UNL d   1      53.111  30.852  51.879  0.00  0.00    -0.265 OA
BRANCH  17  19
ATOM     19  C   UNL d   1      52.990  29.519  53.729  0.00  0.00     0.112 A 
ATOM     20  C   UNL d   1      53.683  29.189  54.133  0.00  0.00     0.158 A 
ATOM     21  F   UNL d   1      54.750  28.969  53.907  0.00  0.00    -0.203 F 
ATOM     22  C   UNL d   1      53.611  28.921  54.978  0.00  0.00     0.031 A 
ATOM     23  C   UNL d   1      52.844  28.992  55.396  0.00  0.00     0.002 A 
ATOM     24  C   UNL d   1      52.150  29.327  54.978  0.00  0.00     0.002 A 
ATOM     25  C   UNL d   1      52.208  29.595  54.143  0.00  0.00     0.021 A 
ENDBRANCH  17  19
ENDBRANCH   1  16
TORSDOF 2
ENDMDL
MODEL 7
REMARK VINA RESULT:      -5.1      2.285      4.485
REMARK  2 active torsions:
REMARK  status: ('A' for Active; 'I' for Inactive)
REMARK    1  A    between atoms: C_6  and  C_1 
REMARK       I    between atoms: N_11  and  C_6 
REMARK    2  A    between atoms: C_13  and  N_11 
ROOT
ATOM      1  C   UNL d   1      52.628  32.979  52.762  0.00  0.00     0.108 A 
ATOM      2  C   UNL d   1      52.425  31.730  53.139  0.00  0.00     0.044 A 
ATOM      3  C   UNL d   1      53.240  31.853  53.128  0.00  0.00     0.112 A 
ATOM      4  S   UNL d   1      53.363  32.632  52.893  0.00  0.00    -0.061 SA
ATOM      5  C   UNL d   1      52.060  32.406  52.919  0.00  0.00     0.116 A 
ATOM      6  N   UNL d   1      53.766  31.242  53.333  0.00  0.00    -0.239 NA
ATOM      7  C   UNL d   1      52.633  30.389  53.557  0.00  0.00     0.057 A 
ATOM      8  C   UNL d   1      52.119  30.993  53.355  0.00  0.00     0.008 A 
ATOM      9  C   UNL d   1      53.448  30.512  53.546  0.00  0.00     0.085 A 
ATOM     10  C   UNL d   1      52.332  29.653  53.773  0.00  0.00     0.197 A 
ATOM     11  N   UNL d   1      51.093  32.409  52.887  0.00  0.00    -0.147 N 
ATOM     12  O   UNL d   1      51.333  29.517  53.781  0.00  0.00    -0.286 OA
ATOM     13  C   UNL d   1      53.959  29.898  53.751  0.00  0.00     0.019 A 
ATOM     14  C   UNL d   1      52.841  29.048  53.975  0.00  0.00     0.042 A 
ATOM     15  C   UNL d   1      53.656  29.171  53.964  0.00  0.00     0.005 A 
ENDROOT
BRANCH   1  16
ATOM     16  C   UNL d   1      52.424  33.893  52.475  0.00  0.00     0.287 C 
ATOM     17  N   UNL d   1      52.438  34.828  52.752  0.00  0.00    -0.205 NA
ATOM     18  O   UNL d   1      52.138  33.804  51.723  0.00  0.00    -0.265 OA
BRANCH  17  19
ATOM     19  C   UNL d   1      52.725  35.055  53.541  0.00  0.00     0.112 A 
ATOM     20  C   UNL d   1      52.156  35.280  54.156  0.00  0.00     0.158 A 
ATOM     21  F   UNL d   1      51.054  35.382  54.271  0.00  0.00    -0.203 F 
ATOM     22  C   UNL d   1      52.451  35.513  54.962  0.00  0.00     0.031 A 
ATOM     23  C   UNL d   1      53.311  35.514  55.130  0.00  0.00     0.002 A 
ATOM     24  C   UNL d   1      53.878  35.285  54.500  0.00  0.00     0.002 A 
ATOM     25  C   UNL d   1      53.598  35.053  53.700  0.00  0.00     0.021 A 
ENDBRANCH  17  19
ENDBRANCH   1  16
TORSDOF 2
ENDMDL
