MODEL 1
REMARK VINA RESULT:      -3.0      0.000      0.000
REMARK  1 active torsions:
REMARK  status: ('A' for Active; 'I' for Inactive)
REMARK    1  A    between atoms: O_15  and  C_11 
ROOT
ATOM      1  C   UNL d   1      30.137  16.450 -23.945  0.00  0.00     0.139 A 
ATOM      2  N   UNL d   1      30.814  16.139 -23.553  0.00  0.00    -0.241 NA
ATOM      3  C   UNL d   1      30.364  17.140 -24.321  0.00  0.00     0.025 A 
ATOM      4  C   UNL d   1      31.167  17.274 -24.177  0.00  0.00     0.021 A 
ATOM      5  C   UNL d   1      31.434  16.656 -23.706  0.00  0.00     0.082 A 
ATOM      6  C   UNL d   1      29.340  16.164 -23.990  0.00  0.00     0.297 A 
ATOM      7  N   UNL d   1      28.787  16.592 -24.422  0.00  0.00    -0.205 NA
ATOM      8  C   UNL d   1      31.685  17.864 -24.406  0.00  0.00     0.026 A 
ATOM      9  O   UNL d   1      29.121  15.453 -23.598  0.00  0.00    -0.264 OA
ATOM     10  C   UNL d   1      32.219  16.626 -23.462  0.00  0.00     0.021 A 
ATOM     11  C   UNL d   1      32.473  17.833 -24.161  0.00  0.00     0.094 A 
ATOM     12  C   UNL d   1      29.783  17.581 -24.769  0.00  0.00     0.022 A 
ATOM     13  C   UNL d   1      29.007  17.303 -24.813  0.00  0.00     0.102 A 
ATOM     14  C   UNL d   1      32.740  17.237 -23.704  0.00  0.00     0.026 A 
ENDROOT
BRANCH  11  15
ATOM     15  O   UNL d   1      33.022  18.416 -24.377  0.00  0.00    -0.328 OA
ATOM     16  C   UNL d   1      33.241  19.019 -23.841  0.00  0.00     0.181 C 
ENDBRANCH  11  15
TORSDOF 1
ENDMDL
MODEL 2
REMARK VINA RESULT:      -3.0      1.036      3.501
REMARK  1 active torsions:
REMARK  status: ('A' for Active; 'I' for Inactive)
REMARK    1  A    between atoms: O_15  and  C_11 
ROOT
ATOM      1  C   UNL d   1      31.705  17.752 -24.469  0.00  0.00     0.139 A 
ATOM      2  N   UNL d   1      31.064  18.041 -24.933  0.00  0.00    -0.241 NA
ATOM      3  C   UNL d   1      31.425  17.124 -24.026  0.00  0.00     0.025 A 
ATOM      4  C   UNL d   1      30.625  17.008 -24.197  0.00  0.00     0.021 A 
ATOM      5  C   UNL d   1      30.412  17.574 -24.753  0.00  0.00     0.082 A 
ATOM      6  C   UNL d   1      32.511  18.007 -24.415  0.00  0.00     0.297 A 
ATOM      7  N   UNL d   1      33.020  17.612 -23.904  0.00  0.00    -0.205 NA
ATOM      8  C   UNL d   1      30.068  16.474 -23.928  0.00  0.00     0.026 A 
ATOM      9  O   UNL d   1      32.784  18.655 -24.877  0.00  0.00    -0.264 OA
ATOM     10  C   UNL d   1      29.643  17.608 -25.042  0.00  0.00     0.021 A 
ATOM     11  C   UNL d   1      29.295  16.508 -24.218  0.00  0.00     0.094 A 
ATOM     12  C   UNL d   1      31.961  16.718 -23.497  0.00  0.00     0.022 A 
ATOM     13  C   UNL d   1      32.747  16.965 -23.443  0.00  0.00     0.102 A 
ATOM     14  C   UNL d   1      29.081  17.054 -24.758  0.00  0.00     0.026 A 
ENDROOT
BRANCH  11  15
ATOM     15  O   UNL d   1      28.707  15.980 -23.965  0.00  0.00    -0.328 OA
ATOM     16  C   UNL d   1      28.116  16.222 -23.426  0.00  0.00     0.181 C 
ENDBRANCH  11  15
TORSDOF 1
ENDMDL
MODEL 3
REMARK VINA RESULT:      -2.8      4.872      6.516
REMARK  1 active torsions:
REMARK  status: ('A' for Active; 'I' for Inactive)
REMARK    1  A    between atoms: O_15  and  C_11 
ROOT
ATOM      1  C   UNL d   1      32.987  21.334 -21.848  0.00  0.00     0.139 A 
ATOM      2  N   UNL d   1      32.857  22.127 -22.104  0.00  0.00    -0.241 NA
ATOM      3  C   UNL d   1      32.954  21.329 -21.031  0.00  0.00     0.025 A 
ATOM      4  C   UNL d   1      32.806  22.097 -20.763  0.00  0.00     0.021 A 
ATOM      5  C   UNL d   1      32.748  22.578 -21.426  0.00  0.00     0.082 A 
ATOM      6  C   UNL d   1      33.132  20.625 -22.289  0.00  0.00     0.297 A 
ATOM      7  N   UNL d   1      33.241  19.919 -21.883  0.00  0.00    -0.205 NA
ATOM      8  C   UNL d   1      32.717  22.420 -20.017  0.00  0.00     0.026 A 
ATOM      9  O   UNL d   1      33.164  20.646 -23.130  0.00  0.00    -0.264 OA
ATOM     10  C   UNL d   1      32.601  23.384 -21.347  0.00  0.00     0.021 A 
ATOM     11  C   UNL d   1      32.570  23.229 -19.938  0.00  0.00     0.094 A 
ATOM     12  C   UNL d   1      33.068  20.590 -20.615  0.00  0.00     0.022 A 
ATOM     13  C   UNL d   1      33.209  19.899 -21.043  0.00  0.00     0.102 A 
ATOM     14  C   UNL d   1      32.512  23.702 -20.576  0.00  0.00     0.026 A 
ENDROOT
BRANCH  11  15
ATOM     15  O   UNL d   1      32.475  23.587 -19.195  0.00  0.00    -0.328 OA
ATOM     16  C   UNL d   1      33.127  23.695 -18.684  0.00  0.00     0.181 C 
ENDBRANCH  11  15
TORSDOF 1
ENDMDL
MODEL 4
REMARK VINA RESULT:      -2.7      3.499      5.422
REMARK  1 active torsions:
REMARK  status: ('A' for Active; 'I' for Inactive)
REMARK    1  A    between atoms: O_15  and  C_11 
ROOT
ATOM      1  C   UNL d   1      33.233  21.488 -21.905  0.00  0.00     0.139 A 
ATOM      2  N   UNL d   1      33.235  21.312 -22.729  0.00  0.00    -0.241 NA
ATOM      3  C   UNL d   1      33.234  20.776 -21.501  0.00  0.00     0.025 A 
ATOM      4  C   UNL d   1      33.236  20.156 -22.047  0.00  0.00     0.021 A 
ATOM      5  C   UNL d   1      33.236  20.493 -22.796  0.00  0.00     0.082 A 
ATOM      6  C   UNL d   1      33.232  22.229 -21.496  0.00  0.00     0.297 A 
ATOM      7  N   UNL d   1      33.230  22.230 -20.674  0.00  0.00    -0.205 NA
ATOM      8  C   UNL d   1      33.237  19.342 -21.967  0.00  0.00     0.026 A 
ATOM      9  O   UNL d   1      33.231  22.953 -21.925  0.00  0.00    -0.264 OA
ATOM     10  C   UNL d   1      33.238  20.019 -23.468  0.00  0.00     0.021 A 
ATOM     11  C   UNL d   1      33.239  18.866 -22.642  0.00  0.00     0.094 A 
ATOM     12  C   UNL d   1      33.232  20.785 -20.645  0.00  0.00     0.022 A 
ATOM     13  C   UNL d   1      33.230  21.507 -20.245  0.00  0.00     0.102 A 
ATOM     14  C   UNL d   1      33.239  19.185 -23.372  0.00  0.00     0.026 A 
ENDROOT
BRANCH  11  15
ATOM     15  O   UNL d   1      33.240  18.038 -22.595  0.00  0.00    -0.328 OA
ATOM     16  C   UNL d   1      32.792  17.576 -23.129  0.00  0.00     0.181 C 
ENDBRANCH  11  15
TORSDOF 1
ENDMDL
MODEL 5
REMARK VINA RESULT:      -2.6      3.509      4.905
REMARK  1 active torsions:
REMARK  status: ('A' for Active; 'I' for Inactive)
REMARK    1  A    between atoms: O_15  and  C_11 
ROOT
ATOM      1  C   UNL d   1      33.231  19.497 -22.367  0.00  0.00     0.139 A 
ATOM      2  N   UNL d   1      33.227  19.578 -21.528  0.00  0.00    -0.241 NA
ATOM      3  C   UNL d   1      33.236  20.250 -22.687  0.00  0.00     0.025 A 
ATOM      4  C   UNL d   1      33.235  20.804 -22.074  0.00  0.00     0.021 A 
ATOM      5  C   UNL d   1      33.230  20.384 -21.368  0.00  0.00     0.082 A 
ATOM      6  C   UNL d   1      33.230  18.807 -22.859  0.00  0.00     0.297 A 
ATOM      7  N   UNL d   1      33.234  18.901 -23.676  0.00  0.00    -0.205 NA
ATOM      8  C   UNL d   1      33.239  21.622 -22.060  0.00  0.00     0.026 A 
ATOM      9  O   UNL d   1      33.225  18.040 -22.515  0.00  0.00    -0.264 OA
ATOM     10  C   UNL d   1      33.228  20.778 -20.646  0.00  0.00     0.021 A 
ATOM     11  C   UNL d   1      33.237  22.017 -21.335  0.00  0.00     0.094 A 
ATOM     12  C   UNL d   1      33.241  20.340 -23.538  0.00  0.00     0.022 A 
ATOM     13  C   UNL d   1      33.240  19.668 -24.019  0.00  0.00     0.102 A 
ATOM     14  C   UNL d   1      33.232  21.617 -20.646  0.00  0.00     0.026 A 
ENDROOT
BRANCH  11  15
ATOM     15  O   UNL d   1      33.241  22.846 -21.287  0.00  0.00    -0.328 OA
ATOM     16  C   UNL d   1      32.552  23.266 -21.070  0.00  0.00     0.181 C 
ENDBRANCH  11  15
TORSDOF 1
ENDMDL
MODEL 6
REMARK VINA RESULT:      -2.1      5.970      7.414
REMARK  1 active torsions:
REMARK  status: ('A' for Active; 'I' for Inactive)
REMARK    1  A    between atoms: O_15  and  C_11 
ROOT
ATOM      1  C   UNL d   1      32.786  22.270 -21.086  0.00  0.00     0.139 A 
ATOM      2  N   UNL d   1      33.011  21.718 -20.491  0.00  0.00    -0.241 NA
ATOM      3  C   UNL d   1      32.696  22.999 -20.725  0.00  0.00     0.025 A 
ATOM      4  C   UNL d   1      32.858  22.922 -19.918  0.00  0.00     0.021 A 
ATOM      5  C   UNL d   1      33.049  22.134 -19.784  0.00  0.00     0.082 A 
ATOM      6  C   UNL d   1      32.658  22.170 -21.918  0.00  0.00     0.297 A 
ATOM      7  N   UNL d   1      32.439  22.822 -22.368  0.00  0.00    -0.205 NA
ATOM      8  C   UNL d   1      32.857  23.452 -19.296  0.00  0.00     0.026 A 
ATOM      9  O   UNL d   1      32.755  21.414 -22.275  0.00  0.00    -0.264 OA
ATOM     10  C   UNL d   1      33.241  21.873 -19.028  0.00  0.00     0.021 A 
ATOM     11  C   UNL d   1      33.049  23.189 -18.536  0.00  0.00     0.094 A 
ATOM     12  C   UNL d   1      32.467  23.673 -21.201  0.00  0.00     0.022 A 
ATOM     13  C   UNL d   1      32.342  23.576 -22.011  0.00  0.00     0.102 A 
ATOM     14  C   UNL d   1      33.236  22.427 -18.398  0.00  0.00     0.026 A 
ENDROOT
BRANCH  11  15
ATOM     15  O   UNL d   1      33.058  23.702 -17.884  0.00  0.00    -0.328 OA
ATOM     16  C   UNL d   1      32.817  23.439 -17.128  0.00  0.00     0.181 C 
ENDBRANCH  11  15
TORSDOF 1
ENDMDL
MODEL 7
REMARK VINA RESULT:      -1.9      2.564      3.978
REMARK  1 active torsions:
REMARK  status: ('A' for Active; 'I' for Inactive)
REMARK    1  A    between atoms: O_15  and  C_11 
ROOT
ATOM      1  C   UNL d   1      33.042  19.564 -22.350  0.00  0.00     0.139 A 
ATOM      2  N   UNL d   1      32.937  18.769 -22.094  0.00  0.00    -0.241 NA
ATOM      3  C   UNL d   1      33.025  19.565 -23.168  0.00  0.00     0.025 A 
ATOM      4  C   UNL d   1      32.912  18.791 -23.436  0.00  0.00     0.021 A 
ATOM      5  C   UNL d   1      32.859  18.311 -22.772  0.00  0.00     0.082 A 
ATOM      6  C   UNL d   1      33.151  20.280 -21.909  0.00  0.00     0.297 A 
ATOM      7  N   UNL d   1      33.241  20.988 -22.316  0.00  0.00    -0.205 NA
ATOM      8  C   UNL d   1      32.850  18.463 -24.182  0.00  0.00     0.026 A 
ATOM      9  O   UNL d   1      33.167  20.263 -21.068  0.00  0.00    -0.264 OA
ATOM     10  C   UNL d   1      32.745  17.500 -22.850  0.00  0.00     0.021 A 
ATOM     11  C   UNL d   1      32.735  17.648 -24.260  0.00  0.00     0.094 A 
ATOM     12  C   UNL d   1      33.119  20.307 -23.585  0.00  0.00     0.022 A 
ATOM     13  C   UNL d   1      33.225  21.004 -23.157  0.00  0.00     0.102 A 
ATOM     14  C   UNL d   1      32.683  17.175 -23.621  0.00  0.00     0.026 A 
ENDROOT
BRANCH  11  15
ATOM     15  O   UNL d   1      32.668  17.284 -25.003  0.00  0.00    -0.328 OA
ATOM     16  C   UNL d   1      32.234  16.577 -25.097  0.00  0.00     0.181 C 
ENDBRANCH  11  15
TORSDOF 1
ENDMDL
MODEL 8
REMARK VINA RESULT:      -1.9      5.762      6.811
REMARK  1 active torsions:
REMARK  status: ('A' for Active; 'I' for Inactive)
REMARK    1  A    between atoms: O_15  and  C_11 
ROOT
ATOM      1  C   UNL d   1      33.053  22.265 -20.851  0.00  0.00     0.139 A 
ATOM      2  N   UNL d   1      33.112  21.679 -21.453  0.00  0.00    -0.241 NA
ATOM      3  C   UNL d   1      33.058  22.997 -21.217  0.00  0.00     0.025 A 
ATOM      4  C   UNL d   1      33.118  22.889 -22.034  0.00  0.00     0.021 A 
ATOM      5  C   UNL d   1      33.150  22.080 -22.170  0.00  0.00     0.082 A 
ATOM      6  C   UNL d   1      32.997  22.192 -20.008  0.00  0.00     0.297 A 
ATOM      7  N   UNL d   1      32.946  22.874 -19.553  0.00  0.00    -0.205 NA
ATOM      8  C   UNL d   1      33.147  23.409 -22.665  0.00  0.00     0.026 A 
ATOM      9  O   UNL d   1      32.993  21.432 -19.647  0.00  0.00    -0.264 OA
ATOM     10  C   UNL d   1      33.212  21.786 -22.936  0.00  0.00     0.021 A 
ATOM     11  C   UNL d   1      33.209  23.113 -23.434  0.00  0.00     0.094 A 
ATOM     12  C   UNL d   1      33.005  23.702 -20.735  0.00  0.00     0.022 A 
ATOM     13  C   UNL d   1      32.950  23.633 -19.914  0.00  0.00     0.102 A 
ATOM     14  C   UNL d   1      33.241  22.330 -23.574  0.00  0.00     0.026 A 
ENDROOT
BRANCH  11  15
ATOM     15  O   UNL d   1      33.241  23.615 -24.094  0.00  0.00    -0.328 OA
ATOM     16  C   UNL d   1      32.654  23.579 -24.689  0.00  0.00     0.181 C 
ENDBRANCH  11  15
TORSDOF 1
ENDMDL
MODEL 9
REMARK VINA RESULT:      -1.9      2.406      2.993
REMARK  1 active torsions:
REMARK  status: ('A' for Active; 'I' for Inactive)
REMARK    1  A    between atoms: O_15  and  C_11 
ROOT
ATOM      1  C   UNL d   1      32.673  16.936 -24.028  0.00  0.00     0.139 A 
ATOM      2  N   UNL d   1      32.590  17.667 -24.438  0.00  0.00    -0.241 NA
ATOM      3  C   UNL d   1      32.868  17.108 -23.253  0.00  0.00     0.025 A 
ATOM      4  C   UNL d   1      32.910  17.929 -23.161  0.00  0.00     0.021 A 
ATOM      5  C   UNL d   1      32.738  18.263 -23.892  0.00  0.00     0.082 A 
ATOM      6  C   UNL d   1      32.589  16.136 -24.296  0.00  0.00     0.297 A 
ATOM      7  N   UNL d   1      32.706  15.523 -23.761  0.00  0.00    -0.205 NA
ATOM      8  C   UNL d   1      33.079  18.411 -22.523  0.00  0.00     0.026 A 
ATOM      9  O   UNL d   1      32.388  15.975 -25.097  0.00  0.00    -0.264 OA
ATOM     10  C   UNL d   1      32.734  19.080 -23.988  0.00  0.00     0.021 A 
ATOM     11  C   UNL d   1      33.074  19.232 -22.620  0.00  0.00     0.094 A 
ATOM     12  C   UNL d   1      32.989  16.465 -22.702  0.00  0.00     0.022 A 
ATOM     13  C   UNL d   1      32.907  15.685 -22.961  0.00  0.00     0.102 A 
ATOM     14  C   UNL d   1      32.908  19.563 -23.325  0.00  0.00     0.026 A 
ENDROOT
BRANCH  11  15
ATOM     15  O   UNL d   1      33.241  19.748 -21.992  0.00  0.00    -0.328 OA
ATOM     16  C   UNL d   1      32.755  20.411 -21.841  0.00  0.00     0.181 C 
ENDBRANCH  11  15
TORSDOF 1
ENDMDL
