MODEL 1
REMARK VINA RESULT:       2.8      0.000      0.000
REMARK  1 active torsions:
REMARK  status: ('A' for Active; 'I' for Inactive)
REMARK    1  A    between atoms: C_11  and  C_9 
ROOT
ATOM      1  C   UNL d   1      45.917 -14.712  37.067  0.00  0.00     0.215 A 
ATOM      2  N   UNL d   1      45.813 -15.440  36.704  0.00  0.00    -0.219 NA
ATOM      3  S   UNL d   1      45.179 -14.397  37.233  0.00  0.00    -0.045 SA
ATOM      4  C   UNL d   1      44.608 -14.938  36.968  0.00  0.00     0.050 A 
ATOM      5  C   UNL d   1      44.999 -15.581  36.642  0.00  0.00     0.090 A 
ATOM      6  C   UNL d   1      43.784 -14.918  36.988  0.00  0.00     0.008 A 
ATOM      7  N   UNL d   1      46.647 -14.355  37.237  0.00  0.00    -0.120 N 
ATOM      8  C   UNL d   1      44.573 -16.215  36.330  0.00  0.00     0.020 A 
ATOM      9  C   UNL d   1      43.371 -15.544  36.679  0.00  0.00     0.001 A 
ATOM     10  C   UNL d   1      43.764 -16.191  36.351  0.00  0.00     0.002 A 
ENDROOT
BRANCH   9  11
ATOM     11  C   UNL d   1      42.544 -15.530  36.695  0.00  0.00     0.000 C 
ATOM     12  C   UNL d   1      42.118 -16.139  36.349  0.00  0.00     0.000 C 
ENDBRANCH   9  11
TORSDOF 1
ENDMDL
MODEL 2
REMARK VINA RESULT:       3.5      1.455      2.786
REMARK  1 active torsions:
REMARK  status: ('A' for Active; 'I' for Inactive)
REMARK    1  A    between atoms: C_11  and  C_9 
ROOT
ATOM      1  C   UNL d   1      43.085 -15.705  36.588  0.00  0.00     0.215 A 
ATOM      2  N   UNL d   1      43.669 -16.219  36.330  0.00  0.00    -0.219 NA
ATOM      3  S   UNL d   1      43.445 -15.051  36.927  0.00  0.00    -0.045 SA
ATOM      4  C   UNL d   1      44.266 -15.161  36.878  0.00  0.00     0.050 A 
ATOM      5  C   UNL d   1      44.404 -15.881  36.510  0.00  0.00     0.090 A 
ATOM      6  C   UNL d   1      44.898 -14.691  37.124  0.00  0.00     0.008 A 
ATOM      7  N   UNL d   1      42.267 -15.826  36.519  0.00  0.00    -0.120 N 
ATOM      8  C   UNL d   1      45.176 -16.144  36.382  0.00  0.00     0.020 A 
ATOM      9  C   UNL d   1      45.654 -14.956  36.995  0.00  0.00     0.001 A 
ATOM     10  C   UNL d   1      45.793 -15.680  36.625  0.00  0.00     0.002 A 
ENDROOT
BRANCH   9  11
ATOM     11  C   UNL d   1      46.292 -14.489  37.240  0.00  0.00     0.000 C 
ATOM     12  C   UNL d   1      46.646 -13.972  36.712  0.00  0.00     0.000 C 
ENDBRANCH   9  11
TORSDOF 1
ENDMDL
MODEL 3
REMARK VINA RESULT:       3.7      6.978      7.647
REMARK  1 active torsions:
REMARK  status: ('A' for Active; 'I' for Inactive)
REMARK    1  A    between atoms: C_11  and  C_9 
ROOT
ATOM      1  C   UNL d   1      44.953 -12.512  42.602  0.00  0.00     0.215 A 
ATOM      2  N   UNL d   1      45.277 -12.197  43.285  0.00  0.00    -0.219 NA
ATOM      3  S   UNL d   1      44.912 -13.327  42.686  0.00  0.00    -0.045 SA
ATOM      4  C   UNL d   1      45.215 -13.519  43.434  0.00  0.00     0.050 A 
ATOM      5  C   UNL d   1      45.440 -12.822  43.804  0.00  0.00     0.090 A 
ATOM      6  C   UNL d   1      45.311 -14.243  43.817  0.00  0.00     0.008 A 
ATOM      7  N   UNL d   1      44.708 -12.081  41.937  0.00  0.00    -0.120 N 
ATOM      8  C   UNL d   1      45.766 -12.837  44.562  0.00  0.00     0.020 A 
ATOM      9  C   UNL d   1      45.631 -14.251  44.563  0.00  0.00     0.001 A 
ATOM     10  C   UNL d   1      45.858 -13.550  44.934  0.00  0.00     0.002 A 
ENDROOT
BRANCH   9  11
ATOM     11  C   UNL d   1      45.730 -14.974  44.952  0.00  0.00     0.000 C 
ATOM     12  C   UNL d   1      45.127 -15.530  44.940  0.00  0.00     0.000 C 
ENDBRANCH   9  11
TORSDOF 1
ENDMDL
MODEL 4
REMARK VINA RESULT:       5.1      7.452      8.006
REMARK  1 active torsions:
REMARK  status: ('A' for Active; 'I' for Inactive)
REMARK    1  A    between atoms: C_11  and  C_9 
ROOT
ATOM      1  C   UNL d   1      45.618 -15.537  44.761  0.00  0.00     0.215 A 
ATOM      2  N   UNL d   1      44.892 -15.186  44.911  0.00  0.00    -0.219 NA
ATOM      3  S   UNL d   1      46.099 -14.989  44.388  0.00  0.00    -0.045 SA
ATOM      4  C   UNL d   1      45.665 -14.286  44.305  0.00  0.00     0.050 A 
ATOM      5  C   UNL d   1      44.921 -14.408  44.627  0.00  0.00     0.090 A 
ATOM      6  C   UNL d   1      45.862 -13.556  43.975  0.00  0.00     0.008 A 
ATOM      7  N   UNL d   1      45.829 -16.316  44.955  0.00  0.00    -0.120 N 
ATOM      8  C   UNL d   1      44.360 -13.802  44.625  0.00  0.00     0.020 A 
ATOM      9  C   UNL d   1      45.307 -12.965  43.977  0.00  0.00     0.001 A 
ATOM     10  C   UNL d   1      44.558 -13.087  44.301  0.00  0.00     0.002 A 
ENDROOT
BRANCH   9  11
ATOM     11  C   UNL d   1      45.498 -12.231  43.648  0.00  0.00     0.000 C 
ATOM     12  C   UNL d   1      45.330 -12.080  42.859  0.00  0.00     0.000 C 
ENDBRANCH   9  11
TORSDOF 1
ENDMDL
