MODEL 1
REMARK VINA RESULT:      -8.0      0.000      0.000
REMARK  4 active torsions:
REMARK  status: ('A' for Active; 'I' for Inactive)
REMARK    1  A    between atoms: N_7  and  C_3 
REMARK       I    between atoms: C_8  and  N_7 
REMARK    2  A    between atoms: C_14  and  C_8 
REMARK    3  A    between atoms: C_15  and  C_14 
REMARK    4  A    between atoms: C_16  and  C_14 
ROOT
ATOM      1  C   UNL d   1      53.938  32.798  54.210  0.00  0.00     0.343 A 
ATOM      2  N   UNL d   1      53.236  32.834  53.794  0.00  0.00    -0.241 N 
ATOM      3  C   UNL d   1      52.745  33.487  53.870  0.00  0.00     0.159 A 
ATOM      4  N   UNL d   1      54.154  33.418  54.708  0.00  0.00    -0.224 N 
ATOM      5  C   UNL d   1      52.960  34.107  54.368  0.00  0.00     0.099 A 
ATOM      6  C   UNL d   1      53.670  34.081  54.796  0.00  0.00     0.271 A 
ATOM      7  O   UNL d   1      54.432  32.141  54.133  0.00  0.00    -0.245 OA
ATOM      8  O   UNL d   1      53.884  34.694  55.288  0.00  0.00    -0.266 OA
ATOM      9  C   UNL d   1      53.021  32.214  53.296  0.00  0.00     0.105 C 
ATOM     10  C   UNL d   1      54.864  33.380  55.129  0.00  0.00     0.107 C 
ENDROOT
BRANCH   3  11
ATOM     11  N   UNL d   1      52.035  33.524  53.449  0.00  0.00    -0.190 NA
ATOM     12  C   UNL d   1      51.830  34.213  53.050  0.00  0.00     0.280 C 
ATOM     13  O   UNL d   1      52.331  34.866  53.069  0.00  0.00    -0.265 OA
BRANCH  12  14
ATOM     14  C   UNL d   1      51.122  34.248  52.632  0.00  0.00     0.058 C 
BRANCH  14  15
ATOM     15  C   UNL d   1      50.395  34.160  53.028  0.00  0.00     0.005 C 
ATOM     16  C   UNL d   1      49.819  34.753  52.963  0.00  0.00     0.000 C 
ENDBRANCH  14  15
BRANCH  14  17
ATOM     17  C   UNL d   1      51.122  34.367  51.842  0.00  0.00     0.005 C 
ATOM     18  C   UNL d   1      50.519  34.066  51.360  0.00  0.00     0.000 C 
ENDBRANCH  14  17
ENDBRANCH  12  14
ENDBRANCH   3  11
TORSDOF 4
ENDMDL
MODEL 2
REMARK VINA RESULT:      -8.0      1.546      3.133
REMARK  4 active torsions:
REMARK  status: ('A' for Active; 'I' for Inactive)
REMARK    1  A    between atoms: N_7  and  C_3 
REMARK       I    between atoms: C_8  and  N_7 
REMARK    2  A    between atoms: C_14  and  C_8 
REMARK    3  A    between atoms: C_15  and  C_14 
REMARK    4  A    between atoms: C_16  and  C_14 
ROOT
ATOM      1  C   UNL d   1      53.596  34.330  54.699  0.00  0.00     0.343 A 
ATOM      2  N   UNL d   1      53.640  33.516  54.652  0.00  0.00    -0.241 N 
ATOM      3  C   UNL d   1      53.153  33.105  54.135  0.00  0.00     0.159 A 
ATOM      4  N   UNL d   1      53.062  34.741  54.225  0.00  0.00    -0.224 N 
ATOM      5  C   UNL d   1      52.619  33.517  53.662  0.00  0.00     0.099 A 
ATOM      6  C   UNL d   1      52.565  34.343  53.700  0.00  0.00     0.271 A 
ATOM      7  O   UNL d   1      54.087  34.742  55.220  0.00  0.00    -0.245 OA
ATOM      8  O   UNL d   1      52.037  34.750  53.232  0.00  0.00    -0.266 OA
ATOM      9  C   UNL d   1      54.175  33.105  55.126  0.00  0.00     0.105 C 
ATOM     10  C   UNL d   1      53.018  35.565  54.273  0.00  0.00     0.107 C 
ENDROOT
BRANCH   3  11
ATOM     11  N   UNL d   1      53.197  32.282  54.087  0.00  0.00    -0.190 NA
ATOM     12  C   UNL d   1      53.159  31.910  53.356  0.00  0.00     0.280 C 
ATOM     13  O   UNL d   1      53.077  32.358  52.669  0.00  0.00    -0.265 OA
BRANCH  12  14
ATOM     14  C   UNL d   1      53.203  31.090  53.310  0.00  0.00     0.058 C 
BRANCH  14  15
ATOM     15  C   UNL d   1      52.618  30.660  52.902  0.00  0.00     0.005 C 
ATOM     16  C   UNL d   1      52.288  29.984  53.252  0.00  0.00     0.000 C 
ENDBRANCH  14  15
BRANCH  14  17
ATOM     17  C   UNL d   1      53.806  30.695  53.655  0.00  0.00     0.005 C 
ATOM     18  C   UNL d   1      54.168  30.050  53.282  0.00  0.00     0.000 C 
ENDBRANCH  14  17
ENDBRANCH  12  14
ENDBRANCH   3  11
TORSDOF 4
ENDMDL
MODEL 3
REMARK VINA RESULT:      -7.6      2.065      3.731
REMARK  4 active torsions:
REMARK  status: ('A' for Active; 'I' for Inactive)
REMARK    1  A    between atoms: N_7  and  C_3 
REMARK       I    between atoms: C_8  and  N_7 
REMARK    2  A    between atoms: C_14  and  C_8 
REMARK    3  A    between atoms: C_15  and  C_14 
REMARK    4  A    between atoms: C_16  and  C_14 
ROOT
ATOM      1  C   UNL d   1      52.650  31.123  52.849  0.00  0.00     0.343 A 
ATOM      2  N   UNL d   1      52.948  31.846  53.082  0.00  0.00    -0.241 N 
ATOM      3  C   UNL d   1      53.553  31.883  53.636  0.00  0.00     0.159 A 
ATOM      4  N   UNL d   1      52.956  30.428  53.169  0.00  0.00    -0.224 N 
ATOM      5  C   UNL d   1      53.859  31.188  53.956  0.00  0.00     0.099 A 
ATOM      6  C   UNL d   1      53.564  30.448  53.726  0.00  0.00     0.271 A 
ATOM      7  O   UNL d   1      52.041  31.087  52.291  0.00  0.00    -0.245 OA
ATOM      8  O   UNL d   1      53.866  29.761  54.042  0.00  0.00    -0.266 OA
ATOM      9  C   UNL d   1      52.642  32.541  52.762  0.00  0.00     0.105 C 
ATOM     10  C   UNL d   1      52.653  29.697  52.931  0.00  0.00     0.107 C 
ENDROOT
BRANCH   3  11
ATOM     11  N   UNL d   1      53.856  32.614  53.873  0.00  0.00    -0.190 NA
ATOM     12  C   UNL d   1      53.955  32.778  54.672  0.00  0.00     0.280 C 
ATOM     13  O   UNL d   1      53.754  32.213  55.238  0.00  0.00    -0.265 OA
BRANCH  12  14
ATOM     14  C   UNL d   1      54.257  33.506  54.906  0.00  0.00     0.058 C 
BRANCH  14  15
ATOM     15  C   UNL d   1      53.780  34.042  55.330  0.00  0.00     0.005 C 
ATOM     16  C   UNL d   1      53.619  34.789  55.009  0.00  0.00     0.000 C 
ENDBRANCH  14  15
BRANCH  14  17
ATOM     17  C   UNL d   1      55.009  33.710  54.732  0.00  0.00     0.005 C 
ATOM     18  C   UNL d   1      55.528  33.986  55.317  0.00  0.00     0.000 C 
ENDBRANCH  14  17
ENDBRANCH  12  14
ENDBRANCH   3  11
TORSDOF 4
ENDMDL
MODEL 4
REMARK VINA RESULT:      -7.2      1.669      2.623
REMARK  4 active torsions:
REMARK  status: ('A' for Active; 'I' for Inactive)
REMARK    1  A    between atoms: N_7  and  C_3 
REMARK       I    between atoms: C_8  and  N_7 
REMARK    2  A    between atoms: C_14  and  C_8 
REMARK    3  A    between atoms: C_15  and  C_14 
REMARK    4  A    between atoms: C_16  and  C_14 
ROOT
ATOM      1  C   UNL d   1      53.715  30.855  53.505  0.00  0.00     0.343 A 
ATOM      2  N   UNL d   1      53.584  31.630  53.284  0.00  0.00    -0.241 N 
ATOM      3  C   UNL d   1      52.836  31.870  53.046  0.00  0.00     0.159 A 
ATOM      4  N   UNL d   1      53.096  30.312  53.489  0.00  0.00    -0.224 N 
ATOM      5  C   UNL d   1      52.217  31.327  53.030  0.00  0.00     0.099 A 
ATOM      6  C   UNL d   1      52.338  30.538  53.253  0.00  0.00     0.271 A 
ATOM      7  O   UNL d   1      54.468  30.615  53.745  0.00  0.00    -0.245 OA
ATOM      8  O   UNL d   1      51.726  30.000  53.237  0.00  0.00    -0.266 OA
ATOM      9  C   UNL d   1      54.203  32.173  53.300  0.00  0.00     0.105 C 
ATOM     10  C   UNL d   1      53.229  29.528  53.713  0.00  0.00     0.107 C 
ENDROOT
BRANCH   3  11
ATOM     11  N   UNL d   1      52.702  32.654  52.822  0.00  0.00    -0.190 NA
ATOM     12  C   UNL d   1      52.043  33.055  53.103  0.00  0.00     0.280 C 
ATOM     13  O   UNL d   1      51.514  32.676  53.609  0.00  0.00    -0.265 OA
BRANCH  12  14
ATOM     14  C   UNL d   1      51.911  33.835  52.879  0.00  0.00     0.058 C 
BRANCH  14  15
ATOM     15  C   UNL d   1      51.984  34.451  53.436  0.00  0.00     0.005 C 
ATOM     16  C   UNL d   1      52.527  35.062  53.301  0.00  0.00     0.000 C 
ENDBRANCH  14  15
BRANCH  14  17
ATOM     17  C   UNL d   1      51.712  34.015  52.127  0.00  0.00     0.005 C 
ATOM     18  C   UNL d   1      50.972  34.339  51.942  0.00  0.00     0.000 C 
ENDBRANCH  14  17
ENDBRANCH  12  14
ENDBRANCH   3  11
TORSDOF 4
ENDMDL
MODEL 5
REMARK VINA RESULT:      -6.4      1.234      3.793
REMARK  4 active torsions:
REMARK  status: ('A' for Active; 'I' for Inactive)
REMARK    1  A    between atoms: N_7  and  C_3 
REMARK       I    between atoms: C_8  and  N_7 
REMARK    2  A    between atoms: C_14  and  C_8 
REMARK    3  A    between atoms: C_15  and  C_14 
REMARK    4  A    between atoms: C_16  and  C_14 
ROOT
ATOM      1  C   UNL d   1      51.243  34.481  53.202  0.00  0.00     0.343 A 
ATOM      2  N   UNL d   1      52.046  34.486  53.349  0.00  0.00    -0.241 N 
ATOM      3  C   UNL d   1      52.458  33.779  53.413  0.00  0.00     0.159 A 
ATOM      4  N   UNL d   1      50.844  33.765  53.117  0.00  0.00    -0.224 N 
ATOM      5  C   UNL d   1      52.059  33.063  53.328  0.00  0.00     0.099 A 
ATOM      6  C   UNL d   1      51.243  33.046  53.179  0.00  0.00     0.271 A 
ATOM      7  O   UNL d   1      50.830  35.194  53.137  0.00  0.00    -0.245 OA
ATOM      8  O   UNL d   1      50.848  32.338  53.096  0.00  0.00    -0.266 OA
ATOM      9  C   UNL d   1      52.445  35.202  53.433  0.00  0.00     0.105 C 
ATOM     10  C   UNL d   1      50.031  33.762  52.969  0.00  0.00     0.107 C 
ENDROOT
BRANCH   3  11
ATOM     11  N   UNL d   1      53.271  33.783  53.562  0.00  0.00    -0.190 NA
ATOM     12  C   UNL d   1      53.592  33.250  54.098  0.00  0.00     0.280 C 
ATOM     13  O   UNL d   1      53.105  32.712  54.489  0.00  0.00    -0.265 OA
BRANCH  12  14
ATOM     14  C   UNL d   1      54.402  33.255  54.245  0.00  0.00     0.058 C 
BRANCH  14  15
ATOM     15  C   UNL d   1      54.722  33.771  54.816  0.00  0.00     0.005 C 
ATOM     16  C   UNL d   1      54.983  33.467  55.541  0.00  0.00     0.000 C 
ENDBRANCH  14  15
BRANCH  14  17
ATOM     17  C   UNL d   1      54.891  32.767  53.844  0.00  0.00     0.005 C 
ATOM     18  C   UNL d   1      55.541  33.060  53.422  0.00  0.00     0.000 C 
ENDBRANCH  14  17
ENDBRANCH  12  14
ENDBRANCH   3  11
TORSDOF 4
ENDMDL
