MODEL 1
REMARK VINA RESULT:      -2.5      0.000      0.000
REMARK  0 active torsions:
REMARK  status: ('A' for Active; 'I' for Inactive)
ROOT
ATOM      1  N   UNL d   1      29.728  16.601 -23.942  0.00  0.00    -0.187 N 
ATOM      2  C   UNL d   1      29.687  15.904 -23.502  0.00  0.00     0.200 A 
ATOM      3  N   UNL d   1      30.376  15.522 -23.257  0.00  0.00    -0.181 NA
ATOM      4  N   UNL d   1      30.476  16.921 -24.140  0.00  0.00    -0.157 NA
ATOM      5  C   UNL d   1      28.956  16.848 -24.101  0.00  0.00     0.194 A 
ATOM      6  C   UNL d   1      31.114  15.835 -23.451  0.00  0.00     0.300 A 
ATOM      7  C   UNL d   1      31.164  16.539 -23.896  0.00  0.00     0.159 A 
ATOM      8  S   UNL d   1      28.890  15.722 -23.391  0.00  0.00    -0.045 SA
ATOM      9  C   UNL d   1      28.436  16.311 -23.765  0.00  0.00     0.079 A 
ATOM     10  O   UNL d   1      31.803  15.452 -23.206  0.00  0.00    -0.263 OA
ATOM     11  N   UNL d   1      28.746  17.521 -24.528  0.00  0.00    -0.126 N 
ATOM     12  C   UNL d   1      31.902  16.852 -24.090  0.00  0.00     0.028 C 
ENDROOT
TORSDOF 0
ENDMDL
MODEL 2
REMARK VINA RESULT:      -2.5      1.605      2.516
REMARK  0 active torsions:
REMARK  status: ('A' for Active; 'I' for Inactive)
ROOT
ATOM      1  N   UNL d   1      30.281  16.724 -24.147  0.00  0.00    -0.187 N 
ATOM      2  C   UNL d   1      29.647  17.091 -24.526  0.00  0.00     0.200 A 
ATOM      3  N   UNL d   1      28.870  16.917 -24.309  0.00  0.00    -0.181 NA
ATOM      4  N   UNL d   1      30.132  16.171 -23.536  0.00  0.00    -0.157 NA
ATOM      5  C   UNL d   1      30.979  17.009 -24.483  0.00  0.00     0.194 A 
ATOM      6  C   UNL d   1      28.721  16.373 -23.708  0.00  0.00     0.300 A 
ATOM      7  C   UNL d   1      29.356  15.997 -23.319  0.00  0.00     0.159 A 
ATOM      8  S   UNL d   1      29.955  17.602 -25.096  0.00  0.00    -0.045 SA
ATOM      9  C   UNL d   1      30.785  17.549 -25.068  0.00  0.00     0.079 A 
ATOM     10  O   UNL d   1      27.944  16.199 -23.491  0.00  0.00    -0.263 OA
ATOM     11  N   UNL d   1      31.742  16.785 -24.265  0.00  0.00    -0.126 N 
ATOM     12  C   UNL d   1      29.206  15.453 -22.718  0.00  0.00     0.028 C 
ENDROOT
TORSDOF 0
ENDMDL
MODEL 3
REMARK VINA RESULT:      -2.4      1.269      1.664
REMARK  0 active torsions:
REMARK  status: ('A' for Active; 'I' for Inactive)
ROOT
ATOM      1  N   UNL d   1      30.096  16.494 -23.883  0.00  0.00    -0.187 N 
ATOM      2  C   UNL d   1      29.942  17.106 -24.415  0.00  0.00     0.200 A 
ATOM      3  N   UNL d   1      30.549  17.603 -24.671  0.00  0.00    -0.181 NA
ATOM      4  N   UNL d   1      30.876  16.378 -23.602  0.00  0.00    -0.157 NA
ATOM      5  C   UNL d   1      29.386  16.100 -23.734  0.00  0.00     0.194 A 
ATOM      6  C   UNL d   1      31.318  17.491 -24.395  0.00  0.00     0.300 A 
ATOM      7  C   UNL d   1      31.483  16.875 -23.858  0.00  0.00     0.159 A 
ATOM      8  S   UNL d   1      29.136  17.088 -24.594  0.00  0.00    -0.045 SA
ATOM      9  C   UNL d   1      28.792  16.461 -24.169  0.00  0.00     0.079 A 
ATOM     10  O   UNL d   1      31.926  17.987 -24.651  0.00  0.00    -0.263 OA
ATOM     11  N   UNL d   1      29.293  15.453 -23.233  0.00  0.00    -0.126 N 
ATOM     12  C   UNL d   1      32.252  16.763 -23.582  0.00  0.00     0.028 C 
ENDROOT
TORSDOF 0
ENDMDL
MODEL 4
REMARK VINA RESULT:      -2.4      6.376      6.863
REMARK  0 active torsions:
REMARK  status: ('A' for Active; 'I' for Inactive)
ROOT
ATOM      1  N   UNL d   1      32.517  22.529 -21.718  0.00  0.00    -0.187 N 
ATOM      2  C   UNL d   1      32.406  22.447 -20.904  0.00  0.00     0.200 A 
ATOM      3  N   UNL d   1      32.569  21.731 -20.529  0.00  0.00    -0.181 NA
ATOM      4  N   UNL d   1      32.797  21.878 -22.164  0.00  0.00    -0.157 NA
ATOM      5  C   UNL d   1      32.309  23.300 -21.928  0.00  0.00     0.194 A 
ATOM      6  C   UNL d   1      32.845  21.088 -20.966  0.00  0.00     0.300 A 
ATOM      7  C   UNL d   1      32.960  21.163 -21.789  0.00  0.00     0.159 A 
ATOM      8  S   UNL d   1      32.130  23.168 -20.613  0.00  0.00    -0.045 SA
ATOM      9  C   UNL d   1      32.070  23.699 -21.252  0.00  0.00     0.079 A 
ATOM     10  O   UNL d   1      33.007  20.372 -20.590  0.00  0.00    -0.263 OA
ATOM     11  N   UNL d   1      32.338  23.615 -22.689  0.00  0.00    -0.126 N 
ATOM     12  C   UNL d   1      33.236  20.520 -22.226  0.00  0.00     0.028 C 
ENDROOT
TORSDOF 0
ENDMDL
MODEL 5
REMARK VINA RESULT:      -2.4      1.471      2.451
REMARK  0 active torsions:
REMARK  status: ('A' for Active; 'I' for Inactive)
ROOT
ATOM      1  N   UNL d   1      30.882  16.990 -24.114  0.00  0.00    -0.187 N 
ATOM      2  C   UNL d   1      30.666  16.255 -23.809  0.00  0.00     0.200 A 
ATOM      3  N   UNL d   1      29.882  15.999 -23.848  0.00  0.00    -0.181 NA
ATOM      4  N   UNL d   1      30.300  17.480 -24.464  0.00  0.00    -0.157 NA
ATOM      5  C   UNL d   1      31.694  17.087 -23.995  0.00  0.00     0.194 A 
ATOM      6  C   UNL d   1      29.307  16.479 -24.192  0.00  0.00     0.300 A 
ATOM      7  C   UNL d   1      29.517  17.224 -24.502  0.00  0.00     0.159 A 
ATOM      8  S   UNL d   1      31.344  15.899 -23.503  0.00  0.00    -0.045 SA
ATOM      9  C   UNL d   1      31.984  16.418 -23.619  0.00  0.00     0.079 A 
ATOM     10  O   UNL d   1      28.524  16.223 -24.230  0.00  0.00    -0.263 OA
ATOM     11  N   UNL d   1      32.135  17.746 -24.217  0.00  0.00    -0.126 N 
ATOM     12  C   UNL d   1      28.942  17.704 -24.846  0.00  0.00     0.028 C 
ENDROOT
TORSDOF 0
ENDMDL
MODEL 6
REMARK VINA RESULT:      -2.3      6.645      7.186
REMARK  0 active torsions:
REMARK  status: ('A' for Active; 'I' for Inactive)
ROOT
ATOM      1  N   UNL d   1      32.576  21.624 -21.080  0.00  0.00    -0.187 N 
ATOM      2  C   UNL d   1      32.899  21.659 -20.322  0.00  0.00     0.200 A 
ATOM      3  N   UNL d   1      32.844  22.349 -19.873  0.00  0.00    -0.181 NA
ATOM      4  N   UNL d   1      32.189  22.297 -21.395  0.00  0.00    -0.157 NA
ATOM      5  C   UNL d   1      32.718  20.870 -21.385  0.00  0.00     0.194 A 
ATOM      6  C   UNL d   1      32.463  23.012 -20.181  0.00  0.00     0.300 A 
ATOM      7  C   UNL d   1      32.134  22.986 -20.946  0.00  0.00     0.159 A 
ATOM      8  S   UNL d   1      33.241  20.925 -20.160  0.00  0.00    -0.045 SA
ATOM      9  C   UNL d   1      33.128  20.436 -20.823  0.00  0.00     0.079 A 
ATOM     10  O   UNL d   1      32.408  23.702 -19.732  0.00  0.00    -0.263 OA
ATOM     11  N   UNL d   1      32.487  20.602 -22.129  0.00  0.00    -0.126 N 
ATOM     12  C   UNL d   1      31.753  23.651 -21.254  0.00  0.00     0.028 C 
ENDROOT
TORSDOF 0
ENDMDL
MODEL 7
REMARK VINA RESULT:      -2.1      2.657      3.400
REMARK  0 active torsions:
REMARK  status: ('A' for Active; 'I' for Inactive)
ROOT
ATOM      1  N   UNL d   1      32.238  17.471 -23.774  0.00  0.00    -0.187 N 
ATOM      2  C   UNL d   1      32.262  17.869 -24.496  0.00  0.00     0.200 A 
ATOM      3  N   UNL d   1      32.595  18.622 -24.550  0.00  0.00    -0.181 NA
ATOM      4  N   UNL d   1      32.555  17.837 -23.090  0.00  0.00    -0.157 NA
ATOM      5  C   UNL d   1      31.875  16.739 -23.897  0.00  0.00     0.194 A 
ATOM      6  C   UNL d   1      32.908  18.984 -23.879  0.00  0.00     0.300 A 
ATOM      7  C   UNL d   1      32.887  18.589 -23.144  0.00  0.00     0.159 A 
ATOM      8  S   UNL d   1      31.914  17.382 -25.065  0.00  0.00    -0.045 SA
ATOM      9  C   UNL d   1      31.674  16.679 -24.690  0.00  0.00     0.079 A 
ATOM     10  O   UNL d   1      33.241  19.737 -23.932  0.00  0.00    -0.263 OA
ATOM     11  N   UNL d   1      31.740  16.168 -23.319  0.00  0.00    -0.126 N 
ATOM     12  C   UNL d   1      33.200  18.952 -22.472  0.00  0.00     0.028 C 
ENDROOT
TORSDOF 0
ENDMDL
MODEL 8
REMARK VINA RESULT:      -2.1      2.446      3.496
REMARK  0 active torsions:
REMARK  status: ('A' for Active; 'I' for Inactive)
ROOT
ATOM      1  N   UNL d   1      32.408  17.998 -23.661  0.00  0.00    -0.187 N 
ATOM      2  C   UNL d   1      32.273  18.228 -24.441  0.00  0.00     0.200 A 
ATOM      3  N   UNL d   1      31.750  17.806 -24.919  0.00  0.00    -0.181 NA
ATOM      4  N   UNL d   1      32.009  17.329 -23.352  0.00  0.00    -0.157 NA
ATOM      5  C   UNL d   1      32.953  18.523 -23.330  0.00  0.00     0.194 A 
ATOM      6  C   UNL d   1      31.356  17.147 -24.618  0.00  0.00     0.300 A 
ATOM      7  C   UNL d   1      31.486  16.908 -23.830  0.00  0.00     0.159 A 
ATOM      8  S   UNL d   1      32.735  18.896 -24.591  0.00  0.00    -0.045 SA
ATOM      9  C   UNL d   1      33.158  19.078 -23.898  0.00  0.00     0.079 A 
ATOM     10  O   UNL d   1      30.832  16.725 -25.096  0.00  0.00    -0.263 OA
ATOM     11  N   UNL d   1      33.241  18.493 -22.558  0.00  0.00    -0.126 N 
ATOM     12  C   UNL d   1      31.092  16.248 -23.529  0.00  0.00     0.028 C 
ENDROOT
TORSDOF 0
ENDMDL
MODEL 9
REMARK VINA RESULT:      -2.0      4.952      5.617
REMARK  0 active torsions:
REMARK  status: ('A' for Active; 'I' for Inactive)
ROOT
ATOM      1  N   UNL d   1      33.148  20.924 -22.050  0.00  0.00    -0.187 N 
ATOM      2  C   UNL d   1      33.149  20.398 -21.415  0.00  0.00     0.200 A 
ATOM      3  N   UNL d   1      33.180  19.584 -21.544  0.00  0.00    -0.181 NA
ATOM      4  N   UNL d   1      33.179  20.627 -22.833  0.00  0.00    -0.157 NA
ATOM      5  C   UNL d   1      33.115  21.692 -21.746  0.00  0.00     0.194 A 
ATOM      6  C   UNL d   1      33.210  19.289 -22.314  0.00  0.00     0.300 A 
ATOM      7  C   UNL d   1      33.209  19.814 -22.962  0.00  0.00     0.159 A 
ATOM      8  S   UNL d   1      33.116  20.841 -20.719  0.00  0.00    -0.045 SA
ATOM      9  C   UNL d   1      33.095  21.647 -20.928  0.00  0.00     0.079 A 
ATOM     10  O   UNL d   1      33.241  18.474 -22.443  0.00  0.00    -0.263 OA
ATOM     11  N   UNL d   1      33.103  22.384 -22.193  0.00  0.00    -0.126 N 
ATOM     12  C   UNL d   1      33.240  19.518 -23.731  0.00  0.00     0.028 C 
ENDROOT
TORSDOF 0
ENDMDL
