MODEL 1
REMARK VINA RESULT:      -2.1      0.000      0.000
REMARK  3 active torsions:
REMARK  status: ('A' for Active; 'I' for Inactive)
REMARK    1  A    between atoms: C_4  and  C_1 
REMARK    2  A    between atoms: C_8  and  C_3 
REMARK    3  A    between atoms: O_20  and  C_16 
ROOT
ATOM      1  C   UNL d   1      31.139  16.490 -24.704  0.00  0.00     0.107 A 
ATOM      2  N   UNL d   1      31.116  15.728 -25.020  0.00  0.00    -0.148 NA
ATOM      3  C   UNL d   1      31.925  16.688 -24.585  0.00  0.00     0.039 A 
ATOM      4  N   UNL d   1      31.896  15.453 -25.097  0.00  0.00    -0.148 NA
ATOM      5  C   UNL d   1      32.410  16.036 -24.831  0.00  0.00     0.104 A 
ATOM      6  C   UNL d   1      33.233  15.987 -24.812  0.00  0.00     0.023 C 
ENDROOT
BRANCH   1   7
ATOM      7  C   UNL d   1      30.465  16.937 -24.552  0.00  0.00     0.059 A 
ATOM      8  C   UNL d   1      29.975  16.740 -23.925  0.00  0.00     0.200 A 
ATOM      9  C   UNL d   1      29.302  17.184 -23.771  0.00  0.00     0.084 A 
ATOM     10  O   UNL d   1      30.160  16.071 -23.427  0.00  0.00    -0.286 OA
ATOM     11  C   UNL d   1      29.125  17.840 -24.264  0.00  0.00     0.199 A 
ATOM     12  C   UNL d   1      29.614  18.036 -24.889  0.00  0.00     0.042 A 
ATOM     13  O   UNL d   1      28.430  18.314 -24.121  0.00  0.00    -0.286 OA
ATOM     14  C   UNL d   1      30.290  17.573 -25.027  0.00  0.00     0.008 A 
ENDBRANCH   1   7
BRANCH   3  15
ATOM     15  C   UNL d   1      32.126  17.450 -24.260  0.00  0.00     0.003 A 
ATOM     16  C   UNL d   1      32.105  18.127 -24.728  0.00  0.00     0.002 A 
ATOM     17  C   UNL d   1      32.307  18.871 -24.390  0.00  0.00     0.024 A 
ATOM     18  C   UNL d   1      32.520  18.906 -23.601  0.00  0.00     0.094 A 
ATOM     19  C   UNL d   1      32.547  18.229 -23.114  0.00  0.00     0.024 A 
ATOM     20  C   UNL d   1      32.345  17.484 -23.451  0.00  0.00     0.002 A 
BRANCH  18  21
ATOM     21  O   UNL d   1      32.723  19.652 -23.264  0.00  0.00    -0.328 OA
ATOM     22  C   UNL d   1      32.602  19.767 -22.444  0.00  0.00     0.181 C 
ENDBRANCH  18  21
ENDBRANCH   3  15
TORSDOF 3
ENDMDL
MODEL 2
REMARK VINA RESULT:       0.8      1.439      2.598
REMARK  3 active torsions:
REMARK  status: ('A' for Active; 'I' for Inactive)
REMARK    1  A    between atoms: C_4  and  C_1 
REMARK    2  A    between atoms: C_8  and  C_3 
REMARK    3  A    between atoms: O_20  and  C_16 
ROOT
ATOM      1  C   UNL d   1      30.586  17.034 -24.203  0.00  0.00     0.107 A 
ATOM      2  N   UNL d   1      29.841  16.691 -24.294  0.00  0.00    -0.148 NA
ATOM      3  C   UNL d   1      30.544  17.801 -24.486  0.00  0.00     0.039 A 
ATOM      4  N   UNL d   1      29.334  17.253 -24.637  0.00  0.00    -0.148 NA
ATOM      5  C   UNL d   1      29.755  17.948 -24.763  0.00  0.00     0.104 A 
ATOM      6  C   UNL d   1      29.458  18.643 -25.093  0.00  0.00     0.023 C 
ENDROOT
BRANCH   1   7
ATOM      7  C   UNL d   1      31.230  16.637 -23.879  0.00  0.00     0.059 A 
ATOM      8  C   UNL d   1      31.582  16.023 -24.291  0.00  0.00     0.200 A 
ATOM      9  C   UNL d   1      32.225  15.625 -23.970  0.00  0.00     0.084 A 
ATOM     10  O   UNL d   1      31.285  15.791 -25.057  0.00  0.00    -0.286 OA
ATOM     11  C   UNL d   1      32.513  15.857 -23.217  0.00  0.00     0.199 A 
ATOM     12  C   UNL d   1      32.161  16.471 -22.806  0.00  0.00     0.042 A 
ATOM     13  O   UNL d   1      33.180  15.457 -22.865  0.00  0.00    -0.286 OA
ATOM     14  C   UNL d   1      31.512  16.860 -23.150  0.00  0.00     0.008 A 
ENDBRANCH   1   7
BRANCH   3  15
ATOM     15  C   UNL d   1      31.236  18.300 -24.465  0.00  0.00     0.003 A 
ATOM     16  C   UNL d   1      31.762  18.318 -25.097  0.00  0.00     0.002 A 
ATOM     17  C   UNL d   1      32.440  18.816 -25.059  0.00  0.00     0.024 A 
ATOM     18  C   UNL d   1      32.562  19.273 -24.391  0.00  0.00     0.094 A 
ATOM     19  C   UNL d   1      32.037  19.266 -23.742  0.00  0.00     0.024 A 
ATOM     20  C   UNL d   1      31.359  18.768 -23.780  0.00  0.00     0.002 A 
BRANCH  18  21
ATOM     21  O   UNL d   1      33.240  19.772 -24.353  0.00  0.00    -0.328 OA
ATOM     22  C   UNL d   1      33.167  20.523 -23.993  0.00  0.00     0.181 C 
ENDBRANCH  18  21
ENDBRANCH   3  15
TORSDOF 3
ENDMDL
