MODEL 1
REMARK VINA RESULT:      -7.0      0.000      0.000
REMARK  4 active torsions:
REMARK  status: ('A' for Active; 'I' for Inactive)
REMARK    1  A    between atoms: C_2  and  N_1 
REMARK    2  A    between atoms: C_6  and  C_2 
REMARK    3  A    between atoms: C_7  and  C_2 
REMARK    4  A    between atoms: C_9  and  C_6 
ROOT
ATOM      1  C   UNL d   1      53.751  32.697  53.828  0.00  0.00     0.153 C 
ENDROOT
BRANCH   1   2
ATOM      2  N   UNL d   1      53.409  31.987  53.579  0.00  0.00    -0.224 N 
ATOM      3  N   UNL d   1      53.695  31.235  53.695  0.00  0.00    -0.165 NA
ATOM      4  C   UNL d   1      53.177  30.701  53.356  0.00  0.00     0.103 A 
ATOM      5  C   UNL d   1      53.263  29.848  53.348  0.00  0.00     0.022 C 
ATOM      6  C   UNL d   1      52.553  31.122  53.019  0.00  0.00     0.040 A 
ATOM      7  C   UNL d   1      52.696  31.907  53.156  0.00  0.00     0.085 A 
ATOM      8  C   UNL d   1      52.192  32.533  52.904  0.00  0.00     0.021 C 
ENDBRANCH   1   2
BRANCH   1   9
ATOM      9  C   UNL d   1      53.461  33.093  54.499  0.00  0.00     0.096 C 
BRANCH   9  10
ATOM     10  C   UNL d   1      53.982  33.324  55.089  0.00  0.00     0.213 C 
ATOM     11  O   UNL d   1      54.209  34.112  55.183  0.00  0.00    -0.644 OA
ATOM     12  O   UNL d   1      54.312  32.780  55.626  0.00  0.00    -0.644 OA
ENDBRANCH   9  10
ENDBRANCH   1   9
BRANCH   1  13
ATOM     13  C   UNL d   1      54.380  33.015  53.412  0.00  0.00     0.230 C 
ATOM     14  O   UNL d   1      54.258  33.684  52.937  0.00  0.00    -0.643 OA
ATOM     15  O   UNL d   1      55.139  32.677  53.460  0.00  0.00    -0.643 OA
ENDBRANCH   1  13
TORSDOF 4
ENDMDL
MODEL 2
REMARK VINA RESULT:      -6.9      1.566      2.099
REMARK  4 active torsions:
REMARK  status: ('A' for Active; 'I' for Inactive)
REMARK    1  A    between atoms: C_2  and  N_1 
REMARK    2  A    between atoms: C_6  and  C_2 
REMARK    3  A    between atoms: C_7  and  C_2 
REMARK    4  A    between atoms: C_9  and  C_6 
ROOT
ATOM      1  C   UNL d   1      53.636  33.368  53.963  0.00  0.00     0.153 C 
ENDROOT
BRANCH   1   2
ATOM      2  N   UNL d   1      52.884  33.577  53.693  0.00  0.00    -0.224 N 
ATOM      3  N   UNL d   1      52.234  33.094  53.621  0.00  0.00    -0.165 NA
ATOM      4  C   UNL d   1      51.609  33.535  53.332  0.00  0.00     0.103 A 
ATOM      5  C   UNL d   1      50.818  33.246  53.172  0.00  0.00     0.022 C 
ATOM      6  C   UNL d   1      51.867  34.309  53.218  0.00  0.00     0.040 A 
ATOM      7  C   UNL d   1      52.646  34.334  53.439  0.00  0.00     0.085 A 
ATOM      8  C   UNL d   1      53.126  35.025  53.410  0.00  0.00     0.021 C 
ENDBRANCH   1   2
BRANCH   1   9
ATOM      9  C   UNL d   1      53.942  33.704  54.659  0.00  0.00     0.096 C 
BRANCH   9  10
ATOM     10  C   UNL d   1      54.354  33.231  55.189  0.00  0.00     0.213 C 
ATOM     11  O   UNL d   1      55.152  33.361  55.357  0.00  0.00    -0.644 OA
ATOM     12  O   UNL d   1      53.993  32.595  55.586  0.00  0.00    -0.644 OA
ENDBRANCH   9  10
ENDBRANCH   1   9
BRANCH   1  13
ATOM     13  C   UNL d   1      54.085  32.828  53.544  0.00  0.00     0.230 C 
ATOM     14  O   UNL d   1      54.731  33.094  53.097  0.00  0.00    -0.643 OA
ATOM     15  O   UNL d   1      53.902  32.016  53.561  0.00  0.00    -0.643 OA
ENDBRANCH   1  13
TORSDOF 4
ENDMDL
MODEL 3
REMARK VINA RESULT:      -6.9      1.653      2.893
REMARK  4 active torsions:
REMARK  status: ('A' for Active; 'I' for Inactive)
REMARK    1  A    between atoms: C_2  and  N_1 
REMARK    2  A    between atoms: C_6  and  C_2 
REMARK    3  A    between atoms: C_7  and  C_2 
REMARK    4  A    between atoms: C_9  and  C_6 
ROOT
ATOM      1  C   UNL d   1      53.468  31.910  53.476  0.00  0.00     0.153 C 
ENDROOT
BRANCH   1   2
ATOM      2  N   UNL d   1      53.908  32.399  53.976  0.00  0.00    -0.224 N 
ATOM      3  N   UNL d   1      53.756  32.574  54.755  0.00  0.00    -0.165 NA
ATOM      4  C   UNL d   1      54.337  33.079  55.031  0.00  0.00     0.103 A 
ATOM      5  C   UNL d   1      54.391  33.403  55.822  0.00  0.00     0.022 C 
ATOM      6  C   UNL d   1      54.866  33.226  54.416  0.00  0.00     0.040 A 
ATOM      7  C   UNL d   1      54.603  32.810  53.772  0.00  0.00     0.085 A 
ATOM      8  C   UNL d   1      54.985  32.805  53.022  0.00  0.00     0.021 C 
ENDBRANCH   1   2
BRANCH   1   9
ATOM      9  C   UNL d   1      53.737  31.146  53.288  0.00  0.00     0.096 C 
BRANCH   9  10
ATOM     10  C   UNL d   1      53.260  30.498  53.451  0.00  0.00     0.213 C 
ATOM     11  O   UNL d   1      52.718  30.209  52.899  0.00  0.00    -0.644 OA
ATOM     12  O   UNL d   1      53.294  30.095  54.178  0.00  0.00    -0.644 OA
ENDBRANCH   9  10
ENDBRANCH   1   9
BRANCH   1  13
ATOM     13  C   UNL d   1      52.761  32.177  53.163  0.00  0.00     0.230 C 
ATOM     14  O   UNL d   1      52.707  32.328  52.348  0.00  0.00    -0.643 OA
ATOM     15  O   UNL d   1      52.097  32.300  53.649  0.00  0.00    -0.643 OA
ENDBRANCH   1  13
TORSDOF 4
ENDMDL
MODEL 4
REMARK VINA RESULT:      -6.5      1.935      2.903
REMARK  4 active torsions:
REMARK  status: ('A' for Active; 'I' for Inactive)
REMARK    1  A    between atoms: C_2  and  N_1 
REMARK    2  A    between atoms: C_6  and  C_2 
REMARK    3  A    between atoms: C_7  and  C_2 
REMARK    4  A    between atoms: C_9  and  C_6 
ROOT
ATOM      1  C   UNL d   1      52.454  33.806  53.357  0.00  0.00     0.153 C 
ENDROOT
BRANCH   1   2
ATOM      2  N   UNL d   1      53.037  33.429  53.804  0.00  0.00    -0.224 N 
ATOM      3  N   UNL d   1      53.337  33.665  54.523  0.00  0.00    -0.165 NA
ATOM      4  C   UNL d   1      53.904  33.125  54.761  0.00  0.00     0.103 A 
ATOM      5  C   UNL d   1      54.361  33.159  55.485  0.00  0.00     0.022 C 
ATOM      6  C   UNL d   1      53.964  32.539  54.185  0.00  0.00     0.040 A 
ATOM      7  C   UNL d   1      53.434  32.725  53.601  0.00  0.00     0.085 A 
ATOM      8  C   UNL d   1      53.315  32.269  52.904  0.00  0.00     0.021 C 
ENDBRANCH   1   2
BRANCH   1   9
ATOM      9  C   UNL d   1      51.801  33.379  53.070  0.00  0.00     0.096 C 
BRANCH   9  10
ATOM     10  C   UNL d   1      51.046  33.689  53.154  0.00  0.00     0.213 C 
ATOM     11  O   UNL d   1      50.601  33.566  53.839  0.00  0.00    -0.644 OA
ATOM     12  O   UNL d   1      50.685  34.143  52.558  0.00  0.00    -0.644 OA
ENDBRANCH   9  10
ENDBRANCH   1   9
BRANCH   1  13
ATOM     13  C   UNL d   1      52.517  34.605  53.194  0.00  0.00     0.230 C 
ATOM     14  O   UNL d   1      52.784  34.849  52.447  0.00  0.00    -0.643 OA
ATOM     15  O   UNL d   1      52.316  35.175  53.766  0.00  0.00    -0.643 OA
ENDBRANCH   1  13
TORSDOF 4
ENDMDL
MODEL 5
REMARK VINA RESULT:      -6.3      1.344      2.188
REMARK  4 active torsions:
REMARK  status: ('A' for Active; 'I' for Inactive)
REMARK    1  A    between atoms: C_2  and  N_1 
REMARK    2  A    between atoms: C_6  and  C_2 
REMARK    3  A    between atoms: C_7  and  C_2 
REMARK    4  A    between atoms: C_9  and  C_6 
ROOT
ATOM      1  C   UNL d   1      53.515  33.864  54.066  0.00  0.00     0.153 C 
ENDROOT
BRANCH   1   2
ATOM      2  N   UNL d   1      53.591  33.090  53.787  0.00  0.00    -0.224 N 
ATOM      3  N   UNL d   1      53.007  32.527  53.730  0.00  0.00    -0.165 NA
ATOM      4  C   UNL d   1      53.331  31.841  53.424  0.00  0.00     0.103 A 
ATOM      5  C   UNL d   1      52.913  31.108  53.272  0.00  0.00     0.022 C 
ATOM      6  C   UNL d   1      54.133  31.972  53.285  0.00  0.00     0.040 A 
ATOM      7  C   UNL d   1      54.290  32.735  53.507  0.00  0.00     0.085 A 
ATOM      8  C   UNL d   1      55.048  33.097  53.456  0.00  0.00     0.021 C 
ENDBRANCH   1   2
BRANCH   1   9
ATOM      9  C   UNL d   1      53.354  34.487  53.541  0.00  0.00     0.096 C 
BRANCH   9  10
ATOM     10  C   UNL d   1      52.680  34.943  53.648  0.00  0.00     0.213 C 
ATOM     11  O   UNL d   1      52.690  35.630  54.107  0.00  0.00    -0.644 OA
ATOM     12  O   UNL d   1      51.950  34.742  53.304  0.00  0.00    -0.644 OA
ENDBRANCH   9  10
ENDBRANCH   1   9
BRANCH   1  13
ATOM     13  C   UNL d   1      53.599  34.020  54.864  0.00  0.00     0.230 C 
ATOM     14  O   UNL d   1      54.265  34.437  55.131  0.00  0.00    -0.643 OA
ATOM     15  O   UNL d   1      53.026  33.767  55.412  0.00  0.00    -0.643 OA
ENDBRANCH   1  13
TORSDOF 4
ENDMDL
