MODEL 1
REMARK VINA RESULT:      -2.3      0.000      0.000
REMARK  4 active torsions:
REMARK  status: ('A' for Active; 'I' for Inactive)
REMARK    1  A    between atoms: C_2  and  S_1 
REMARK    2  A    between atoms: N_3  and  S_1 
REMARK    3  A    between atoms: C_4  and  C_6 
REMARK       I    between atoms: N_5  and  C_4 
REMARK    4  A    between atoms: C_11  and  N_8 
ROOT
ATOM      1  C   UNL d   1      32.818  20.209 -22.110  0.00  0.00     0.104 A 
ATOM      2  C   UNL d   1      32.819  19.224 -23.138  0.00  0.00     0.057 A 
ATOM      3  C   UNL d   1      32.677  20.000 -22.891  0.00  0.00     0.018 A 
ATOM      4  C   UNL d   1      33.099  19.657 -21.571  0.00  0.00     0.012 A 
ATOM      5  C   UNL d   1      33.101  18.665 -22.602  0.00  0.00     0.005 A 
ATOM      6  C   UNL d   1      33.241  18.881 -21.818  0.00  0.00     0.001 A 
ATOM      7  C   UNL d   1      33.241  19.866 -20.790  0.00  0.00     0.001 C 
ENDROOT
BRANCH   2   8
ATOM      8  C   UNL d   1      32.682  18.998 -23.920  0.00  0.00     0.265 C 
ATOM      9  N   UNL d   1      32.052  18.492 -24.088  0.00  0.00    -0.269 N 
ATOM     10  C   UNL d   1      31.912  18.266 -24.862  0.00  0.00     0.102 A 
ATOM     11  C   UNL d   1      31.571  18.221 -23.473  0.00  0.00     0.102 A 
ATOM     12  C   UNL d   1      31.282  17.760 -25.030  0.00  0.00     0.100 A 
ATOM     13  N   UNL d   1      30.797  17.485 -24.421  0.00  0.00    -0.301 N 
ATOM     14  C   UNL d   1      30.944  17.717 -23.644  0.00  0.00     0.100 A 
ATOM     15  O   UNL d   1      33.166  19.275 -24.519  0.00  0.00    -0.267 OA
BRANCH  13  16
ATOM     16  C   UNL d   1      30.167  16.979 -24.589  0.00  0.00     0.064 A 
ATOM     17  C   UNL d   1      29.425  17.294 -24.774  0.00  0.00     0.020 A 
ATOM     18  C   UNL d   1      28.796  16.787 -24.942  0.00  0.00     0.031 A 
ATOM     19  C   UNL d   1      28.901  15.970 -24.926  0.00  0.00     0.140 A 
ATOM     20  C   UNL d   1      29.652  15.656 -24.739  0.00  0.00     0.031 A 
ATOM     21  F   UNL d   1      28.272  15.463 -25.094  0.00  0.00    -0.204 F 
ATOM     22  C   UNL d   1      30.282  16.162 -24.571  0.00  0.00     0.020 A 
ENDBRANCH  13  16
ENDBRANCH   2   8
BRANCH   1  23
ATOM     23  S   UNL d   1      32.676  20.985 -21.863  0.00  0.00     0.271 S 
ATOM     24  O   UNL d   1      32.187  20.704 -21.260  0.00  0.00    -0.200 OA
ATOM     25  O   UNL d   1      33.241  21.310 -22.558  0.00  0.00    -0.200 OA
BRANCH  23  26
ATOM     26  N   UNL d   1      32.573  21.779 -21.663  0.00  0.00    -0.229 N 
ATOM     27  C   UNL d   1      31.879  22.010 -21.288  0.00  0.00     0.092 A 
ATOM     28  C   UNL d   1      31.771  22.807 -21.085  0.00  0.00     0.020 A 
ATOM     29  C   UNL d   1      32.359  23.352 -21.264  0.00  0.00     0.003 A 
ATOM     30  C   UNL d   1      33.045  23.116 -21.636  0.00  0.00     0.020 A 
ATOM     31  C   UNL d   1      33.156  22.333 -21.837  0.00  0.00     0.092 A 
ENDBRANCH  23  26
ENDBRANCH   1  23
TORSDOF 4
ENDMDL
