MODEL 1
REMARK VINA RESULT:      -3.0      0.000      0.000
REMARK  4 active torsions:
REMARK  status: ('A' for Active; 'I' for Inactive)
REMARK    1  A    between atoms: N_7  and  C_3 
REMARK       I    between atoms: C_8  and  N_7 
REMARK    2  A    between atoms: C_10  and  C_8 
REMARK    3  A    between atoms: C_12  and  C_10 
REMARK    4  A    between atoms: C_16  and  C_12 
ROOT
ATOM      1  N   UNL d   1      33.241  20.151 -22.847  0.00  0.00    -0.190 NA
ATOM      2  C   UNL d   1      32.933  20.316 -22.103  0.00  0.00     0.281 C 
ATOM      3  O   UNL d   1      32.552  19.724 -21.672  0.00  0.00    -0.265 OA
ENDROOT
BRANCH   1   4
ATOM      4  C   UNL d   1      33.169  19.391 -23.166  0.00  0.00     0.159 A 
ATOM      5  N   UNL d   1      33.050  19.288 -23.972  0.00  0.00    -0.241 N 
ATOM      6  C   UNL d   1      32.980  18.537 -24.286  0.00  0.00     0.343 A 
ATOM      7  C   UNL d   1      33.002  19.947 -24.466  0.00  0.00     0.105 C 
ATOM      8  N   UNL d   1      33.028  17.878 -23.791  0.00  0.00    -0.224 N 
ATOM      9  O   UNL d   1      32.860  18.436 -25.097  0.00  0.00    -0.245 OA
ATOM     10  C   UNL d   1      33.147  17.964 -22.979  0.00  0.00     0.271 A 
ATOM     11  C   UNL d   1      32.957  17.118 -24.108  0.00  0.00     0.107 C 
ATOM     12  C   UNL d   1      33.218  18.732 -22.671  0.00  0.00     0.099 A 
ATOM     13  O   UNL d   1      33.195  17.312 -22.490  0.00  0.00    -0.266 OA
ENDBRANCH   1   4
BRANCH   2  14
ATOM     14  C   UNL d   1      33.005  21.073 -21.787  0.00  0.00     0.063 C 
BRANCH  14  15
ATOM     15  C   UNL d   1      32.499  21.316 -21.191  0.00  0.00     0.005 C 
BRANCH  15  16
ATOM     16  C   UNL d   1      32.516  22.083 -20.921  0.00  0.00     0.000 A 
ATOM     17  C   UNL d   1      32.086  22.663 -21.326  0.00  0.00     0.000 A 
ATOM     18  C   UNL d   1      32.099  23.455 -21.055  0.00  0.00     0.000 A 
ATOM     19  C   UNL d   1      32.534  23.643 -20.397  0.00  0.00     0.000 A 
ATOM     20  C   UNL d   1      32.964  23.067 -19.991  0.00  0.00     0.000 A 
ATOM     21  C   UNL d   1      32.951  22.278 -20.261  0.00  0.00     0.000 A 
ENDBRANCH  15  16
ENDBRANCH  14  15
ENDBRANCH   2  14
TORSDOF 4
ENDMDL
MODEL 2
REMARK VINA RESULT:      -2.8      1.127      1.660
REMARK  4 active torsions:
REMARK  status: ('A' for Active; 'I' for Inactive)
REMARK    1  A    between atoms: N_7  and  C_3 
REMARK       I    between atoms: C_8  and  N_7 
REMARK    2  A    between atoms: C_10  and  C_8 
REMARK    3  A    between atoms: C_12  and  C_10 
REMARK    4  A    between atoms: C_16  and  C_12 
ROOT
ATOM      1  N   UNL d   1      32.767  18.802 -23.480  0.00  0.00    -0.190 NA
ATOM      2  C   UNL d   1      32.993  19.015 -22.719  0.00  0.00     0.281 C 
ATOM      3  O   UNL d   1      33.045  18.442 -22.127  0.00  0.00    -0.265 OA
ENDROOT
BRANCH   1   4
ATOM      4  C   UNL d   1      32.591  18.013 -23.655  0.00  0.00     0.159 A 
ATOM      5  N   UNL d   1      32.009  17.829 -24.205  0.00  0.00    -0.241 N 
ATOM      6  C   UNL d   1      31.836  17.049 -24.377  0.00  0.00     0.343 A 
ATOM      7  C   UNL d   1      31.599  18.435 -24.585  0.00  0.00     0.105 C 
ATOM      8  N   UNL d   1      32.247  16.443 -23.996  0.00  0.00    -0.224 N 
ATOM      9  O   UNL d   1      31.251  16.866 -24.930  0.00  0.00    -0.245 OA
ATOM     10  C   UNL d   1      32.834  16.610 -23.441  0.00  0.00     0.271 A 
ATOM     11  C   UNL d   1      32.072  15.653 -24.170  0.00  0.00     0.107 C 
ATOM     12  C   UNL d   1      33.001  17.406 -23.274  0.00  0.00     0.099 A 
ATOM     13  O   UNL d   1      33.240  16.010 -23.064  0.00  0.00    -0.266 OA
ENDBRANCH   1   4
BRANCH   2  14
ATOM     14  C   UNL d   1      33.167  19.801 -22.547  0.00  0.00     0.063 C 
BRANCH  14  15
ATOM     15  C   UNL d   1      33.108  20.072 -21.776  0.00  0.00     0.005 C 
BRANCH  15  16
ATOM     16  C   UNL d   1      32.936  20.852 -21.626  0.00  0.00     0.000 A 
ATOM     17  C   UNL d   1      33.241  21.437 -22.126  0.00  0.00     0.000 A 
ATOM     18  C   UNL d   1      33.068  22.242 -21.978  0.00  0.00     0.000 A 
ATOM     19  C   UNL d   1      32.603  22.440 -21.344  0.00  0.00     0.000 A 
ATOM     20  C   UNL d   1      32.297  21.859 -20.843  0.00  0.00     0.000 A 
ATOM     21  C   UNL d   1      32.469  21.056 -20.990  0.00  0.00     0.000 A 
ENDBRANCH  15  16
ENDBRANCH  14  15
ENDBRANCH   2  14
TORSDOF 4
ENDMDL
MODEL 3
REMARK VINA RESULT:      -2.8      1.686      5.033
REMARK  4 active torsions:
REMARK  status: ('A' for Active; 'I' for Inactive)
REMARK    1  A    between atoms: N_7  and  C_3 
REMARK       I    between atoms: C_8  and  N_7 
REMARK    2  A    between atoms: C_10  and  C_8 
REMARK    3  A    between atoms: C_12  and  C_10 
REMARK    4  A    between atoms: C_16  and  C_12 
ROOT
ATOM      1  N   UNL d   1      32.763  20.389 -21.158  0.00  0.00    -0.190 NA
ATOM      2  C   UNL d   1      32.973  20.198 -21.931  0.00  0.00     0.281 C 
ATOM      3  O   UNL d   1      33.151  20.797 -22.470  0.00  0.00    -0.265 OA
ENDROOT
BRANCH   1   4
ATOM      4  C   UNL d   1      32.730  21.180 -20.921  0.00  0.00     0.159 A 
ATOM      5  N   UNL d   1      32.968  21.397 -20.166  0.00  0.00    -0.241 N 
ATOM      6  C   UNL d   1      32.934  22.180 -19.932  0.00  0.00     0.343 A 
ATOM      7  C   UNL d   1      33.241  20.822 -19.641  0.00  0.00     0.105 C 
ATOM      8  N   UNL d   1      32.661  22.755 -20.457  0.00  0.00    -0.224 N 
ATOM      9  O   UNL d   1      33.174  22.396 -19.172  0.00  0.00    -0.245 OA
ATOM     10  C   UNL d   1      32.418  22.553 -21.220  0.00  0.00     0.271 A 
ATOM     11  C   UNL d   1      32.627  23.546 -20.221  0.00  0.00     0.107 C 
ATOM     12  C   UNL d   1      32.457  21.755 -21.446  0.00  0.00     0.099 A 
ATOM     13  O   UNL d   1      32.148  23.123 -21.740  0.00  0.00    -0.266 OA
ENDBRANCH   1   4
BRANCH   2  14
ATOM     14  C   UNL d   1      33.006  19.410 -22.165  0.00  0.00     0.063 C 
BRANCH  14  15
ATOM     15  C   UNL d   1      32.877  19.212 -22.949  0.00  0.00     0.005 C 
BRANCH  15  16
ATOM     16  C   UNL d   1      32.881  18.434 -23.185  0.00  0.00     0.000 A 
ATOM     17  C   UNL d   1      32.516  18.227 -23.898  0.00  0.00     0.000 A 
ATOM     18  C   UNL d   1      32.515  17.428 -24.148  0.00  0.00     0.000 A 
ATOM     19  C   UNL d   1      32.875  16.866 -23.687  0.00  0.00     0.000 A 
ATOM     20  C   UNL d   1      33.240  17.070 -22.975  0.00  0.00     0.000 A 
ATOM     21  C   UNL d   1      33.241  17.866 -22.726  0.00  0.00     0.000 A 
ENDBRANCH  15  16
ENDBRANCH  14  15
ENDBRANCH   2  14
TORSDOF 4
ENDMDL
MODEL 4
REMARK VINA RESULT:      -2.4      1.393      4.765
REMARK  4 active torsions:
REMARK  status: ('A' for Active; 'I' for Inactive)
REMARK    1  A    between atoms: N_7  and  C_3 
REMARK       I    between atoms: C_8  and  N_7 
REMARK    2  A    between atoms: C_10  and  C_8 
REMARK    3  A    between atoms: C_12  and  C_10 
REMARK    4  A    between atoms: C_16  and  C_12 
ROOT
ATOM      1  N   UNL d   1      33.241  20.242 -22.674  0.00  0.00    -0.190 NA
ATOM      2  C   UNL d   1      33.060  19.454 -22.519  0.00  0.00     0.281 C 
ATOM      3  O   UNL d   1      32.877  19.216 -21.751  0.00  0.00    -0.265 OA
ENDROOT
BRANCH   1   4
ATOM      4  C   UNL d   1      33.240  20.796 -22.060  0.00  0.00     0.159 A 
ATOM      5  N   UNL d   1      33.240  21.600 -22.226  0.00  0.00    -0.241 N 
ATOM      6  C   UNL d   1      33.238  22.146 -21.618  0.00  0.00     0.343 A 
ATOM      7  C   UNL d   1      33.241  21.856 -23.010  0.00  0.00     0.105 C 
ATOM      8  N   UNL d   1      33.237  21.890 -20.834  0.00  0.00    -0.224 N 
ATOM      9  O   UNL d   1      33.238  22.955 -21.788  0.00  0.00    -0.245 OA
ATOM     10  C   UNL d   1      33.237  21.085 -20.650  0.00  0.00     0.271 A 
ATOM     11  C   UNL d   1      33.235  22.443 -20.219  0.00  0.00     0.107 C 
ATOM     12  C   UNL d   1      33.238  20.539 -21.275  0.00  0.00     0.099 A 
ATOM     13  O   UNL d   1      33.235  20.832 -19.873  0.00  0.00    -0.266 OA
ENDBRANCH   1   4
BRANCH   2  14
ATOM     14  C   UNL d   1      33.062  18.904 -23.132  0.00  0.00     0.063 C 
BRANCH  14  15
ATOM     15  C   UNL d   1      32.537  18.276 -23.116  0.00  0.00     0.005 C 
BRANCH  15  16
ATOM     16  C   UNL d   1      32.452  17.793 -23.765  0.00  0.00     0.000 A 
ATOM     17  C   UNL d   1      31.778  17.872 -24.241  0.00  0.00     0.000 A 
ATOM     18  C   UNL d   1      31.682  17.380 -24.911  0.00  0.00     0.000 A 
ATOM     19  C   UNL d   1      32.252  16.830 -25.086  0.00  0.00     0.000 A 
ATOM     20  C   UNL d   1      32.925  16.749 -24.614  0.00  0.00     0.000 A 
ATOM     21  C   UNL d   1      33.021  17.240 -23.946  0.00  0.00     0.000 A 
ENDBRANCH  15  16
ENDBRANCH  14  15
ENDBRANCH   2  14
TORSDOF 4
ENDMDL
