MODEL 1
REMARK VINA RESULT:      -5.5      0.000      0.000
REMARK  1 active torsions:
REMARK  status: ('A' for Active; 'I' for Inactive)
REMARK    1  A    between atoms: C_7  and  C_2 
ROOT
ATOM      1  C   UNL d   1      56.999  -0.955  31.597  0.00  0.00     0.257 A 
ATOM      2  C   UNL d   1      57.184  -0.155  31.540  0.00  0.00     0.142 A 
ATOM      3  C   UNL d   1      56.441  -1.213  32.153  0.00  0.00     0.238 A 
ATOM      4  O   UNL d   1      56.816   0.378  32.032  0.00  0.00    -0.304 OA
ATOM      5  C   UNL d   1      56.069  -0.651  32.654  0.00  0.00     0.065 A 
ATOM      6  C   UNL d   1      56.254   0.148  32.597  0.00  0.00     0.103 A 
ATOM      7  O   UNL d   1      56.259  -2.031  32.204  0.00  0.00    -0.283 OA
ATOM      8  O   UNL d   1      57.371  -1.517  31.095  0.00  0.00    -0.281 OA
ATOM      9  C   UNL d   1      55.508  -0.911  33.214  0.00  0.00     0.005 A 
ATOM     10  C   UNL d   1      55.885   0.682  33.089  0.00  0.00     0.025 A 
ATOM     11  C   UNL d   1      55.138  -0.368  33.709  0.00  0.00     0.000 A 
ATOM     12  C   UNL d   1      55.324   0.422  33.649  0.00  0.00     0.002 A 
ENDROOT
BRANCH   2  13
ATOM     13  C   UNL d   1      57.743   0.123  30.986  0.00  0.00     0.026 A 
ATOM     14  C   UNL d   1      58.516   0.313  31.261  0.00  0.00     0.002 A 
ATOM     15  C   UNL d   1      59.064   0.588  30.711  0.00  0.00     0.000 A 
ATOM     16  C   UNL d   1      58.884   0.681  29.913  0.00  0.00     0.000 A 
ATOM     17  C   UNL d   1      58.119   0.491  29.657  0.00  0.00     0.000 A 
ATOM     18  C   UNL d   1      57.555   0.215  30.188  0.00  0.00     0.002 A 
ENDBRANCH   2  13
TORSDOF 1
ENDMDL
MODEL 2
REMARK VINA RESULT:      -5.5      0.843      3.496
REMARK  1 active torsions:
REMARK  status: ('A' for Active; 'I' for Inactive)
REMARK    1  A    between atoms: C_7  and  C_2 
ROOT
ATOM      1  C   UNL d   1      55.990  -0.940  32.860  0.00  0.00     0.257 A 
ATOM      2  C   UNL d   1      56.002  -0.147  33.078  0.00  0.00     0.142 A 
ATOM      3  C   UNL d   1      56.429  -1.197  32.205  0.00  0.00     0.238 A 
ATOM      4  O   UNL d   1      56.447   0.381  32.647  0.00  0.00    -0.304 OA
ATOM      5  C   UNL d   1      56.883  -0.640  31.769  0.00  0.00     0.065 A 
ATOM      6  C   UNL d   1      56.895   0.153  31.988  0.00  0.00     0.103 A 
ATOM      7  O   UNL d   1      56.411  -2.008  31.989  0.00  0.00    -0.283 OA
ATOM      8  O   UNL d   1      55.536  -1.496  33.295  0.00  0.00    -0.281 OA
ATOM      9  C   UNL d   1      57.325  -0.899  31.111  0.00  0.00     0.005 A 
ATOM     10  C   UNL d   1      57.340   0.681  31.557  0.00  0.00     0.025 A 
ATOM     11  C   UNL d   1      57.773  -0.361  30.678  0.00  0.00     0.000 A 
ATOM     12  C   UNL d   1      57.781   0.423  30.898  0.00  0.00     0.002 A 
ENDROOT
BRANCH   2  13
ATOM     13  C   UNL d   1      55.567   0.130  33.734  0.00  0.00     0.026 A 
ATOM     14  C   UNL d   1      55.974   0.248  34.462  0.00  0.00     0.002 A 
ATOM     15  C   UNL d   1      55.540   0.521  35.106  0.00  0.00     0.000 A 
ATOM     16  C   UNL d   1      54.733   0.681  35.063  0.00  0.00     0.000 A 
ATOM     17  C   UNL d   1      54.346   0.561  34.341  0.00  0.00     0.000 A 
ATOM     18  C   UNL d   1      54.759   0.288  33.683  0.00  0.00     0.002 A 
ENDBRANCH   2  13
TORSDOF 1
ENDMDL
MODEL 3
REMARK VINA RESULT:      -4.8      0.878      3.619
REMARK  1 active torsions:
REMARK  status: ('A' for Active; 'I' for Inactive)
REMARK    1  A    between atoms: C_7  and  C_2 
ROOT
ATOM      1  C   UNL d   1      57.839   0.378  32.424  0.00  0.00     0.257 A 
ATOM      2  C   UNL d   1      57.114   0.228  32.066  0.00  0.00     0.142 A 
ATOM      3  C   UNL d   1      58.508   0.530  31.959  0.00  0.00     0.238 A 
ATOM      4  O   UNL d   1      57.059   0.230  31.254  0.00  0.00    -0.304 OA
ATOM      5  C   UNL d   1      58.436   0.528  31.122  0.00  0.00     0.065 A 
ATOM      6  C   UNL d   1      57.711   0.378  30.764  0.00  0.00     0.103 A 
ATOM      7  O   UNL d   1      59.244   0.682  32.333  0.00  0.00    -0.283 OA
ATOM      8  O   UNL d   1      57.910   0.379  33.261  0.00  0.00    -0.281 OA
ATOM      9  C   UNL d   1      59.110   0.681  30.653  0.00  0.00     0.005 A 
ATOM     10  C   UNL d   1      57.656   0.380  29.952  0.00  0.00     0.025 A 
ATOM     11  C   UNL d   1      59.049   0.682  29.833  0.00  0.00     0.000 A 
ATOM     12  C   UNL d   1      58.329   0.533  29.484  0.00  0.00     0.002 A 
ENDROOT
BRANCH   2  13
ATOM     13  C   UNL d   1      56.429   0.073  32.518  0.00  0.00     0.026 A 
ATOM     14  C   UNL d   1      56.184  -0.727  32.609  0.00  0.00     0.002 A 
ATOM     15  C   UNL d   1      55.508  -0.875  33.056  0.00  0.00     0.000 A 
ATOM     16  C   UNL d   1      55.071  -0.274  33.412  0.00  0.00     0.000 A 
ATOM     17  C   UNL d   1      55.324   0.508  33.313  0.00  0.00     0.000 A 
ATOM     18  C   UNL d   1      55.996   0.680  32.871  0.00  0.00     0.002 A 
ENDBRANCH   2  13
TORSDOF 1
ENDMDL
MODEL 4
REMARK VINA RESULT:      -4.7      1.270      2.055
REMARK  1 active torsions:
REMARK  status: ('A' for Active; 'I' for Inactive)
REMARK    1  A    between atoms: C_7  and  C_2 
ROOT
ATOM      1  C   UNL d   1      57.045   0.368  33.470  0.00  0.00     0.257 A 
ATOM      2  C   UNL d   1      56.604   0.217  32.792  0.00  0.00     0.142 A 
ATOM      3  C   UNL d   1      56.662   0.523  34.189  0.00  0.00     0.238 A 
ATOM      4  O   UNL d   1      55.791   0.221  32.833  0.00  0.00    -0.304 OA
ATOM      5  C   UNL d   1      55.823   0.523  34.217  0.00  0.00     0.065 A 
ATOM      6  C   UNL d   1      55.382   0.372  33.539  0.00  0.00     0.103 A 
ATOM      7  O   UNL d   1      57.121   0.676  34.876  0.00  0.00    -0.283 OA
ATOM      8  O   UNL d   1      57.885   0.368  33.443  0.00  0.00    -0.281 OA
ATOM      9  C   UNL d   1      55.437   0.679  34.940  0.00  0.00     0.005 A 
ATOM     10  C   UNL d   1      54.569   0.376  33.580  0.00  0.00     0.025 A 
ATOM     11  C   UNL d   1      54.615   0.682  34.976  0.00  0.00     0.000 A 
ATOM     12  C   UNL d   1      54.183   0.532  34.303  0.00  0.00     0.002 A 
ENDROOT
BRANCH   2  13
ATOM     13  C   UNL d   1      56.972   0.060  32.060  0.00  0.00     0.026 A 
ATOM     14  C   UNL d   1      57.016  -0.740  31.800  0.00  0.00     0.002 A 
ATOM     15  C   UNL d   1      57.380  -0.890  31.077  0.00  0.00     0.000 A 
ATOM     16  C   UNL d   1      57.698  -0.293  30.606  0.00  0.00     0.000 A 
ATOM     17  C   UNL d   1      57.647   0.489  30.875  0.00  0.00     0.000 A 
ATOM     18  C   UNL d   1      57.288   0.663  31.595  0.00  0.00     0.002 A 
ENDBRANCH   2  13
TORSDOF 1
ENDMDL
