MODEL 1
REMARK VINA RESULT:      16.1      0.000      0.000
REMARK  4 active torsions:
REMARK  status: ('A' for Active; 'I' for Inactive)
REMARK       I    between atoms: C_7  and  N_9 
REMARK    1  A    between atoms: C_15  and  C_7 
REMARK    2  A    between atoms: N_9  and  C_12 
REMARK    3  A    between atoms: C_16  and  C_15 
REMARK    4  A    between atoms: C_17  and  C_16 
ROOT
ATOM      1  N   UNL d   1     -59.524 -98.810 -44.084  0.00  0.00    -0.169 NA
ATOM      2  C   UNL d   1     -59.069 -98.806 -44.768  0.00  0.00     0.282 A 
ATOM      3  C   UNL d   1     -59.016 -98.797 -43.441  0.00  0.00     0.282 A 
ATOM      4  C   UNL d   1     -58.272 -98.790 -44.543  0.00  0.00     0.064 A 
ATOM      5  C   UNL d   1     -58.248 -98.785 -43.726  0.00  0.00     0.063 A 
ATOM      6  C   UNL d   1     -57.518 -98.770 -43.341  0.00  0.00     0.006 A 
ATOM      7  C   UNL d   1     -57.578 -98.781 -44.989  0.00  0.00     0.024 A 
ATOM      8  O   UNL d   1     -59.372 -98.816 -45.532  0.00  0.00    -0.265 OA
ATOM      9  O   UNL d   1     -59.233 -98.796 -42.647  0.00  0.00    -0.265 OA
ATOM     10  C   UNL d   1     -56.854 -98.766 -44.606  0.00  0.00     0.085 A 
ATOM     11  C   UNL d   1     -56.819 -98.760 -43.778  0.00  0.00     0.019 A 
ENDROOT
BRANCH  10  12
ATOM     12  N   UNL d   1     -56.160 -98.756 -45.052  0.00  0.00    -0.208 NA
ATOM     13  C   UNL d   1     -55.571 -99.308 -44.904  0.00  0.00     0.279 C 
ATOM     14  O   UNL d   1     -54.882 -99.294 -45.350  0.00  0.00    -0.265 OA
BRANCH  13  15
ATOM     15  C   UNL d   1     -55.665 -99.866 -44.318  0.00  0.00     0.062 C 
BRANCH  15  16
ATOM     16  C   UNL d   1     -55.013-100.311 -44.076  0.00  0.00     0.005 C 
BRANCH  16  17
ATOM     17  C   UNL d   1     -54.901-101.074 -44.376  0.00  0.00     0.000 C 
ATOM     18  C   UNL d   1     -54.716-101.696 -43.866  0.00  0.00     0.000 C 
ENDBRANCH  16  17
ENDBRANCH  15  16
ENDBRANCH  13  15
ENDBRANCH  10  12
TORSDOF 4
ENDMDL
