MODEL 1
REMARK VINA RESULT:      -0.9      0.000      0.000
REMARK  5 active torsions:
REMARK  status: ('A' for Active; 'I' for Inactive)
REMARK    1  A    between atoms: S_10  and  C_1 
REMARK    2  A    between atoms: C_2  and  C_3 
REMARK    3  A    between atoms: C_13  and  C_6 
REMARK       I    between atoms: N_8  and  C_9 
REMARK    4  A    between atoms: C_9  and  C_11 
REMARK    5  A    between atoms: C_11  and  S_10 
ROOT
ATOM      1  C   UNL d   1     -41.573-122.769 -51.821  0.00  0.00     0.194 A 
ATOM      2  C   UNL d   1     -41.442-121.516 -51.132  0.00  0.00     0.156 A 
ATOM      3  N   UNL d   1     -41.416-121.952 -51.832  0.00  0.00    -0.217 NA
ATOM      4  N   UNL d   1     -41.752-123.134 -51.125  0.00  0.00    -0.221 NA
ATOM      5  C   UNL d   1     -41.777-122.690 -50.421  0.00  0.00     0.085 A 
ATOM      6  C   UNL d   1     -41.620-121.881 -50.436  0.00  0.00     0.042 A 
ENDROOT
BRANCH   1   7
ATOM      7  S   UNL d   1     -41.545-123.204 -52.534  0.00  0.00    -0.043 SA
BRANCH   7   8
ATOM      8  C   UNL d   1     -41.948-122.939 -53.206  0.00  0.00     0.099 C 
BRANCH   8   9
ATOM      9  C   UNL d   1     -41.648-123.099 -53.958  0.00  0.00     0.272 C 
ATOM     10  N   UNL d   1     -41.867-122.625 -54.605  0.00  0.00    -0.267 N 
ATOM     11  C   UNL d   1     -42.387-121.991 -54.493  0.00  0.00     0.110 A 
ATOM     12  C   UNL d   1     -41.568-122.787 -55.344  0.00  0.00     0.110 A 
ATOM     13  C   UNL d   1     -42.607-121.522 -55.119  0.00  0.00     0.142 A 
ATOM     14  O   UNL d   1     -42.307-121.681 -55.876  0.00  0.00    -0.300 OA
ATOM     15  C   UNL d   1     -41.787-122.314 -55.988  0.00  0.00     0.142 A 
ATOM     16  O   UNL d   1     -41.123-123.738 -54.071  0.00  0.00    -0.266 OA
ENDBRANCH   8   9
ENDBRANCH   7   8
ENDBRANCH   1   7
BRANCH   2  17
ATOM     17  C   UNL d   1     -41.284-120.712 -51.164  0.00  0.00     0.435 C 
ATOM     18  F   UNL d   1     -41.122-119.893 -51.187  0.00  0.00    -0.165 F 
ATOM     19  F   UNL d   1     -41.267-120.703 -50.325  0.00  0.00    -0.165 F 
ATOM     20  F   UNL d   1     -41.302-120.726 -51.999  0.00  0.00    -0.165 F 
ENDBRANCH   2  17
BRANCH   5  21
ATOM     21  C   UNL d   1     -41.961-123.068 -49.700  0.00  0.00     0.018 A 
ATOM     22  C   UNL d   1     -42.749-123.080 -49.424  0.00  0.00     0.002 A 
ATOM     23  C   UNL d   1     -42.931-123.452 -48.714  0.00  0.00     0.000 A 
ATOM     24  C   UNL d   1     -42.328-123.817 -48.267  0.00  0.00     0.000 A 
ATOM     25  C   UNL d   1     -41.551-123.809 -48.532  0.00  0.00     0.000 A 
ATOM     26  C   UNL d   1     -41.364-123.425 -49.265  0.00  0.00     0.002 A 
ENDBRANCH   5  21
TORSDOF 5
ENDMDL
