MODEL 1
REMARK VINA RESULT:      20.4      0.000      0.000
REMARK  6 active torsions:
REMARK  status: ('A' for Active; 'I' for Inactive)
REMARK    1  A    between atoms: C_7  and  C_1 
REMARK    2  A    between atoms: N_6  and  C_3 
REMARK    3  A    between atoms: N_8  and  N_6 
REMARK    4  A    between atoms: O_12  and  C_7 
REMARK    5  A    between atoms: C_9  and  N_8 
REMARK    6  A    between atoms: C_18  and  O_12 
ROOT
ATOM      1  C   UNL d   1      14.789  12.975  -0.985  0.00  0.00     0.084 A 
ATOM      2  N   UNL d   1      14.308  11.819  -1.306  0.00  0.00    -0.225 NA
ATOM      3  C   UNL d   1      14.084  12.341  -1.896  0.00  0.00     0.184 A 
ATOM      4  C   UNL d   1      14.750  12.221  -0.737  0.00  0.00     0.088 A 
ATOM      5  C   UNL d   1      14.393  13.076  -1.685  0.00  0.00     0.044 A 
ATOM      6  C   UNL d   1      15.102  11.943  -0.037  0.00  0.00     0.021 C 
ATOM      7  C   UNL d   1      14.307  13.777  -2.119  0.00  0.00     0.003 C 
ENDROOT
BRANCH   3   8
ATOM      8  N   UNL d   1      13.653  12.259  -2.578  0.00  0.00    -0.129 NA
BRANCH   8   9
ATOM      9  N   UNL d   1      14.011  12.054  -3.300  0.00  0.00    -0.147 NA
BRANCH   9  10
ATOM     10  C   UNL d   1      13.662  12.218  -4.043  0.00  0.00     0.103 A 
ATOM     11  C   UNL d   1      13.109  12.819  -4.129  0.00  0.00     0.019 A 
ATOM     12  C   UNL d   1      12.872  13.304  -3.438  0.00  0.00     0.002 C 
ATOM     13  C   UNL d   1      12.769  12.980  -4.851  0.00  0.00     0.002 A 
ATOM     14  C   UNL d   1      12.987  12.531  -5.496  0.00  0.00     0.000 A 
ATOM     15  C   UNL d   1      13.524  11.937  -5.445  0.00  0.00     0.002 A 
ATOM     16  C   UNL d   1      13.859  11.784  -4.716  0.00  0.00     0.021 A 
ENDBRANCH   9  10
ENDBRANCH   8   9
ENDBRANCH   3   8
BRANCH   1  17
ATOM     17  C   UNL d   1      15.202  13.576  -0.547  0.00  0.00     0.302 C 
ATOM     18  O   UNL d   1      16.043  13.507  -0.484  0.00  0.00    -0.259 OA
BRANCH  17  19
ATOM     19  O   UNL d   1      14.793  14.193  -0.205  0.00  0.00    -0.271 OA
BRANCH  19  20
ATOM     20  C   UNL d   1      15.096  14.972  -0.285  0.00  0.00     0.126 C 
ATOM     21  C   UNL d   1      15.885  15.130  -0.038  0.00  0.00     0.029 C 
ENDBRANCH  19  20
ENDBRANCH  17  19
ENDBRANCH   1  17
TORSDOF 6
ENDMDL
