MODEL 1
REMARK VINA RESULT:      -3.4      0.000      0.000
REMARK  8 active torsions:
REMARK  status: ('A' for Active; 'I' for Inactive)
REMARK    1  A    between atoms: C_2  and  S_1 
REMARK    2  A    between atoms: N_6  and  S_1 
REMARK    3  A    between atoms: C_3  and  C_14 
REMARK       I    between atoms: N_7  and  C_3 
REMARK    4  A    between atoms: C_17  and  N_6 
REMARK    5  A    between atoms: C_14  and  C_19 
REMARK    6  A    between atoms: C_20  and  C_17 
REMARK    7  A    between atoms: C_19  and  C_21 
REMARK    8  A    between atoms: C_21  and  C_20 
ROOT
ATOM      1  N   UNL d   1      58.503  -0.747  29.300  0.00  0.00    -0.157 NA
ENDROOT
BRANCH   1   2
ATOM      2  S   UNL d   1      59.014  -1.377  29.133  0.00  0.00     0.285 S 
ATOM      3  O   UNL d   1      58.191  -1.485  29.116  0.00  0.00    -0.198 OA
ATOM      4  O   UNL d   1      59.322  -0.633  29.319  0.00  0.00    -0.198 OA
BRANCH   2   5
ATOM      5  C   UNL d   1      59.525  -2.008  28.966  0.00  0.00     0.105 A 
ATOM      6  C   UNL d   1      59.219  -2.762  28.818  0.00  0.00     0.013 A 
ATOM      7  C   UNL d   1      59.722  -3.383  28.654  0.00  0.00     0.001 A 
ATOM      8  C   UNL d   1      60.528  -3.259  28.636  0.00  0.00     0.000 A 
ATOM      9  C   UNL d   1      60.840  -2.512  28.783  0.00  0.00     0.001 A 
ATOM     10  C   UNL d   1      61.036  -3.893  28.469  0.00  0.00     0.000 C 
ATOM     11  C   UNL d   1      60.337  -1.891  28.947  0.00  0.00     0.013 A 
ENDBRANCH   2   5
ENDBRANCH   1   2
BRANCH   1  12
ATOM     12  C   UNL d   1      58.444  -0.454  30.071  0.00  0.00     0.112 C 
BRANCH  12  13
ATOM     13  C   UNL d   1      57.780  -0.013  30.294  0.00  0.00     0.021 C 
BRANCH  13  14
ATOM     14  C   UNL d   1      57.706   0.259  31.076  0.00  0.00     0.002 C 
BRANCH  14  15
ATOM     15  C   UNL d   1      57.008   0.141  31.495  0.00  0.00     0.005 C 
BRANCH  15  16
ATOM     16  C   UNL d   1      57.007   0.120  32.318  0.00  0.00     0.061 C 
BRANCH  16  17
ATOM     17  C   UNL d   1      56.331  -0.123  32.728  0.00  0.00     0.265 C 
ATOM     18  N   UNL d   1      56.189   0.158  33.492  0.00  0.00    -0.269 N 
ATOM     19  C   UNL d   1      55.508  -0.089  33.899  0.00  0.00     0.102 C 
ATOM     20  C   UNL d   1      56.724   0.682  33.844  0.00  0.00     0.102 C 
ATOM     21  O   UNL d   1      55.798  -0.647  32.372  0.00  0.00    -0.267 OA
ENDBRANCH  16  17
ENDBRANCH  15  16
ENDBRANCH  14  15
ENDBRANCH  13  14
ENDBRANCH  12  13
ENDBRANCH   1  12
TORSDOF 8
ENDMDL
MODEL 2
REMARK VINA RESULT:      -2.9      1.211      1.659
REMARK  8 active torsions:
REMARK  status: ('A' for Active; 'I' for Inactive)
REMARK    1  A    between atoms: C_2  and  S_1 
REMARK    2  A    between atoms: N_6  and  S_1 
REMARK    3  A    between atoms: C_3  and  C_14 
REMARK       I    between atoms: N_7  and  C_3 
REMARK    4  A    between atoms: C_17  and  N_6 
REMARK    5  A    between atoms: C_14  and  C_19 
REMARK    6  A    between atoms: C_20  and  C_17 
REMARK    7  A    between atoms: C_19  and  C_21 
REMARK    8  A    between atoms: C_21  and  C_20 
ROOT
ATOM      1  N   UNL d   1      58.103   0.373  30.641  0.00  0.00    -0.157 NA
ENDROOT
BRANCH   1   2
ATOM      2  S   UNL d   1      58.585  -0.138  30.202  0.00  0.00     0.285 S 
ATOM      3  O   UNL d   1      57.765  -0.261  30.243  0.00  0.00    -0.198 OA
ATOM      4  O   UNL d   1      58.919   0.503  30.605  0.00  0.00    -0.198 OA
BRANCH   2   5
ATOM      5  C   UNL d   1      59.067  -0.649  29.762  0.00  0.00     0.105 A 
ATOM      6  C   UNL d   1      58.817  -1.421  29.604  0.00  0.00     0.013 A 
ATOM      7  C   UNL d   1      59.292  -1.924  29.171  0.00  0.00     0.001 A 
ATOM      8  C   UNL d   1      60.013  -1.664  28.895  0.00  0.00     0.000 A 
ATOM      9  C   UNL d   1      60.269  -0.897  29.048  0.00  0.00     0.001 A 
ATOM     10  C   UNL d   1      60.493  -2.178  28.455  0.00  0.00     0.000 C 
ATOM     11  C   UNL d   1      59.794  -0.394  29.481  0.00  0.00     0.013 A 
ENDBRANCH   2   5
ENDBRANCH   1   2
BRANCH   1  12
ATOM     12  C   UNL d   1      57.471   0.071  31.081  0.00  0.00     0.112 C 
BRANCH  12  13
ATOM     13  C   UNL d   1      57.016   0.579  31.551  0.00  0.00     0.021 C 
BRANCH  13  14
ATOM     14  C   UNL d   1      56.964   0.451  32.370  0.00  0.00     0.002 C 
BRANCH  14  15
ATOM     15  C   UNL d   1      56.230   0.385  32.737  0.00  0.00     0.005 C 
BRANCH  15  16
ATOM     16  C   UNL d   1      56.121   0.640  33.512  0.00  0.00     0.061 C 
BRANCH  16  17
ATOM     17  C   UNL d   1      55.364   0.649  33.845  0.00  0.00     0.265 C 
ATOM     18  N   UNL d   1      55.274   0.670  34.665  0.00  0.00    -0.269 N 
ATOM     19  C   UNL d   1      54.510   0.680  34.994  0.00  0.00     0.102 C 
ATOM     20  C   UNL d   1      55.943   0.681  35.153  0.00  0.00     0.102 C 
ATOM     21  O   UNL d   1      54.697   0.638  33.354  0.00  0.00    -0.267 OA
ENDBRANCH  16  17
ENDBRANCH  15  16
ENDBRANCH  14  15
ENDBRANCH  13  14
ENDBRANCH  12  13
ENDBRANCH   1  12
TORSDOF 8
ENDMDL
MODEL 3
REMARK VINA RESULT:      -0.7      1.897      5.866
REMARK  8 active torsions:
REMARK  status: ('A' for Active; 'I' for Inactive)
REMARK    1  A    between atoms: C_2  and  S_1 
REMARK    2  A    between atoms: N_6  and  S_1 
REMARK    3  A    between atoms: C_3  and  C_14 
REMARK       I    between atoms: N_7  and  C_3 
REMARK    4  A    between atoms: C_17  and  N_6 
REMARK    5  A    between atoms: C_14  and  C_19 
REMARK    6  A    between atoms: C_20  and  C_17 
REMARK    7  A    between atoms: C_19  and  C_21 
REMARK    8  A    between atoms: C_21  and  C_20 
ROOT
ATOM      1  N   UNL d   1      57.102  -0.576  32.211  0.00  0.00    -0.157 NA
ENDROOT
BRANCH   1   2
ATOM      2  S   UNL d   1      56.540  -0.323  32.765  0.00  0.00     0.285 S 
ATOM      3  O   UNL d   1      56.980   0.229  32.326  0.00  0.00    -0.198 OA
ATOM      4  O   UNL d   1      56.668  -1.131  32.645  0.00  0.00    -0.198 OA
BRANCH   2   5
ATOM      5  C   UNL d   1      55.978  -0.069  33.318  0.00  0.00     0.105 A 
ATOM      6  C   UNL d   1      55.176  -0.228  33.198  0.00  0.00     0.013 A 
ATOM      7  C   UNL d   1      54.622   0.022  33.743  0.00  0.00     0.001 A 
ATOM      8  C   UNL d   1      54.862   0.430  34.407  0.00  0.00     0.000 A 
ATOM      9  C   UNL d   1      55.659   0.592  34.534  0.00  0.00     0.001 A 
ATOM     10  C   UNL d   1      54.297   0.682  34.959  0.00  0.00     0.000 C 
ATOM     11  C   UNL d   1      56.212   0.342  33.989  0.00  0.00     0.013 A 
ENDBRANCH   2   5
ENDBRANCH   1   2
BRANCH   1  12
ATOM     12  C   UNL d   1      57.160  -0.200  31.477  0.00  0.00     0.112 C 
BRANCH  12  13
ATOM     13  C   UNL d   1      57.542  -0.580  30.849  0.00  0.00     0.021 C 
BRANCH  13  14
ATOM     14  C   UNL d   1      57.971  -0.135  30.293  0.00  0.00     0.002 C 
BRANCH  14  15
ATOM     15  C   UNL d   1      58.453  -0.509  29.741  0.00  0.00     0.005 C 
BRANCH  15  16
ATOM     16  C   UNL d   1      59.073  -0.105  29.379  0.00  0.00     0.061 C 
BRANCH  16  17
ATOM     17  C   UNL d   1      59.694  -0.523  29.028  0.00  0.00     0.265 C 
ATOM     18  N   UNL d   1      60.390  -0.130  28.821  0.00  0.00    -0.269 N 
ATOM     19  C   UNL d   1      61.012  -0.555  28.468  0.00  0.00     0.102 C 
ATOM     20  C   UNL d   1      60.464   0.682  28.966  0.00  0.00     0.102 C 
ATOM     21  O   UNL d   1      59.616  -1.335  28.885  0.00  0.00    -0.267 OA
ENDBRANCH  16  17
ENDBRANCH  15  16
ENDBRANCH  14  15
ENDBRANCH  13  14
ENDBRANCH  12  13
ENDBRANCH   1  12
TORSDOF 8
ENDMDL
