MODEL 1
REMARK VINA RESULT:      11.7      0.000      0.000
REMARK  2 active torsions:
REMARK  status: ('A' for Active; 'I' for Inactive)
REMARK    1  A    between atoms: CA_3  and  C_1 
REMARK    2  A    between atoms: C_2  and  CA_3 
ROOT
ATOM      1  C   UNL d   1     -54.769-101.737 -37.468  0.00  0.00     0.026 A 
ATOM      2  C   UNL d   1     -54.818-102.373 -37.994  0.00  0.00     0.009 A 
ATOM      3  C   UNL d   1     -54.814-102.239 -38.806  0.00  0.00     0.035 A 
ATOM      4 BR   UNL d   1     -54.863-102.873 -39.327  0.00  0.00    -0.049 Br
ATOM      5  C   UNL d   1     -54.716-100.967 -37.758  0.00  0.00     0.002 A 
ATOM      6  C   UNL d   1     -54.712-100.833 -38.575  0.00  0.00     0.001 A 
ATOM      7  C   UNL d   1     -54.761-101.468 -39.097  0.00  0.00     0.007 A 
ENDROOT
BRANCH   1   8
ATOM      8  CA  UNL d   1     -54.773-101.877 -36.655  0.00  0.00     0.167 C 
ATOM      9  N   UNL d   1     -54.738-102.645 -36.370  0.00  0.00    -0.142 N 
BRANCH   8  10
ATOM     10  C   UNL d   1     -54.813-101.245 -36.127  0.00  0.00     0.231 C 
ATOM     11  O   UNL d   1     -54.719-100.466 -36.402  0.00  0.00    -0.643 OA
ATOM     12  OXT UNL d   1     -54.948-101.381 -35.322  0.00  0.00    -0.643 OA
ENDBRANCH   8  10
ENDBRANCH   1   8
TORSDOF 2
ENDMDL
MODEL 2
REMARK VINA RESULT:      14.6      7.830      8.350
REMARK  2 active torsions:
REMARK  status: ('A' for Active; 'I' for Inactive)
REMARK    1  A    between atoms: CA_3  and  C_1 
REMARK    2  A    between atoms: C_2  and  CA_3 
ROOT
ATOM      1  C   UNL d   1     -57.487 -98.902 -44.665  0.00  0.00     0.026 A 
ATOM      2  C   UNL d   1     -58.094 -98.874 -45.226  0.00  0.00     0.009 A 
ATOM      3  C   UNL d   1     -58.877 -98.801 -44.984  0.00  0.00     0.035 A 
ATOM      4 BR   UNL d   1     -59.479 -98.774 -45.544  0.00  0.00    -0.049 Br
ATOM      5  C   UNL d   1     -57.668 -98.857 -43.861  0.00  0.00     0.002 A 
ATOM      6  C   UNL d   1     -58.455 -98.783 -43.619  0.00  0.00     0.001 A 
ATOM      7  C   UNL d   1     -59.058 -98.756 -44.180  0.00  0.00     0.007 A 
ENDROOT
BRANCH   1   8
ATOM      8  CA  UNL d   1     -56.703 -98.976 -44.913  0.00  0.00     0.167 C 
ATOM      9  N   UNL d   1     -56.491 -98.756 -45.674  0.00  0.00    -0.142 N 
BRANCH   8  10
ATOM     10  C   UNL d   1     -56.133 -99.270 -44.396  0.00  0.00     0.231 C 
ATOM     11  O   UNL d   1     -55.926-100.074 -44.419  0.00  0.00    -0.643 OA
ATOM     12  OXT UNL d   1     -55.763 -98.767 -43.852  0.00  0.00    -0.643 OA
ENDBRANCH   8  10
ENDBRANCH   1   8
TORSDOF 2
ENDMDL
