MODEL 1
REMARK VINA RESULT:       2.8      0.000      0.000
REMARK  10 active torsions:
REMARK  status: ('A' for Active; 'I' for Inactive)
REMARK    1  A    between atoms: C_15  and  C_3 
REMARK       I    between atoms: C_8  and  N_7 
REMARK    2  A    between atoms: O_29  and  C_8 
REMARK       I    between atoms: N_9  and  C_11 
REMARK    3  A    between atoms: S_17  and  C_10 
REMARK    4  A    between atoms: C_11  and  C_23 
REMARK       I    between atoms: C_13  and  N_26 
REMARK    5  A    between atoms: C_16  and  C_13 
REMARK    6  A    between atoms: C_30  and  C_15 
REMARK    7  A    between atoms: C_23  and  S_17 
REMARK    8  A    between atoms: N_26  and  C_30 
REMARK    9  A    between atoms: C_35  and  O_29 
REMARK   10  A    between atoms: O_34  and  C_31 
ROOT
ATOM      1  N   UNL d   1      59.590  -0.585  29.528  0.00  0.00    -0.191 N 
ATOM      2  C   UNL d   1      60.297  -0.155  29.612  0.00  0.00     0.187 A 
ATOM      3  C   UNL d   1      59.714  -1.177  28.964  0.00  0.00     0.188 A 
ATOM      4  N   UNL d   1      58.927  -0.379  29.976  0.00  0.00    -0.156 NA
ATOM      5  N   UNL d   1      60.851  -0.489  29.097  0.00  0.00    -0.127 NA
ATOM      6  N   UNL d   1      60.497  -1.116  28.698  0.00  0.00    -0.127 NA
ATOM      7  C   UNL d   1      58.971   0.256  30.509  0.00  0.00     0.131 A 
ATOM      8  C   UNL d   1      60.330   0.470  30.141  0.00  0.00     0.043 A 
ATOM      9  C   UNL d   1      59.671   0.680  30.591  0.00  0.00     0.031 A 
ENDROOT
BRANCH   7  10
ATOM     10  S   UNL d   1      58.301   0.459  30.958  0.00  0.00    -0.061 SA
BRANCH  10  11
ATOM     11  C   UNL d   1      58.073  -0.020  31.599  0.00  0.00     0.098 C 
BRANCH  11  12
ATOM     12  C   UNL d   1      57.972   0.325  32.350  0.00  0.00     0.272 C 
ATOM     13  N   UNL d   1      57.232   0.302  32.701  0.00  0.00    -0.269 N 
ATOM     14  C   UNL d   1      56.612  -0.057  32.308  0.00  0.00     0.102 A 
ATOM     15  C   UNL d   1      57.116   0.637  33.441  0.00  0.00     0.102 A 
ATOM     16  C   UNL d   1      55.863  -0.076  32.672  0.00  0.00     0.104 A 
ATOM     17  N   UNL d   1      55.760   0.267  33.419  0.00  0.00    -0.249 N 
ATOM     18  C   UNL d   1      56.386   0.620  33.797  0.00  0.00     0.104 A 
ATOM     19  C   UNL d   1      55.009   0.243  33.773  0.00  0.00     0.378 C 
ATOM     20  O   UNL d   1      54.906   0.586  34.521  0.00  0.00    -0.237 OA
ATOM     21  O   UNL d   1      58.606   0.682  32.733  0.00  0.00    -0.266 OA
BRANCH  19  22
ATOM     22  O   UNL d   1      54.386  -0.115  33.384  0.00  0.00    -0.257 OA
BRANCH  22  23
ATOM     23  C   UNL d   1      53.697  -0.277  33.801  0.00  0.00     0.128 C 
ATOM     24  C   UNL d   1      53.184   0.336  33.997  0.00  0.00     0.029 C 
ENDBRANCH  22  23
ENDBRANCH  19  22
ENDBRANCH  11  12
ENDBRANCH  10  11
ENDBRANCH   7  10
BRANCH   3  25
ATOM     25  C   UNL d   1      59.150  -1.729  28.715  0.00  0.00     0.061 C 
BRANCH  25  26
ATOM     26  C   UNL d   1      59.375  -2.509  28.547  0.00  0.00     0.105 C 
BRANCH  26  27
ATOM     27  N   UNL d   1      58.801  -3.101  28.519  0.00  0.00    -0.206 NA
ATOM     28  C   UNL d   1      59.029  -3.900  28.568  0.00  0.00     0.279 C 
ATOM     29  O   UNL d   1      59.835  -4.090  28.644  0.00  0.00    -0.265 OA
BRANCH  28  30
ATOM     30  C   UNL d   1      58.459  -4.492  28.541  0.00  0.00     0.058 A 
ATOM     31  C   UNL d   1      57.660  -4.289  28.573  0.00  0.00     0.007 A 
ATOM     32  C   UNL d   1      57.084  -4.877  28.546  0.00  0.00     0.024 A 
ATOM     33  C   UNL d   1      57.312  -5.671  28.487  0.00  0.00     0.094 A 
ATOM     34  C   UNL d   1      58.111  -5.874  28.456  0.00  0.00     0.024 A 
ATOM     35  C   UNL d   1      58.686  -5.277  28.483  0.00  0.00     0.007 A 
BRANCH  33  36
ATOM     36  O   UNL d   1      56.740  -6.259  28.461  0.00  0.00    -0.328 OA
ATOM     37  C   UNL d   1      56.954  -7.047  28.521  0.00  0.00     0.181 C 
ENDBRANCH  33  36
ENDBRANCH  28  30
ENDBRANCH  26  27
ENDBRANCH  25  26
ENDBRANCH   3  25
TORSDOF 10
ENDMDL
