MODEL 1
REMARK VINA RESULT:      -8.8      0.000      0.000
REMARK  6 active torsions:
REMARK  status: ('A' for Active; 'I' for Inactive)
REMARK    1  A    between atoms: C_4  and  N_1 
REMARK    2  A    between atoms: C_3  and  C_2 
REMARK    3  A    between atoms: S_6  and  C_11 
REMARK    4  A    between atoms: C_7  and  S_6 
REMARK    5  A    between atoms: C_8  and  C_10 
REMARK    6  A    between atoms: C_11  and  C_8 
ROOT
ATOM      1  C   UNL d   1      51.916  33.922  52.833  0.00  0.00     0.202 C 
ATOM      2  O   UNL d   1      52.475  34.507  53.026  0.00  0.00    -0.286 OA
ENDROOT
BRANCH   1   3
ATOM      3  C   UNL d   1      51.165  34.144  52.566  0.00  0.00     0.040 A 
ATOM      4  C   UNL d   1      50.572  34.331  53.109  0.00  0.00     0.005 A 
ATOM      5  C   UNL d   1      49.834  34.549  52.820  0.00  0.00     0.024 A 
ATOM      6  C   UNL d   1      49.678  34.584  52.005  0.00  0.00     0.127 A 
ATOM      7  C   UNL d   1      50.276  34.395  51.472  0.00  0.00     0.024 A 
ATOM      8  C   UNL d   1      51.012  34.178  51.765  0.00  0.00     0.005 A 
BRANCH   6   9
ATOM      9  N   UNL d   1      48.920  34.807  51.706  0.00  0.00    -0.114 N 
ATOM     10  O   UNL d   1      48.441  35.293  52.168  0.00  0.00    -0.532 OA
ATOM     11  O   UNL d   1      48.678  34.530  50.953  0.00  0.00    -0.532 OA
ENDBRANCH   6   9
ENDBRANCH   1   3
BRANCH   1  12
ATOM     12  C   UNL d   1      52.105  33.133  52.907  0.00  0.00     0.077 C 
BRANCH  12  13
ATOM     13  S   UNL d   1      52.813  32.898  53.277  0.00  0.00    -0.083 SA
BRANCH  13  14
ATOM     14  C   UNL d   1      53.028  32.078  53.320  0.00  0.00     0.035 A 
ATOM     15  C   UNL d   1      53.683  31.865  53.769  0.00  0.00     0.070 A 
ATOM     16  C   UNL d   1      53.895  31.056  53.811  0.00  0.00     0.007 A 
ATOM     17  C   UNL d   1      53.446  30.481  53.404  0.00  0.00     0.000 A 
ATOM     18  C   UNL d   1      52.799  30.717  52.965  0.00  0.00     0.001 A 
ATOM     19  C   UNL d   1      52.590  31.515  52.923  0.00  0.00     0.007 A 
BRANCH  15  20
ATOM     20  C   UNL d   1      54.143  32.446  54.184  0.00  0.00     0.211 C 
ATOM     21  O   UNL d   1      54.786  32.810  53.801  0.00  0.00    -0.644 OA
ATOM     22  O   UNL d   1      53.960  32.654  54.963  0.00  0.00    -0.644 OA
ENDBRANCH  15  20
ENDBRANCH  13  14
ENDBRANCH  12  13
ENDBRANCH   1  12
TORSDOF 6
ENDMDL
MODEL 2
REMARK VINA RESULT:      -8.7      2.507      4.949
REMARK  6 active torsions:
REMARK  status: ('A' for Active; 'I' for Inactive)
REMARK    1  A    between atoms: C_4  and  N_1 
REMARK    2  A    between atoms: C_3  and  C_2 
REMARK    3  A    between atoms: S_6  and  C_11 
REMARK    4  A    between atoms: C_7  and  S_6 
REMARK    5  A    between atoms: C_8  and  C_10 
REMARK    6  A    between atoms: C_11  and  C_8 
ROOT
ATOM      1  C   UNL d   1      52.883  31.512  52.930  0.00  0.00     0.202 C 
ATOM      2  O   UNL d   1      52.736  31.483  52.112  0.00  0.00    -0.286 OA
ENDROOT
BRANCH   1   3
ATOM      3  C   UNL d   1      52.988  30.809  53.353  0.00  0.00     0.040 A 
ATOM      4  C   UNL d   1      52.437  30.198  53.282  0.00  0.00     0.005 A 
ATOM      5  C   UNL d   1      52.562  29.509  53.712  0.00  0.00     0.024 A 
ATOM      6  C   UNL d   1      53.222  29.419  54.208  0.00  0.00     0.127 A 
ATOM      7  C   UNL d   1      53.765  30.034  54.272  0.00  0.00     0.024 A 
ATOM      8  C   UNL d   1      53.636  30.720  53.841  0.00  0.00     0.005 A 
BRANCH   6   9
ATOM      9  N   UNL d   1      53.352  28.711  54.651  0.00  0.00    -0.114 N 
ATOM     10  O   UNL d   1      53.656  28.051  54.262  0.00  0.00    -0.532 OA
ATOM     11  O   UNL d   1      53.170  28.700  55.470  0.00  0.00    -0.532 OA
ENDBRANCH   6   9
ENDBRANCH   1   3
BRANCH   1  12
ATOM     12  C   UNL d   1      52.923  32.229  53.315  0.00  0.00     0.077 C 
BRANCH  12  13
ATOM     13  S   UNL d   1      52.493  32.887  53.037  0.00  0.00    -0.083 SA
BRANCH  13  14
ATOM     14  C   UNL d   1      52.612  33.655  53.374  0.00  0.00     0.035 A 
ATOM     15  C   UNL d   1      52.062  34.245  53.216  0.00  0.00     0.070 A 
ATOM     16  C   UNL d   1      52.179  35.004  53.549  0.00  0.00     0.007 A 
ATOM     17  C   UNL d   1      52.844  35.154  54.031  0.00  0.00     0.000 A 
ATOM     18  C   UNL d   1      53.378  34.553  54.174  0.00  0.00     0.001 A 
ATOM     19  C   UNL d   1      53.262  33.804  53.845  0.00  0.00     0.007 A 
BRANCH  15  20
ATOM     20  C   UNL d   1      51.384  34.098  52.726  0.00  0.00     0.211 C 
ATOM     21  O   UNL d   1      51.429  34.249  51.908  0.00  0.00    -0.644 OA
ATOM     22  O   UNL d   1      50.681  33.806  53.050  0.00  0.00    -0.644 OA
ENDBRANCH  15  20
ENDBRANCH  13  14
ENDBRANCH  12  13
ENDBRANCH   1  12
TORSDOF 6
ENDMDL
