MODEL 1
REMARK VINA RESULT:      62.0      0.000      0.000
REMARK  4 active torsions:
REMARK  status: ('A' for Active; 'I' for Inactive)
REMARK    1  A    between atoms: C_3  and  C_14 
REMARK    2  A    between atoms: C_21  and  C_4 
REMARK    3  A    between atoms: S_15  and  C_5 
REMARK    4  A    between atoms: C_14  and  S_15 
ROOT
ATOM      1  C   UNL d   1      44.276 -16.287  36.886  0.00  0.00     0.092 A 
ATOM      2  C   UNL d   1      45.324 -15.341  37.069  0.00  0.00     0.057 A 
ATOM      3  C   UNL d   1      45.061 -16.120  37.073  0.00  0.00     0.016 A 
ATOM      4  C   UNL d   1      43.758 -15.673  36.696  0.00  0.00     0.120 A 
ATOM      5  N   UNL d   1      44.013 -14.899  36.691  0.00  0.00    -0.239 NA
ATOM      6  C   UNL d   1      44.805 -14.728  36.879  0.00  0.00     0.081 A 
ATOM      7  C   UNL d   1      46.112 -15.172  37.256  0.00  0.00     0.193 A 
ATOM      8  C   UNL d   1      44.011 -17.068  36.890  0.00  0.00     0.103 C 
ATOM      9  N   UNL d   1      43.745 -17.849  36.893  0.00  0.00    -0.191 NA
ATOM     10  C   UNL d   1      45.855 -13.770  37.061  0.00  0.00     0.042 A 
ATOM     11  C   UNL d   1      46.386 -14.387  37.254  0.00  0.00     0.019 A 
ATOM     12  C   UNL d   1      45.065 -13.937  36.873  0.00  0.00    -0.003 A 
ATOM     13  O   UNL d   1      46.632 -15.787  37.446  0.00  0.00    -0.287 OA
ATOM     14  C   UNL d   1      45.521 -13.036  36.907  0.00  0.00     0.009 C 
ATOM     15  C   UNL d   1      46.644 -13.610  37.249  0.00  0.00     0.009 C 
ENDROOT
BRANCH   3  16
ATOM     16  C   UNL d   1      45.581 -16.734  37.263  0.00  0.00     0.001 C 
ATOM     17  C   UNL d   1      45.782 -16.859  38.047  0.00  0.00     0.000 C 
ENDBRANCH   3  16
BRANCH   4  18
ATOM     18  S   UNL d   1      42.972 -15.846  36.510  0.00  0.00    -0.067 SA
BRANCH  18  19
ATOM     19  C   UNL d   1      42.451 -15.232  36.330  0.00  0.00     0.041 C 
BRANCH  19  20
ATOM     20  C   UNL d   1      41.640 -15.330  36.442  0.00  0.00     0.051 A 
ATOM     21  C   UNL d   1      41.230 -15.952  36.420  0.00  0.00     0.127 A 
ATOM     22  O   UNL d   1      40.440 -15.874  36.553  0.00  0.00    -0.211 OA
ATOM     23  C   UNL d   1      41.140 -16.692  36.333  0.00  0.00     0.029 C 
ATOM     24  N   UNL d   1      40.367 -15.071  36.675  0.00  0.00    -0.126 NA
ATOM     25  C   UNL d   1      41.105 -14.731  36.607  0.00  0.00     0.111 A 
ATOM     26  C   UNL d   1      41.283 -13.935  36.689  0.00  0.00     0.023 C 
ENDBRANCH  19  20
ENDBRANCH  18  19
ENDBRANCH   4  18
TORSDOF 4
ENDMDL
MODEL 2
REMARK VINA RESULT:      62.7      4.874      6.526
REMARK  4 active torsions:
REMARK  status: ('A' for Active; 'I' for Inactive)
REMARK    1  A    between atoms: C_3  and  C_14 
REMARK    2  A    between atoms: C_21  and  C_4 
REMARK    3  A    between atoms: S_15  and  C_5 
REMARK    4  A    between atoms: C_14  and  S_15 
ROOT
ATOM      1  C   UNL d   1      46.463 -19.068  41.646  0.00  0.00     0.092 A 
ATOM      2  C   UNL d   1      46.363 -18.678  43.012  0.00  0.00     0.057 A 
ATOM      3  C   UNL d   1      46.454 -19.267  42.446  0.00  0.00     0.016 A 
ATOM      4  C   UNL d   1      46.381 -18.279  41.417  0.00  0.00     0.120 A 
ATOM      5  N   UNL d   1      46.290 -17.691  41.974  0.00  0.00    -0.239 NA
ATOM      6  C   UNL d   1      46.281 -17.889  42.781  0.00  0.00     0.081 A 
ATOM      7  C   UNL d   1      46.354 -18.876  43.815  0.00  0.00     0.193 A 
ATOM      8  C   UNL d   1      46.554 -19.658  41.078  0.00  0.00     0.103 C 
ATOM      9  N   UNL d   1      46.645 -20.248  40.508  0.00  0.00    -0.191 NA
ATOM     10  C   UNL d   1      46.180 -17.489  44.153  0.00  0.00     0.042 A 
ATOM     11  C   UNL d   1      46.263 -18.286  44.393  0.00  0.00     0.019 A 
ATOM     12  C   UNL d   1      46.188 -17.287  43.349  0.00  0.00    -0.003 A 
ATOM     13  O   UNL d   1      46.437 -19.666  44.045  0.00  0.00    -0.287 OA
ATOM     14  C   UNL d   1      46.086 -16.673  44.145  0.00  0.00     0.009 C 
ATOM     15  C   UNL d   1      46.172 -17.696  44.954  0.00  0.00     0.009 C 
ENDROOT
BRANCH   3  16
ATOM     16  C   UNL d   1      46.537 -20.056  42.677  0.00  0.00     0.001 C 
ATOM     17  C   UNL d   1      46.122 -20.328  43.329  0.00  0.00     0.000 C 
ENDBRANCH   3  16
BRANCH   4  18
ATOM     18  S   UNL d   1      46.390 -18.085  40.614  0.00  0.00    -0.067 SA
BRANCH  18  19
ATOM     19  C   UNL d   1      46.018 -17.395  40.357  0.00  0.00     0.041 C 
BRANCH  19  20
ATOM     20  C   UNL d   1      45.601 -17.389  39.646  0.00  0.00     0.051 A 
ATOM     21  C   UNL d   1      44.901 -17.603  39.504  0.00  0.00     0.127 A 
ATOM     22  O   UNL d   1      44.643 -17.532  38.745  0.00  0.00    -0.211 OA
ATOM     23  C   UNL d   1      44.233 -17.879  39.703  0.00  0.00     0.029 C 
ATOM     24  N   UNL d   1      45.299 -17.223  38.372  0.00  0.00    -0.126 NA
ATOM     25  C   UNL d   1      45.893 -17.133  38.923  0.00  0.00     0.111 A 
ATOM     26  C   UNL d   1      46.646 -16.841  38.785  0.00  0.00     0.023 C 
ENDBRANCH  19  20
ENDBRANCH  18  19
ENDBRANCH   4  18
TORSDOF 4
ENDMDL
