MODEL 1
REMARK VINA RESULT:       5.2      0.000      0.000
REMARK  10 active torsions:
REMARK  status: ('A' for Active; 'I' for Inactive)
REMARK    1  A    between atoms: C_4  and  N_1 
REMARK    2  A    between atoms: C_10  and  C_2 
REMARK    3  A    between atoms: N_16  and  C_4 
REMARK    4  A    between atoms: O_22  and  C_8 
REMARK    5  A    between atoms: O_15  and  C_10 
REMARK    6  A    between atoms: O_23  and  C_11 
REMARK    7  A    between atoms: C_14  and  O_15 
REMARK    8  A    between atoms: C_25  and  N_16 
REMARK    9  A    between atoms: O_24  and  C_28 
REMARK   10  A    between atoms: C_28  and  C_25 
ROOT
ATOM      1  N   UNL d   1      60.473  -0.758  29.403  0.00  0.00    -0.280 N 
ATOM      2  C   UNL d   1      59.719  -1.094  29.387  0.00  0.00     0.091 A 
ATOM      3  C   UNL d   1      59.630  -1.877  29.175  0.00  0.00     0.020 A 
ATOM      4  C   UNL d   1      60.288  -2.333  28.978  0.00  0.00     0.005 A 
ATOM      5  C   UNL d   1      58.879  -2.210  29.160  0.00  0.00     0.028 A 
ATOM      6  C   UNL d   1      61.131  -1.213  29.206  0.00  0.00     0.082 A 
ATOM      7  C   UNL d   1      58.784  -3.001  28.946  0.00  0.00     0.116 A 
ATOM      8  C   UNL d   1      60.196  -3.121  28.765  0.00  0.00     0.026 A 
ATOM      9  C   UNL d   1      59.441  -3.456  28.749  0.00  0.00     0.116 A 
ATOM     10  C   UNL d   1      61.036  -2.005  28.992  0.00  0.00     0.019 A 
ENDROOT
BRANCH   2  11
ATOM     11  C   UNL d   1      59.061  -0.638  29.584  0.00  0.00     0.140 C 
BRANCH  11  12
ATOM     12  O   UNL d   1      58.584  -0.857  30.222  0.00  0.00    -0.304 OA
BRANCH  12  13
ATOM     13  C   UNL d   1      57.925  -0.402  30.418  0.00  0.00     0.100 A 
ATOM     14  C   UNL d   1      57.447  -0.091  29.823  0.00  0.00     0.025 A 
ATOM     15  C   UNL d   1      56.787   0.364  30.020  0.00  0.00     0.002 A 
ATOM     16  C   UNL d   1      56.301   0.680  29.426  0.00  0.00     0.000 C 
ATOM     17  C   UNL d   1      56.607   0.508  30.811  0.00  0.00     0.000 A 
ATOM     18  C   UNL d   1      57.085   0.197  31.407  0.00  0.00     0.002 A 
ATOM     19  C   UNL d   1      57.745  -0.258  31.211  0.00  0.00     0.025 A 
ATOM     20  C   UNL d   1      56.894   0.348  32.203  0.00  0.00     0.000 C 
ENDBRANCH  12  13
ENDBRANCH  11  12
ENDBRANCH   2  11
BRANCH   1  21
ATOM     21  C   UNL d   1      60.573   0.040  29.618  0.00  0.00     0.206 C 
ATOM     22  S   UNL d   1      60.111   0.628  29.249  0.00  0.00    -0.038 SA
BRANCH  21  23
ATOM     23  N   UNL d   1      61.122   0.244  30.188  0.00  0.00    -0.215 NA
BRANCH  23  24
ATOM     24  C   UNL d   1      60.893   0.682  30.847  0.00  0.00     0.128 C 
BRANCH  24  25
ATOM     25  C   UNL d   1      61.133   0.449  31.601  0.00  0.00     0.137 C 
BRANCH  25  26
ATOM     26  O   UNL d   1      60.656   0.596  32.245  0.00  0.00    -0.325 OA
ATOM     27  C   UNL d   1      60.982   0.650  32.996  0.00  0.00     0.182 C 
ENDBRANCH  25  26
ENDBRANCH  24  25
ENDBRANCH  23  24
ENDBRANCH  21  23
ENDBRANCH   1  21
BRANCH   7  28
ATOM     28  O   UNL d   1      58.028  -3.340  28.930  0.00  0.00    -0.326 OA
ATOM     29  C   UNL d   1      57.355  -2.869  28.792  0.00  0.00     0.181 C 
ENDBRANCH   7  28
BRANCH   9  30
ATOM     30  O   UNL d   1      59.344  -4.251  28.535  0.00  0.00    -0.326 OA
ATOM     31  C   UNL d   1      59.882  -4.829  28.802  0.00  0.00     0.181 C 
ENDBRANCH   9  30
TORSDOF 10
ENDMDL
