MODEL 1
REMARK VINA RESULT:      -4.6      0.000      0.000
REMARK  3 active torsions:
REMARK  status: ('A' for Active; 'I' for Inactive)
REMARK    1  A    between atoms: C_7  and  C_3 
REMARK       I    between atoms: N_10  and  C_7 
REMARK    2  A    between atoms: C_19  and  C_9 
REMARK    3  A    between atoms: C_12  and  N_10 
ROOT
ATOM      1  C   UNL d   1      58.258  -0.096  30.158  0.00  0.00     0.059 A 
ATOM      2  C   UNL d   1      58.188  -0.881  29.915  0.00  0.00     0.013 A 
ATOM      3  C   UNL d   1      57.261  -0.314  31.152  0.00  0.00     0.088 A 
ATOM      4  S   UNL d   1      57.797   0.188  30.775  0.00  0.00    -0.075 SA
ATOM      5  S   UNL d   1      58.794   0.410  29.783  0.00  0.00    -0.080 SA
ATOM      6  C   UNL d   1      57.190  -1.099  30.909  0.00  0.00     0.012 A 
ATOM      7  C   UNL d   1      59.182  -0.664  28.925  0.00  0.00     0.007 A 
ATOM      8  C   UNL d   1      59.252   0.122  29.168  0.00  0.00     0.030 A 
ENDROOT
BRANCH   3   9
ATOM      9  C   UNL d   1      56.799  -0.030  31.769  0.00  0.00     0.285 C 
ATOM     10  N   UNL d   1      56.763  -0.446  32.485  0.00  0.00    -0.208 NA
ATOM     11  O   UNL d   1      56.376   0.662  31.680  0.00  0.00    -0.265 OA
BRANCH  10  12
ATOM     12  C   UNL d   1      56.300  -0.162  33.106  0.00  0.00     0.085 A 
ATOM     13  C   UNL d   1      55.521  -0.398  33.165  0.00  0.00     0.021 A 
ATOM     14  C   UNL d   1      55.050  -0.122  33.779  0.00  0.00     0.031 A 
ATOM     15  C   UNL d   1      55.372   0.397  34.337  0.00  0.00     0.140 A 
ATOM     16  C   UNL d   1      56.161   0.630  34.270  0.00  0.00     0.031 A 
ATOM     17  F   UNL d   1      54.909   0.682  34.958  0.00  0.00    -0.204 F 
ATOM     18  C   UNL d   1      56.627   0.350  33.652  0.00  0.00     0.021 A 
ENDBRANCH  10  12
ENDBRANCH   3   9
BRANCH   8  19
ATOM     19  C   UNL d   1      59.790   0.616  28.786  0.00  0.00     0.006 C 
ATOM     20  C   UNL d   1      60.539   0.343  28.586  0.00  0.00     0.001 C 
ENDBRANCH   8  19
TORSDOF 3
ENDMDL
MODEL 2
REMARK VINA RESULT:      -2.0      9.845     10.096
REMARK  3 active torsions:
REMARK  status: ('A' for Active; 'I' for Inactive)
REMARK    1  A    between atoms: C_7  and  C_3 
REMARK       I    between atoms: N_10  and  C_7 
REMARK    2  A    between atoms: C_19  and  C_9 
REMARK    3  A    between atoms: C_12  and  N_10 
ROOT
ATOM      1  C   UNL d   1      57.706  -9.688  31.137  0.00  0.00     0.059 A 
ATOM      2  C   UNL d   1      56.938  -9.815  31.409  0.00  0.00     0.013 A 
ATOM      3  C   UNL d   1      58.182  -9.686  32.480  0.00  0.00     0.088 A 
ATOM      4  S   UNL d   1      58.328  -9.623  31.670  0.00  0.00    -0.075 SA
ATOM      5  S   UNL d   1      57.857  -9.624  30.326  0.00  0.00    -0.080 SA
ATOM      6  C   UNL d   1      57.413  -9.813  32.752  0.00  0.00     0.012 A 
ATOM      7  C   UNL d   1      56.465  -9.817  30.070  0.00  0.00     0.007 A 
ATOM      8  C   UNL d   1      57.233  -9.690  29.798  0.00  0.00     0.030 A 
ENDROOT
BRANCH   3   9
ATOM      9  C   UNL d   1      58.803  -9.621  33.013  0.00  0.00     0.285 C 
ATOM     10  N   UNL d   1      58.653  -9.406  33.800  0.00  0.00    -0.208 NA
ATOM     11  O   UNL d   1      59.568  -9.768  32.771  0.00  0.00    -0.265 OA
BRANCH  10  12
ATOM     12  C   UNL d   1      59.276  -9.341  34.337  0.00  0.00     0.085 A 
ATOM     13  C   UNL d   1      59.245  -9.755  35.039  0.00  0.00     0.021 A 
ATOM     14  C   UNL d   1      59.859  -9.698  35.582  0.00  0.00     0.031 A 
ATOM     15  C   UNL d   1      60.510  -9.216  35.410  0.00  0.00     0.140 A 
ATOM     16  C   UNL d   1      60.533  -8.801  34.698  0.00  0.00     0.031 A 
ATOM     17  F   UNL d   1      61.133  -9.150  35.947  0.00  0.00    -0.204 F 
ATOM     18  C   UNL d   1      59.914  -8.862  34.158  0.00  0.00     0.021 A 
ENDBRANCH  10  12
ENDBRANCH   3   9
BRANCH   8  19
ATOM     19  C   UNL d   1      57.370  -9.628  28.988  0.00  0.00     0.006 C 
ATOM     20  C   UNL d   1      56.801  -9.301  28.492  0.00  0.00     0.001 C 
ENDBRANCH   8  19
TORSDOF 3
ENDMDL
MODEL 3
REMARK VINA RESULT:      -1.9      0.785      1.345
REMARK  3 active torsions:
REMARK  status: ('A' for Active; 'I' for Inactive)
REMARK    1  A    between atoms: C_7  and  C_3 
REMARK       I    between atoms: N_10  and  C_7 
REMARK    2  A    between atoms: C_19  and  C_9 
REMARK    3  A    between atoms: C_12  and  N_10 
ROOT
ATOM      1  C   UNL d   1      58.318  -0.298  30.306  0.00  0.00     0.059 A 
ATOM      2  C   UNL d   1      59.033   0.083  30.462  0.00  0.00     0.013 A 
ATOM      3  C   UNL d   1      57.754   0.279  31.480  0.00  0.00     0.088 A 
ATOM      4  S   UNL d   1      57.679  -0.201  30.813  0.00  0.00    -0.075 SA
ATOM      5  S   UNL d   1      58.240  -0.779  29.638  0.00  0.00    -0.080 SA
ATOM      6  C   UNL d   1      58.469   0.660  31.637  0.00  0.00     0.012 A 
ATOM      7  C   UNL d   1      59.596  -0.491  29.292  0.00  0.00     0.007 A 
ATOM      8  C   UNL d   1      58.881  -0.873  29.136  0.00  0.00     0.030 A 
ENDROOT
BRANCH   3   9
ATOM      9  C   UNL d   1      57.115   0.376  31.987  0.00  0.00     0.285 C 
ATOM     10  N   UNL d   1      57.198   0.208  32.795  0.00  0.00    -0.208 NA
ATOM     11  O   UNL d   1      56.397   0.636  31.698  0.00  0.00    -0.265 OA
BRANCH  10  12
ATOM     12  C   UNL d   1      56.558   0.305  33.306  0.00  0.00     0.085 A 
ATOM     13  C   UNL d   1      56.692   0.518  34.082  0.00  0.00     0.021 A 
ATOM     14  C   UNL d   1      56.062   0.617  34.599  0.00  0.00     0.031 A 
ATOM     15  C   UNL d   1      55.289   0.498  34.327  0.00  0.00     0.140 A 
ATOM     16  C   UNL d   1      55.162   0.283  33.541  0.00  0.00     0.031 A 
ATOM     17  F   UNL d   1      54.648   0.595  34.838  0.00  0.00    -0.204 F 
ATOM     18  C   UNL d   1      55.799   0.185  33.028  0.00  0.00     0.021 A 
ENDBRANCH  10  12
ENDBRANCH   3   9
BRANCH   8  19
ATOM     19  C   UNL d   1      58.815  -1.350  28.467  0.00  0.00     0.006 C 
ATOM     20  C   UNL d   1      58.341  -2.021  28.479  0.00  0.00     0.001 C 
ENDBRANCH   8  19
TORSDOF 3
ENDMDL
