MODEL 1
REMARK VINA RESULT:      41.4      0.000      0.000
REMARK  6 active torsions:
REMARK  status: ('A' for Active; 'I' for Inactive)
REMARK    1  A    between atoms: C_2  and  C_1 
REMARK       I    between atoms: N_5  and  C_1 
REMARK    2  A    between atoms: C_4  and  C_2 
REMARK    3  A    between atoms: O_13  and  C_3 
REMARK    4  A    between atoms: C_9  and  C_4 
REMARK    5  A    between atoms: C_11  and  N_5 
REMARK    6  A    between atoms: O_14  and  C_6 
ROOT
ATOM      1  C   UNL d   1      59.063  49.600  51.094  0.00  0.00     0.005 C 
ENDROOT
BRANCH   1   2
ATOM      2  C   UNL d   1      59.805  49.707  50.746  0.00  0.00     0.062 C 
BRANCH   2   3
ATOM      3  C   UNL d   1      60.371  49.108  50.784  0.00  0.00     0.279 C 
ATOM      4  N   UNL d   1      60.232  48.419  50.465  0.00  0.00    -0.208 NA
ATOM      5  O   UNL d   1      61.047  49.238  51.142  0.00  0.00    -0.265 OA
BRANCH   4   6
ATOM      6  C   UNL d   1      60.763  47.857  50.500  0.00  0.00     0.085 A 
ATOM      7  C   UNL d   1      60.710  47.335  51.079  0.00  0.00     0.019 A 
ATOM      8  C   UNL d   1      61.236  46.770  51.122  0.00  0.00     0.002 A 
ATOM      9  C   UNL d   1      61.821  46.727  50.581  0.00  0.00     0.000 A 
ATOM     10  C   UNL d   1      61.867  47.256  50.003  0.00  0.00     0.002 A 
ATOM     11  C   UNL d   1      61.338  47.826  49.958  0.00  0.00     0.019 A 
ENDBRANCH   4   6
ENDBRANCH   2   3
ENDBRANCH   1   2
BRANCH   1  12
ATOM     12  C   UNL d   1      58.380  49.620  50.631  0.00  0.00     0.002 A 
ATOM     13  C   UNL d   1      57.632  49.654  50.993  0.00  0.00     0.026 A 
ATOM     14  C   UNL d   1      56.949  49.674  50.529  0.00  0.00     0.116 A 
ATOM     15  C   UNL d   1      57.015  49.661  49.706  0.00  0.00     0.116 A 
ATOM     16  C   UNL d   1      57.760  49.627  49.344  0.00  0.00     0.026 A 
ATOM     17  C   UNL d   1      58.442  49.607  49.811  0.00  0.00     0.002 A 
BRANCH  14  18
ATOM     18  O   UNL d   1      56.217  49.708  50.883  0.00  0.00    -0.326 OA
ATOM     19  C   UNL d   1      56.139  49.526  51.686  0.00  0.00     0.181 C 
ENDBRANCH  14  18
BRANCH  15  20
ATOM     20  O   UNL d   1      56.333  49.681  49.234  0.00  0.00    -0.326 OA
ATOM     21  C   UNL d   1      56.044  48.987  48.889  0.00  0.00     0.181 C 
ENDBRANCH  15  20
ENDBRANCH   1  12
TORSDOF 6
ENDMDL
