MODEL 1
REMARK VINA RESULT:      19.6      0.000      0.000
REMARK  6 active torsions:
REMARK  status: ('A' for Active; 'I' for Inactive)
REMARK    1  A    between atoms: C_3  and  C_1 
REMARK    2  A    between atoms: C_5  and  C_1 
REMARK    3  A    between atoms: C_2  and  C_5 
REMARK    4  A    between atoms: C_4  and  C_2 
REMARK    5  A    between atoms: C_8  and  C_3 
REMARK    6  A    between atoms: C_7  and  C_4 
ROOT
ATOM      1  C   UNL d   1      15.063  12.354  -0.717  0.00  0.00     0.196 C 
ATOM      2  O   UNL d   1      14.947  11.894  -0.032  0.00  0.00    -0.287 OA
ENDROOT
BRANCH   1   3
ATOM      3  C   UNL d   1      14.833  12.065  -1.449  0.00  0.00     0.042 C 
BRANCH   3   4
ATOM      4  C   UNL d   1      14.037  12.019  -1.661  0.00  0.00     0.003 C 
BRANCH   4   5
ATOM      5  C   UNL d   1      13.781  12.056  -2.477  0.00  0.00     0.000 A 
ATOM      6  C   UNL d   1      14.280  12.352  -3.064  0.00  0.00     0.002 A 
ATOM      7  C   UNL d   1      14.029  12.383  -3.840  0.00  0.00     0.030 A 
ATOM      8  C   UNL d   1      13.277  12.118  -4.035  0.00  0.00     0.140 A 
ATOM      9  C   UNL d   1      12.778  11.822  -3.448  0.00  0.00     0.030 A 
ATOM     10  F   UNL d   1      13.010  12.146  -4.825  0.00  0.00    -0.204 F 
ATOM     11  C   UNL d   1      13.016  11.782  -2.649  0.00  0.00     0.002 A 
ENDBRANCH   4   5
ENDBRANCH   3   4
ENDBRANCH   1   3
BRANCH   1  12
ATOM     12  C   UNL d   1      15.405  13.094  -0.662  0.00  0.00     0.042 C 
BRANCH  12  13
ATOM     13  C   UNL d   1      15.219  13.592  -0.031  0.00  0.00     0.003 C 
BRANCH  13  14
ATOM     14  C   UNL d   1      15.319  14.424  -0.117  0.00  0.00     0.000 A 
ATOM     15  C   UNL d   1      16.093  14.724  -0.139  0.00  0.00     0.002 A 
ATOM     16  C   UNL d   1      16.202  15.534  -0.222  0.00  0.00     0.030 A 
ATOM     17  C   UNL d   1      15.541  16.042  -0.283  0.00  0.00     0.140 A 
ATOM     18  C   UNL d   1      14.775  15.724  -0.258  0.00  0.00     0.030 A 
ATOM     19  F   UNL d   1      15.667  16.855  -0.366  0.00  0.00    -0.204 F 
ATOM     20  C   UNL d   1      14.665  14.913  -0.175  0.00  0.00     0.002 A 
ENDBRANCH  13  14
ENDBRANCH  12  13
ENDBRANCH   1  12
TORSDOF 6
ENDMDL
