MODEL 1
REMARK VINA RESULT:     119.5      0.000      0.000
REMARK  3 active torsions:
REMARK  status: ('A' for Active; 'I' for Inactive)
REMARK       I    between atoms: C_6  and  N_1 
REMARK    1  A    between atoms: C_11  and  C_5 
REMARK    2  A    between atoms: C_12  and  C_6 
REMARK    3  A    between atoms: C_27  and  N_10 
ROOT
ATOM      1  N   UNL d   1      60.505  48.256  51.069  0.00  0.00    -0.264 N 
ATOM      2  C   UNL d   1      60.353  48.881  51.595  0.00  0.00     0.198 A 
ATOM      3  C   UNL d   1      59.900  48.257  50.502  0.00  0.00     0.138 A 
ATOM      4  N   UNL d   1      59.664  49.255  51.349  0.00  0.00    -0.243 NA
ATOM      5  C   UNL d   1      59.382  48.873  50.675  0.00  0.00     0.105 A 
ATOM      6  C   UNL d   1      61.132  47.739  51.104  0.00  0.00     0.263 C 
ATOM      7  C   UNL d   1      60.140  49.518  52.077  0.00  0.00     0.041 A 
ATOM      8  C   UNL d   1      61.023  48.449  51.762  0.00  0.00     0.041 A 
ATOM      9  S   UNL d   1      59.830  47.725  49.867  0.00  0.00    -0.058 SA
ATOM     10  N   UNL d   1      61.289  49.272  52.893  0.00  0.00    -0.303 N 
ATOM     11  O   UNL d   1      61.695  47.810  51.709  0.00  0.00    -0.267 OA
ATOM     12  C   UNL d   1      61.492  48.644  52.411  0.00  0.00     0.080 A 
ATOM     13  C   UNL d   1      60.618  49.705  52.727  0.00  0.00     0.080 A 
ENDROOT
BRANCH   6  14
ATOM     14  C   UNL d   1      61.209  47.146  50.541  0.00  0.00     0.056 A 
ATOM     15  C   UNL d   1      61.693  47.264  49.893  0.00  0.00     0.005 A 
ATOM     16  C   UNL d   1      61.774  46.670  49.326  0.00  0.00     0.000 A 
ATOM     17  C   UNL d   1      61.366  45.956  49.412  0.00  0.00     0.000 A 
ATOM     18  C   UNL d   1      60.876  45.839  50.070  0.00  0.00     0.000 A 
ATOM     19  C   UNL d   1      61.449  45.362  48.842  0.00  0.00     0.000 C 
ATOM     20  C   UNL d   1      60.798  46.433  50.633  0.00  0.00     0.005 A 
ENDBRANCH   6  14
BRANCH   5  21
ATOM     21  C   UNL d   1      58.705  49.073  50.253  0.00  0.00     0.020 A 
ATOM     22  C   UNL d   1      58.775  49.442  49.511  0.00  0.00     0.004 A 
ATOM     23  C   UNL d   1      58.083  49.645  49.083  0.00  0.00     0.030 A 
ATOM     24  C   UNL d   1      57.337  49.476  49.405  0.00  0.00     0.140 A 
ATOM     25  C   UNL d   1      57.276  49.114  50.133  0.00  0.00     0.030 A 
ATOM     26  F   UNL d   1      56.659  49.677  48.980  0.00  0.00    -0.204 F 
ATOM     27  C   UNL d   1      57.944  48.907  50.569  0.00  0.00     0.004 A 
ENDBRANCH   5  21
BRANCH  10  28
ATOM     28  C   UNL d   1      61.762  49.470  53.548  0.00  0.00     0.080 C 
ATOM     29  C   UNL d   1      62.584  49.514  53.464  0.00  0.00     0.021 C 
ENDBRANCH  10  28
TORSDOF 3
ENDMDL
