MODEL 1
REMARK VINA RESULT:      89.7      0.000      0.000
REMARK  8 active torsions:
REMARK  status: ('A' for Active; 'I' for Inactive)
REMARK    1  A    between atoms: N_5  and  C_1 
REMARK    2  A    between atoms: N_8  and  C_3 
REMARK    3  A    between atoms: C_17  and  N_8 
REMARK    4  A    between atoms: C_28  and  N_9 
REMARK    5  A    between atoms: C_10  and  C_17 
REMARK    6  A    between atoms: C_20  and  O_27 
REMARK    7  A    between atoms: O_27  and  C_29 
REMARK    8  A    between atoms: C_29  and  C_28 
ROOT
ATOM      1  C   UNL d   1     -49.652  27.287  34.825  0.00  0.00     0.737 A 
ATOM      2  N   UNL d   1     -50.283  27.208  35.322  0.00  0.00    -0.041 NA
ATOM      3  C   UNL d   1     -50.833  26.642  35.190  0.00  0.00     0.182 A 
ATOM      4  N   UNL d   1     -49.576  26.794  34.191  0.00  0.00    -0.060 NA
ATOM      5  C   UNL d   1     -50.760  26.148  34.558  0.00  0.00     0.055 A 
ATOM      6  C   UNL d   1     -50.136  26.220  34.059  0.00  0.00     0.103 A 
ATOM      7  C   UNL d   1     -51.314  25.581  34.429  0.00  0.00     0.005 A 
ATOM      8  C   UNL d   1     -50.064  25.725  33.428  0.00  0.00     0.020 A 
ATOM      9  C   UNL d   1     -51.241  25.094  33.806  0.00  0.00     0.000 A 
ATOM     10  C   UNL d   1     -50.617  25.166  33.307  0.00  0.00     0.002 A 
ENDROOT
BRANCH   1  11
ATOM     11  N   UNL d   1     -49.086  27.866  34.956  0.00  0.00    -0.134 N 
ATOM     12  C   UNL d   1     -48.372  27.858  34.522  0.00  0.00     0.117 A 
ATOM     13  C   UNL d   1     -47.804  28.440  34.656  0.00  0.00     0.100 A 
ATOM     14  N   UNL d   1     -47.936  29.034  35.218  0.00  0.00    -0.298 N 
ATOM     15  C   UNL d   1     -48.651  29.041  35.652  0.00  0.00     0.100 A 
ATOM     16  C   UNL d   1     -49.219  28.456  35.516  0.00  0.00     0.117 A 
BRANCH  14  17
ATOM     17  C   UNL d   1     -47.369  29.616  35.352  0.00  0.00     0.107 C 
BRANCH  17  18
ATOM     18  C   UNL d   1     -47.590  30.411  35.416  0.00  0.00     0.142 C 
BRANCH  18  19
ATOM     19  O   UNL d   1     -47.062  31.019  35.205  0.00  0.00    -0.304 OA
BRANCH  19  20
ATOM     20  C   UNL d   1     -47.307  31.648  34.735  0.00  0.00     0.100 A 
ATOM     21  C   UNL d   1     -48.116  31.840  34.684  0.00  0.00     0.025 A 
ATOM     22  C   UNL d   1     -48.359  32.471  34.211  0.00  0.00     0.002 A 
ATOM     23  C   UNL d   1     -47.799  32.920  33.784  0.00  0.00     0.000 A 
ATOM     24  C   UNL d   1     -46.990  32.727  33.836  0.00  0.00     0.002 A 
ATOM     25  C   UNL d   1     -48.048  33.557  33.308  0.00  0.00     0.000 C 
ATOM     26  C   UNL d   1     -46.748  32.086  34.316  0.00  0.00     0.025 A 
ENDBRANCH  19  20
ENDBRANCH  18  19
ENDBRANCH  17  18
ENDBRANCH  14  17
ENDBRANCH   1  11
BRANCH   3  27
ATOM     27  N   UNL d   1     -51.449  26.571  35.683  0.00  0.00    -0.223 NA
BRANCH  27  28
ATOM     28  C   UNL d   1     -51.356  26.662  36.440  0.00  0.00     0.125 C 
BRANCH  28  29
ATOM     29  C   UNL d   1     -51.498  26.368  37.282  0.00  0.00     0.119 A 
ATOM     30  O   UNL d   1     -51.949  25.623  37.847  0.00  0.00    -0.304 OA
ATOM     31  C   UNL d   1     -51.753  25.833  38.885  0.00  0.00     0.123 A 
ATOM     32  C   UNL d   1     -51.318  26.528  38.612  0.00  0.00     0.029 A 
ATOM     33  C   UNL d   1     -51.206  26.759  37.950  0.00  0.00     0.028 A 
ENDBRANCH  28  29
ENDBRANCH  27  28
ENDBRANCH   3  27
TORSDOF 8
ENDMDL
MODEL 2
REMARK VINA RESULT:      92.5      1.026      2.806
REMARK  8 active torsions:
REMARK  status: ('A' for Active; 'I' for Inactive)
REMARK    1  A    between atoms: N_5  and  C_1 
REMARK    2  A    between atoms: N_8  and  C_3 
REMARK    3  A    between atoms: C_17  and  N_8 
REMARK    4  A    between atoms: C_28  and  N_9 
REMARK    5  A    between atoms: C_10  and  C_17 
REMARK    6  A    between atoms: C_20  and  O_27 
REMARK    7  A    between atoms: O_27  and  C_29 
REMARK    8  A    between atoms: C_29  and  C_28 
ROOT
ATOM      1  C   UNL d   1     -49.795  27.786  36.785  0.00  0.00     0.737 A 
ATOM      2  N   UNL d   1     -50.288  27.399  36.277  0.00  0.00    -0.041 NA
ATOM      3  C   UNL d   1     -50.884  26.946  36.557  0.00  0.00     0.182 A 
ATOM      4  N   UNL d   1     -49.903  27.714  37.582  0.00  0.00    -0.060 NA
ATOM      5  C   UNL d   1     -50.995  26.873  37.351  0.00  0.00     0.055 A 
ATOM      6  C   UNL d   1     -50.510  27.253  37.864  0.00  0.00     0.103 A 
ATOM      7  C   UNL d   1     -51.595  26.416  37.630  0.00  0.00     0.005 A 
ATOM      8  C   UNL d   1     -50.622  27.179  38.658  0.00  0.00     0.020 A 
ATOM      9  C   UNL d   1     -51.704  26.345  38.413  0.00  0.00     0.000 A 
ATOM     10  C   UNL d   1     -51.219  26.725  38.926  0.00  0.00     0.002 A 
ENDROOT
BRANCH   1  11
ATOM     11  N   UNL d   1     -49.182  28.251  36.502  0.00  0.00    -0.134 N 
ATOM     12  C   UNL d   1     -48.691  28.666  37.036  0.00  0.00     0.117 A 
ATOM     13  C   UNL d   1     -48.076  29.134  36.749  0.00  0.00     0.100 A 
ATOM     14  N   UNL d   1     -47.941  29.196  35.935  0.00  0.00    -0.298 N 
ATOM     15  C   UNL d   1     -48.432  28.781  35.400  0.00  0.00     0.100 A 
ATOM     16  C   UNL d   1     -49.049  28.312  35.691  0.00  0.00     0.117 A 
BRANCH  14  17
ATOM     17  C   UNL d   1     -47.326  29.664  35.647  0.00  0.00     0.107 C 
BRANCH  17  18
ATOM     18  C   UNL d   1     -47.480  30.283  35.120  0.00  0.00     0.142 C 
BRANCH  18  19
ATOM     19  O   UNL d   1     -47.625  31.054  35.398  0.00  0.00    -0.304 OA
BRANCH  19  20
ATOM     20  C   UNL d   1     -47.654  31.692  34.880  0.00  0.00     0.100 A 
ATOM     21  C   UNL d   1     -48.390  31.992  34.630  0.00  0.00     0.025 A 
ATOM     22  C   UNL d   1     -48.415  32.632  34.109  0.00  0.00     0.002 A 
ATOM     23  C   UNL d   1     -47.709  32.981  33.832  0.00  0.00     0.000 A 
ATOM     24  C   UNL d   1     -46.975  32.680  34.082  0.00  0.00     0.002 A 
ATOM     25  C   UNL d   1     -47.740  33.627  33.306  0.00  0.00     0.000 C 
ATOM     26  C   UNL d   1     -46.952  32.031  34.610  0.00  0.00     0.025 A 
ENDBRANCH  19  20
ENDBRANCH  18  19
ENDBRANCH  17  18
ENDBRANCH  14  17
ENDBRANCH   1  11
BRANCH   3  27
ATOM     27  N   UNL d   1     -51.363  26.570  36.051  0.00  0.00    -0.223 NA
BRANCH  27  28
ATOM     28  C   UNL d   1     -51.141  26.438  35.327  0.00  0.00     0.125 C 
BRANCH  28  29
ATOM     29  C   UNL d   1     -51.047  25.866  34.634  0.00  0.00     0.119 A 
ATOM     30  O   UNL d   1     -51.090  24.867  34.358  0.00  0.00    -0.304 OA
ATOM     31  C   UNL d   1     -50.864  24.807  33.306  0.00  0.00     0.123 A 
ATOM     32  C   UNL d   1     -50.780  25.666  33.325  0.00  0.00     0.029 A 
ATOM     33  C   UNL d   1     -50.853  26.116  33.869  0.00  0.00     0.028 A 
ENDBRANCH  28  29
ENDBRANCH  27  28
ENDBRANCH   3  27
TORSDOF 8
ENDMDL
