MODEL 1
REMARK VINA RESULT:      -8.1      0.000      0.000
REMARK  6 active torsions:
REMARK  status: ('A' for Active; 'I' for Inactive)
REMARK    1  A    between atoms: C_15  and  N_1 
REMARK    2  A    between atoms: S_12  and  C_3 
REMARK    3  A    between atoms: C_4  and  N_11 
REMARK    4  A    between atoms: C_14  and  C_8 
REMARK       I    between atoms: N_11  and  C_13 
REMARK    5  A    between atoms: C_17  and  S_12 
REMARK    6  A    between atoms: C_13  and  C_17 
ROOT
ATOM      1  N   UNL d   1      53.473  33.467  54.765  0.00  0.00    -0.018 NA
ATOM      2  C   UNL d   1      53.671  32.677  54.672  0.00  0.00     0.302 C 
ATOM      3  O   UNL d   1      54.077  32.278  55.278  0.00  0.00    -0.264 OA
ENDROOT
BRANCH   2   4
ATOM      4  C   UNL d   1      53.469  32.280  53.979  0.00  0.00     0.101 C 
BRANCH   4   5
ATOM      5  S   UNL d   1      53.501  31.449  53.950  0.00  0.00    -0.041 SA
BRANCH   5   6
ATOM      6  C   UNL d   1      53.278  31.051  53.264  0.00  0.00     0.219 A 
ATOM      7  N   UNL d   1      53.150  30.233  53.293  0.00  0.00    -0.186 N 
ATOM      8  N   UNL d   1      52.934  29.984  52.533  0.00  0.00    -0.038 NA
ATOM      9  N   UNL d   1      52.929  30.641  52.043  0.00  0.00    -0.022 NA
ATOM     10  N   UNL d   1      53.141  31.298  52.496  0.00  0.00    -0.101 NA
BRANCH   7  11
ATOM     11  C   UNL d   1      53.213  29.722  53.931  0.00  0.00     0.087 A 
ATOM     12  C   UNL d   1      53.902  29.279  54.031  0.00  0.00     0.019 A 
ATOM     13  C   UNL d   1      53.969  28.764  54.670  0.00  0.00     0.002 A 
ATOM     14  C   UNL d   1      53.362  28.684  55.210  0.00  0.00     0.000 A 
ATOM     15  C   UNL d   1      52.661  29.129  55.114  0.00  0.00     0.002 A 
ATOM     16  C   UNL d   1      52.589  29.651  54.468  0.00  0.00     0.019 A 
ENDBRANCH   7  11
ENDBRANCH   5   6
ENDBRANCH   4   5
ENDBRANCH   2   4
BRANCH   1  17
ATOM     17  C   UNL d   1      53.067  33.867  54.158  0.00  0.00     0.760 A 
ATOM     18  N   UNL d   1      52.283  33.777  53.950  0.00  0.00    -0.051 NA
ATOM     19  C   UNL d   1      52.131  34.281  53.326  0.00  0.00     0.147 A 
ATOM     20  S   UNL d   1      52.815  34.677  53.153  0.00  0.00     0.052 SA
ATOM     21  N   UNL d   1      53.391  34.413  53.674  0.00  0.00    -0.019 NA
BRANCH  19  22
ATOM     22  C   UNL d   1      51.389  34.347  52.960  0.00  0.00     0.026 A 
ATOM     23  C   UNL d   1      51.319  34.191  52.153  0.00  0.00     0.003 A 
ATOM     24  C   UNL d   1      50.582  34.257  51.794  0.00  0.00     0.011 A 
ATOM     25  C   UNL d   1      49.921  34.479  52.239  0.00  0.00     0.058 A 
ATOM     26  C   UNL d   1      49.995  34.632  53.032  0.00  0.00     0.011 A 
ATOM     27 CL   UNL d   1      49.183  34.549  51.894  0.00  0.00    -0.082 Cl
ATOM     28  C   UNL d   1      50.733  34.567  53.400  0.00  0.00     0.003 A 
ENDBRANCH  19  22
ENDBRANCH   1  17
TORSDOF 6
ENDMDL
MODEL 2
REMARK VINA RESULT:      -8.0      2.716      3.941
REMARK  6 active torsions:
REMARK  status: ('A' for Active; 'I' for Inactive)
REMARK    1  A    between atoms: C_15  and  N_1 
REMARK    2  A    between atoms: S_12  and  C_3 
REMARK    3  A    between atoms: C_4  and  N_11 
REMARK    4  A    between atoms: C_14  and  C_8 
REMARK       I    between atoms: N_11  and  C_13 
REMARK    5  A    between atoms: C_17  and  S_12 
REMARK    6  A    between atoms: C_13  and  C_17 
ROOT
ATOM      1  N   UNL d   1      51.153  33.996  51.888  0.00  0.00    -0.018 NA
ATOM      2  C   UNL d   1      51.891  34.147  52.210  0.00  0.00     0.302 C 
ATOM      3  O   UNL d   1      52.577  33.918  51.799  0.00  0.00    -0.264 OA
ENDROOT
BRANCH   2   4
ATOM      4  C   UNL d   1      51.953  34.524  52.940  0.00  0.00     0.101 C 
BRANCH   4   5
ATOM      5  S   UNL d   1      52.661  34.479  53.374  0.00  0.00    -0.041 SA
BRANCH   5   6
ATOM      6  C   UNL d   1      52.820  35.031  53.965  0.00  0.00     0.219 A 
ATOM      7  N   UNL d   1      53.340  34.832  54.577  0.00  0.00    -0.186 N 
ATOM      8  N   UNL d   1      53.395  35.484  55.085  0.00  0.00    -0.038 NA
ATOM      9  N   UNL d   1      52.913  36.077  54.788  0.00  0.00    -0.022 NA
ATOM     10  N   UNL d   1      52.560  35.795  54.097  0.00  0.00    -0.101 NA
BRANCH   7  11
ATOM     11  C   UNL d   1      53.750  34.132  54.702  0.00  0.00     0.087 A 
ATOM     12  C   UNL d   1      53.357  33.484  55.026  0.00  0.00     0.019 A 
ATOM     13  C   UNL d   1      53.765  32.779  55.153  0.00  0.00     0.002 A 
ATOM     14  C   UNL d   1      54.556  32.712  54.961  0.00  0.00     0.000 A 
ATOM     15  C   UNL d   1      54.960  33.366  54.632  0.00  0.00     0.002 A 
ATOM     16  C   UNL d   1      54.550  34.080  54.503  0.00  0.00     0.019 A 
ENDBRANCH   7  11
ENDBRANCH   5   6
ENDBRANCH   4   5
ENDBRANCH   2   4
BRANCH   1  17
ATOM     17  C   UNL d   1      50.466  34.224  52.299  0.00  0.00     0.760 A 
ATOM     18  N   UNL d   1      49.893  34.747  52.045  0.00  0.00    -0.051 NA
ATOM     19  C   UNL d   1      49.326  34.799  52.630  0.00  0.00     0.147 A 
ATOM     20  S   UNL d   1      49.549  34.313  53.238  0.00  0.00     0.052 SA
ATOM     21  N   UNL d   1      50.258  33.961  53.023  0.00  0.00    -0.019 NA
BRANCH  19  22
ATOM     22  C   UNL d   1      48.651  35.279  52.574  0.00  0.00     0.026 A 
ATOM     23  C   UNL d   1      48.192  35.255  51.889  0.00  0.00     0.003 A 
ATOM     24  C   UNL d   1      47.524  35.732  51.836  0.00  0.00     0.011 A 
ATOM     25  C   UNL d   1      47.318  36.230  52.465  0.00  0.00     0.058 A 
ATOM     26  C   UNL d   1      47.773  36.250  53.136  0.00  0.00     0.011 A 
ATOM     27 CL   UNL d   1      46.657  36.709  52.425  0.00  0.00    -0.082 Cl
ATOM     28  C   UNL d   1      48.446  35.773  53.196  0.00  0.00     0.003 A 
ENDBRANCH  19  22
ENDBRANCH   1  17
TORSDOF 6
ENDMDL
MODEL 3
REMARK VINA RESULT:      -7.4      2.198      4.596
REMARK  6 active torsions:
REMARK  status: ('A' for Active; 'I' for Inactive)
REMARK    1  A    between atoms: C_15  and  N_1 
REMARK    2  A    between atoms: S_12  and  C_3 
REMARK    3  A    between atoms: C_4  and  N_11 
REMARK    4  A    between atoms: C_14  and  C_8 
REMARK       I    between atoms: N_11  and  C_13 
REMARK    5  A    between atoms: C_17  and  S_12 
REMARK    6  A    between atoms: C_13  and  C_17 
ROOT
ATOM      1  N   UNL d   1      51.983  33.422  52.005  0.00  0.00    -0.018 NA
ATOM      2  C   UNL d   1      52.162  34.146  52.344  0.00  0.00     0.302 C 
ATOM      3  O   UNL d   1      52.235  34.821  51.863  0.00  0.00    -0.264 OA
ENDROOT
BRANCH   2   4
ATOM      4  C   UNL d   1      52.269  34.206  53.158  0.00  0.00     0.101 C 
BRANCH   4   5
ATOM      5  S   UNL d   1      52.941  34.590  53.464  0.00  0.00    -0.041 SA
BRANCH   5   6
ATOM      6  C   UNL d   1      52.871  35.092  54.113  0.00  0.00     0.219 A 
ATOM      7  N   UNL d   1      53.366  34.982  54.768  0.00  0.00    -0.186 N 
ATOM      8  N   UNL d   1      53.174  35.559  55.329  0.00  0.00    -0.038 NA
ATOM      9  N   UNL d   1      52.569  36.019  55.024  0.00  0.00    -0.022 NA
ATOM     10  N   UNL d   1      52.383  35.729  54.273  0.00  0.00    -0.101 NA
BRANCH   7  11
ATOM     11  C   UNL d   1      53.951  34.420  54.885  0.00  0.00     0.087 A 
ATOM     12  C   UNL d   1      53.828  33.811  55.428  0.00  0.00     0.019 A 
ATOM     13  C   UNL d   1      54.414  33.245  55.548  0.00  0.00     0.002 A 
ATOM     14  C   UNL d   1      55.118  33.275  55.137  0.00  0.00     0.000 A 
ATOM     15  C   UNL d   1      55.249  33.890  54.585  0.00  0.00     0.002 A 
ATOM     16  C   UNL d   1      54.659  34.464  54.460  0.00  0.00     0.019 A 
ENDBRANCH   7  11
ENDBRANCH   5   6
ENDBRANCH   4   5
ENDBRANCH   2   4
BRANCH   1  17
ATOM     17  C   UNL d   1      51.910  32.746  52.486  0.00  0.00     0.760 A 
ATOM     18  N   UNL d   1      52.451  32.141  52.568  0.00  0.00    -0.051 NA
ATOM     19  C   UNL d   1      52.143  31.600  53.096  0.00  0.00     0.147 A 
ATOM     20  S   UNL d   1      51.419  31.871  53.337  0.00  0.00     0.052 SA
ATOM     21  N   UNL d   1      51.283  32.583  52.953  0.00  0.00    -0.019 NA
BRANCH  19  22
ATOM     22  C   UNL d   1      52.535  30.904  53.322  0.00  0.00     0.026 A 
ATOM     23  C   UNL d   1      53.360  30.877  53.296  0.00  0.00     0.003 A 
ATOM     24  C   UNL d   1      53.745  30.186  53.520  0.00  0.00     0.011 A 
ATOM     25  C   UNL d   1      53.308  29.528  53.768  0.00  0.00     0.058 A 
ATOM     26  C   UNL d   1      52.498  29.560  53.792  0.00  0.00     0.011 A 
ATOM     27 CL   UNL d   1      53.680  28.834  53.994  0.00  0.00    -0.082 Cl
ATOM     28  C   UNL d   1      52.104  30.252  53.568  0.00  0.00     0.003 A 
ENDBRANCH  19  22
ENDBRANCH   1  17
TORSDOF 6
ENDMDL
MODEL 4
REMARK VINA RESULT:      -7.1      1.912      4.673
REMARK  6 active torsions:
REMARK  status: ('A' for Active; 'I' for Inactive)
REMARK    1  A    between atoms: C_15  and  N_1 
REMARK    2  A    between atoms: S_12  and  C_3 
REMARK    3  A    between atoms: C_4  and  N_11 
REMARK    4  A    between atoms: C_14  and  C_8 
REMARK       I    between atoms: N_11  and  C_13 
REMARK    5  A    between atoms: C_17  and  S_12 
REMARK    6  A    between atoms: C_13  and  C_17 
ROOT
ATOM      1  N   UNL d   1      55.048  33.212  54.656  0.00  0.00    -0.018 NA
ATOM      2  C   UNL d   1      54.771  33.983  54.671  0.00  0.00     0.302 C 
ATOM      3  O   UNL d   1      55.308  34.617  54.644  0.00  0.00    -0.264 OA
ENDROOT
BRANCH   2   4
ATOM      4  C   UNL d   1      53.962  34.129  54.714  0.00  0.00     0.101 C 
BRANCH   4   5
ATOM      5  S   UNL d   1      53.594  34.615  54.147  0.00  0.00    -0.041 SA
BRANCH   5   6
ATOM      6  C   UNL d   1      53.068  35.202  54.385  0.00  0.00     0.219 A 
ATOM      7  N   UNL d   1      52.329  35.258  54.017  0.00  0.00    -0.186 N 
ATOM      8  N   UNL d   1      51.922  35.891  54.362  0.00  0.00    -0.038 NA
ATOM      9  N   UNL d   1      52.405  36.221  54.936  0.00  0.00    -0.022 NA
ATOM     10  N   UNL d   1      53.112  35.794  54.948  0.00  0.00    -0.101 NA
BRANCH   7  11
ATOM     11  C   UNL d   1      52.013  34.797  53.417  0.00  0.00     0.087 A 
ATOM     12  C   UNL d   1      51.363  34.313  53.576  0.00  0.00     0.019 A 
ATOM     13  C   UNL d   1      51.043  33.847  52.976  0.00  0.00     0.002 A 
ATOM     14  C   UNL d   1      51.359  33.857  52.224  0.00  0.00     0.000 A 
ATOM     15  C   UNL d   1      52.017  34.345  52.056  0.00  0.00     0.002 A 
ATOM     16  C   UNL d   1      52.344  34.817  52.660  0.00  0.00     0.019 A 
ENDBRANCH   7  11
ENDBRANCH   5   6
ENDBRANCH   4   5
ENDBRANCH   2   4
BRANCH   1  17
ATOM     17  C   UNL d   1      54.511  32.577  54.684  0.00  0.00     0.760 A 
ATOM     18  N   UNL d   1      54.329  32.060  54.078  0.00  0.00    -0.051 NA
ATOM     19  C   UNL d   1      53.775  31.531  54.360  0.00  0.00     0.147 A 
ATOM     20  S   UNL d   1      53.617  31.720  55.130  0.00  0.00     0.052 SA
ATOM     21  N   UNL d   1      54.079  32.371  55.323  0.00  0.00    -0.019 NA
BRANCH  19  22
ATOM     22  C   UNL d   1      53.453  30.917  53.902  0.00  0.00     0.026 A 
ATOM     23  C   UNL d   1      53.190  31.077  53.137  0.00  0.00     0.003 A 
ATOM     24  C   UNL d   1      52.871  30.467  52.687  0.00  0.00     0.011 A 
ATOM     25  C   UNL d   1      52.818  29.703  53.001  0.00  0.00     0.058 A 
ATOM     26  C   UNL d   1      53.078  29.551  53.754  0.00  0.00     0.011 A 
ATOM     27 CL   UNL d   1      52.503  29.087  52.564  0.00  0.00    -0.082 Cl
ATOM     28  C   UNL d   1      53.399  30.160  54.212  0.00  0.00     0.003 A 
ENDBRANCH  19  22
ENDBRANCH   1  17
TORSDOF 6
ENDMDL
MODEL 5
REMARK VINA RESULT:      -5.3      2.346      5.134
REMARK  6 active torsions:
REMARK  status: ('A' for Active; 'I' for Inactive)
REMARK    1  A    between atoms: C_15  and  N_1 
REMARK    2  A    between atoms: S_12  and  C_3 
REMARK    3  A    between atoms: C_4  and  N_11 
REMARK    4  A    between atoms: C_14  and  C_8 
REMARK       I    between atoms: N_11  and  C_13 
REMARK    5  A    between atoms: C_17  and  S_12 
REMARK    6  A    between atoms: C_13  and  C_17 
ROOT
ATOM      1  N   UNL d   1      52.177  31.881  52.492  0.00  0.00    -0.018 NA
ATOM      2  C   UNL d   1      52.457  32.611  52.738  0.00  0.00     0.302 C 
ATOM      3  O   UNL d   1      52.052  33.304  52.519  0.00  0.00    -0.264 OA
ENDROOT
BRANCH   2   4
ATOM      4  C   UNL d   1      53.137  32.658  53.200  0.00  0.00     0.101 C 
BRANCH   4   5
ATOM      5  S   UNL d   1      53.349  33.378  53.559  0.00  0.00    -0.041 SA
BRANCH   5   6
ATOM      6  C   UNL d   1      54.028  33.425  54.022  0.00  0.00     0.219 A 
ATOM      7  N   UNL d   1      54.143  34.084  54.510  0.00  0.00    -0.186 N 
ATOM      8  N   UNL d   1      54.863  33.984  54.906  0.00  0.00    -0.038 NA
ATOM      9  N   UNL d   1      55.188  33.271  54.664  0.00  0.00    -0.022 NA
ATOM     10  N   UNL d   1      54.671  32.928  54.119  0.00  0.00    -0.101 NA
BRANCH   7  11
ATOM     11  C   UNL d   1      53.662  34.739  54.616  0.00  0.00     0.087 A 
ATOM     12  C   UNL d   1      53.729  35.380  54.100  0.00  0.00     0.019 A 
ATOM     13  C   UNL d   1      53.247  36.041  54.203  0.00  0.00     0.002 A 
ATOM     14  C   UNL d   1      52.702  36.072  54.809  0.00  0.00     0.000 A 
ATOM     15  C   UNL d   1      52.629  35.426  55.335  0.00  0.00     0.002 A 
ATOM     16  C   UNL d   1      53.114  34.756  55.234  0.00  0.00     0.019 A 
ENDBRANCH   7  11
ENDBRANCH   5   6
ENDBRANCH   4   5
ENDBRANCH   2   4
BRANCH   1  17
ATOM     17  C   UNL d   1      52.582  31.187  52.711  0.00  0.00     0.760 A 
ATOM     18  N   UNL d   1      52.556  30.811  53.435  0.00  0.00    -0.051 NA
ATOM     19  C   UNL d   1      53.039  30.154  53.392  0.00  0.00     0.147 A 
ATOM     20  S   UNL d   1      53.360  30.128  52.650  0.00  0.00     0.052 SA
ATOM     21  N   UNL d   1      53.070  30.773  52.234  0.00  0.00    -0.019 NA
BRANCH  19  22
ATOM     22  C   UNL d   1      53.156  29.629  54.025  0.00  0.00     0.026 A 
ATOM     23  C   UNL d   1      53.539  28.911  53.890  0.00  0.00     0.003 A 
ATOM     24  C   UNL d   1      53.654  28.393  54.518  0.00  0.00     0.011 A 
ATOM     25  C   UNL d   1      53.386  28.593  55.275  0.00  0.00     0.058 A 
ATOM     26  C   UNL d   1      53.010  29.300  55.403  0.00  0.00     0.011 A 
ATOM     27 CL   UNL d   1      53.493  28.087  55.909  0.00  0.00    -0.082 Cl
ATOM     28  C   UNL d   1      52.892  29.826  54.775  0.00  0.00     0.003 A 
ENDBRANCH  19  22
ENDBRANCH   1  17
TORSDOF 6
ENDMDL
