MODEL 1
REMARK VINA RESULT:      -8.9      0.000      0.000
REMARK  5 active torsions:
REMARK  status: ('A' for Active; 'I' for Inactive)
REMARK    1  A    between atoms: C_2  and  C_1 
REMARK    2  A    between atoms: C_3  and  C_1 
REMARK    3  A    between atoms: C_4  and  C_2 
REMARK    4  A    between atoms: C_8  and  C_3 
REMARK    5  A    between atoms: O_18  and  C_10 
ROOT
ATOM      1  C   UNL d   1      52.841  31.693  52.896  0.00  0.00     0.196 C 
ATOM      2  O   UNL d   1      52.547  31.728  52.123  0.00  0.00    -0.287 OA
ENDROOT
BRANCH   1   3
ATOM      3  C   UNL d   1      52.999  32.388  53.311  0.00  0.00     0.042 C 
BRANCH   3   4
ATOM      4  C   UNL d   1      53.032  33.190  53.110  0.00  0.00     0.003 C 
BRANCH   4   5
ATOM      5  C   UNL d   1      53.011  33.896  53.537  0.00  0.00     0.000 A 
ATOM      6  C   UNL d   1      52.583  34.539  53.241  0.00  0.00     0.003 A 
ATOM      7  C   UNL d   1      52.560  35.247  53.667  0.00  0.00     0.042 A 
ATOM      8  C   UNL d   1      52.965  35.305  54.383  0.00  0.00     0.196 A 
ATOM      9  C   UNL d   1      53.391  34.658  54.672  0.00  0.00     0.042 A 
ATOM     10  O   UNL d   1      52.944  36.010  54.810  0.00  0.00    -0.287 OA
ATOM     11  C   UNL d   1      53.414  33.958  54.252  0.00  0.00     0.003 A 
ENDBRANCH   4   5
ENDBRANCH   3   4
ENDBRANCH   1   3
BRANCH   1  12
ATOM     12  C   UNL d   1      52.972  30.950  53.241  0.00  0.00     0.039 A 
ATOM     13  C   UNL d   1      53.708  30.752  53.557  0.00  0.00     0.005 A 
ATOM     14  C   UNL d   1      53.823  30.009  53.897  0.00  0.00     0.024 A 
ATOM     15  C   UNL d   1      53.201  29.464  53.922  0.00  0.00     0.094 A 
ATOM     16  C   UNL d   1      52.458  29.671  53.601  0.00  0.00     0.024 A 
ATOM     17  C   UNL d   1      52.346  30.411  53.262  0.00  0.00     0.005 A 
BRANCH  15  18
ATOM     18  O   UNL d   1      53.316  28.722  54.262  0.00  0.00    -0.328 OA
ATOM     19  C   UNL d   1      53.372  28.650  55.082  0.00  0.00     0.181 C 
ENDBRANCH  15  18
ENDBRANCH   1  12
TORSDOF 5
ENDMDL
MODEL 2
REMARK VINA RESULT:      -8.4      1.635      1.989
REMARK  5 active torsions:
REMARK  status: ('A' for Active; 'I' for Inactive)
REMARK    1  A    between atoms: C_2  and  C_1 
REMARK    2  A    between atoms: C_3  and  C_1 
REMARK    3  A    between atoms: C_4  and  C_2 
REMARK    4  A    between atoms: C_8  and  C_3 
REMARK    5  A    between atoms: O_18  and  C_10 
ROOT
ATOM      1  C   UNL d   1      53.200  32.125  53.098  0.00  0.00     0.196 C 
ATOM      2  O   UNL d   1      53.921  32.525  53.035  0.00  0.00    -0.287 OA
ENDROOT
BRANCH   1   3
ATOM      3  C   UNL d   1      52.492  32.518  52.940  0.00  0.00     0.042 C 
BRANCH   3   4
ATOM      4  C   UNL d   1      52.269  33.313  52.883  0.00  0.00     0.003 C 
BRANCH   4   5
ATOM      5  C   UNL d   1      51.551  33.708  52.788  0.00  0.00     0.000 A 
ATOM      6  C   UNL d   1      51.344  34.004  52.044  0.00  0.00     0.003 A 
ATOM      7  C   UNL d   1      50.625  34.400  51.946  0.00  0.00     0.042 A 
ATOM      8  C   UNL d   1      50.121  34.496  52.592  0.00  0.00     0.196 A 
ATOM      9  C   UNL d   1      50.335  34.198  53.332  0.00  0.00     0.042 A 
ATOM     10  O   UNL d   1      49.403  34.891  52.497  0.00  0.00    -0.287 OA
ATOM     11  C   UNL d   1      51.046  33.806  53.430  0.00  0.00     0.003 A 
ENDBRANCH   4   5
ENDBRANCH   3   4
ENDBRANCH   1   3
BRANCH   1  12
ATOM     12  C   UNL d   1      53.203  31.326  53.323  0.00  0.00     0.039 A 
ATOM     13  C   UNL d   1      52.813  30.756  52.872  0.00  0.00     0.005 A 
ATOM     14  C   UNL d   1      52.825  29.966  53.109  0.00  0.00     0.024 A 
ATOM     15  C   UNL d   1      53.229  29.746  53.796  0.00  0.00     0.094 A 
ATOM     16  C   UNL d   1      53.623  30.327  54.248  0.00  0.00     0.024 A 
ATOM     17  C   UNL d   1      53.609  31.113  54.011  0.00  0.00     0.005 A 
BRANCH  15  18
ATOM     18  O   UNL d   1      53.242  28.955  54.032  0.00  0.00    -0.328 OA
ATOM     19  C   UNL d   1      53.340  28.766  54.829  0.00  0.00     0.181 C 
ENDBRANCH  15  18
ENDBRANCH   1  12
TORSDOF 5
ENDMDL
MODEL 3
REMARK VINA RESULT:      -8.2      1.814      4.790
REMARK  5 active torsions:
REMARK  status: ('A' for Active; 'I' for Inactive)
REMARK    1  A    between atoms: C_2  and  C_1 
REMARK    2  A    between atoms: C_3  and  C_1 
REMARK    3  A    between atoms: C_4  and  C_2 
REMARK    4  A    between atoms: C_8  and  C_3 
REMARK    5  A    between atoms: O_18  and  C_10 
ROOT
ATOM      1  C   UNL d   1      52.452  33.281  53.000  0.00  0.00     0.196 C 
ATOM      2  O   UNL d   1      53.111  33.744  53.185  0.00  0.00    -0.287 OA
ENDROOT
BRANCH   1   3
ATOM      3  C   UNL d   1      52.513  32.458  52.992  0.00  0.00     0.042 C 
BRANCH   3   4
ATOM      4  C   UNL d   1      53.121  31.919  53.149  0.00  0.00     0.003 C 
BRANCH   4   5
ATOM      5  C   UNL d   1      53.149  31.128  53.383  0.00  0.00     0.000 A 
ATOM      6  C   UNL d   1      53.544  30.924  54.081  0.00  0.00     0.003 A 
ATOM      7  C   UNL d   1      53.572  30.132  54.318  0.00  0.00     0.042 A 
ATOM      8  C   UNL d   1      53.207  29.554  53.856  0.00  0.00     0.196 A 
ATOM      9  C   UNL d   1      52.815  29.767  53.160  0.00  0.00     0.042 A 
ATOM     10  O   UNL d   1      53.234  28.764  54.090  0.00  0.00    -0.287 OA
ATOM     11  C   UNL d   1      52.785  30.549  52.925  0.00  0.00     0.003 A 
ENDBRANCH   4   5
ENDBRANCH   3   4
ENDBRANCH   1   3
BRANCH   1  12
ATOM     12  C   UNL d   1      51.734  33.657  52.825  0.00  0.00     0.039 A 
ATOM     13  C   UNL d   1      51.123  33.686  53.378  0.00  0.00     0.005 A 
ATOM     14  C   UNL d   1      50.414  34.064  53.189  0.00  0.00     0.024 A 
ATOM     15  C   UNL d   1      50.317  34.413  52.446  0.00  0.00     0.094 A 
ATOM     16  C   UNL d   1      50.939  34.380  51.889  0.00  0.00     0.024 A 
ATOM     17  C   UNL d   1      51.644  34.004  52.080  0.00  0.00     0.005 A 
BRANCH  15  18
ATOM     18  O   UNL d   1      49.608  34.791  52.257  0.00  0.00    -0.328 OA
ATOM     19  C   UNL d   1      49.150  34.514  51.629  0.00  0.00     0.181 C 
ENDBRANCH  15  18
ENDBRANCH   1  12
TORSDOF 5
ENDMDL
MODEL 4
REMARK VINA RESULT:      -8.2      1.012      4.862
REMARK  5 active torsions:
REMARK  status: ('A' for Active; 'I' for Inactive)
REMARK    1  A    between atoms: C_2  and  C_1 
REMARK    2  A    between atoms: C_3  and  C_1 
REMARK    3  A    between atoms: C_4  and  C_2 
REMARK    4  A    between atoms: C_8  and  C_3 
REMARK    5  A    between atoms: O_18  and  C_10 
ROOT
ATOM      1  C   UNL d   1      54.159  33.091  53.841  0.00  0.00     0.196 C 
ATOM      2  O   UNL d   1      54.971  33.114  53.690  0.00  0.00    -0.287 OA
ENDROOT
BRANCH   1   3
ATOM      3  C   UNL d   1      53.747  32.378  53.785  0.00  0.00     0.042 C 
BRANCH   3   4
ATOM      4  C   UNL d   1      53.942  31.612  53.542  0.00  0.00     0.003 C 
BRANCH   4   5
ATOM      5  C   UNL d   1      53.532  30.897  53.494  0.00  0.00     0.000 A 
ATOM      6  C   UNL d   1      53.706  30.292  54.030  0.00  0.00     0.003 A 
ATOM      7  C   UNL d   1      53.296  29.575  53.984  0.00  0.00     0.042 A 
ATOM      8  C   UNL d   1      52.719  29.471  53.404  0.00  0.00     0.196 A 
ATOM      9  C   UNL d   1      52.552  30.081  52.872  0.00  0.00     0.042 A 
ATOM     10  O   UNL d   1      52.309  28.756  53.356  0.00  0.00    -0.287 OA
ATOM     11  C   UNL d   1      52.955  30.790  52.917  0.00  0.00     0.003 A 
ENDBRANCH   4   5
ENDBRANCH   3   4
ENDBRANCH   1   3
BRANCH   1  12
ATOM     12  C   UNL d   1      53.770  33.794  54.048  0.00  0.00     0.039 A 
ATOM     13  C   UNL d   1      53.365  34.239  53.483  0.00  0.00     0.005 A 
ATOM     14  C   UNL d   1      52.984  34.936  53.704  0.00  0.00     0.024 A 
ATOM     15  C   UNL d   1      53.006  35.188  54.491  0.00  0.00     0.094 A 
ATOM     16  C   UNL d   1      53.417  34.734  55.059  0.00  0.00     0.024 A 
ATOM     17  C   UNL d   1      53.797  34.040  54.837  0.00  0.00     0.005 A 
BRANCH  15  18
ATOM     18  O   UNL d   1      52.624  35.885  54.712  0.00  0.00    -0.328 OA
ATOM     19  C   UNL d   1      53.067  36.554  54.904  0.00  0.00     0.181 C 
ENDBRANCH  15  18
ENDBRANCH   1  12
TORSDOF 5
ENDMDL
MODEL 5
REMARK VINA RESULT:      -8.1      2.452      3.911
REMARK  5 active torsions:
REMARK  status: ('A' for Active; 'I' for Inactive)
REMARK    1  A    between atoms: C_2  and  C_1 
REMARK    2  A    between atoms: C_3  and  C_1 
REMARK    3  A    between atoms: C_4  and  C_2 
REMARK    4  A    between atoms: C_8  and  C_3 
REMARK    5  A    between atoms: O_18  and  C_10 
ROOT
ATOM      1  C   UNL d   1      52.231  32.871  52.928  0.00  0.00     0.196 C 
ATOM      2  O   UNL d   1      52.370  32.208  52.454  0.00  0.00    -0.287 OA
ENDROOT
BRANCH   1   3
ATOM      3  C   UNL d   1      52.739  33.045  53.555  0.00  0.00     0.042 C 
BRANCH   3   4
ATOM      4  C   UNL d   1      53.501  32.804  53.769  0.00  0.00     0.003 C 
BRANCH   4   5
ATOM      5  C   UNL d   1      54.079  33.096  54.280  0.00  0.00     0.000 A 
ATOM      6  C   UNL d   1      54.756  33.454  53.966  0.00  0.00     0.003 A 
ATOM      7  C   UNL d   1      55.337  33.748  54.476  0.00  0.00     0.042 A 
ATOM      8  C   UNL d   1      55.236  33.682  55.292  0.00  0.00     0.196 A 
ATOM      9  C   UNL d   1      54.557  33.323  55.597  0.00  0.00     0.042 A 
ATOM     10  O   UNL d   1      55.814  33.974  55.803  0.00  0.00    -0.287 OA
ATOM     11  C   UNL d   1      53.982  33.032  55.095  0.00  0.00     0.003 A 
ENDBRANCH   4   5
ENDBRANCH   3   4
ENDBRANCH   1   3
BRANCH   1  12
ATOM     12  C   UNL d   1      51.576  33.353  52.763  0.00  0.00     0.039 A 
ATOM     13  C   UNL d   1      51.590  33.889  52.137  0.00  0.00     0.005 A 
ATOM     14  C   UNL d   1      50.931  34.361  51.986  0.00  0.00     0.024 A 
ATOM     15  C   UNL d   1      50.257  34.297  52.461  0.00  0.00     0.094 A 
ATOM     16  C   UNL d   1      50.249  33.752  53.094  0.00  0.00     0.024 A 
ATOM     17  C   UNL d   1      50.906  33.282  53.243  0.00  0.00     0.005 A 
BRANCH  15  18
ATOM     18  O   UNL d   1      49.598  34.769  52.309  0.00  0.00    -0.328 OA
ATOM     19  C   UNL d   1      49.206  35.140  52.933  0.00  0.00     0.181 C 
ENDBRANCH  15  18
ENDBRANCH   1  12
TORSDOF 5
ENDMDL
MODEL 6
REMARK VINA RESULT:      -7.3      2.418      3.457
REMARK  5 active torsions:
REMARK  status: ('A' for Active; 'I' for Inactive)
REMARK    1  A    between atoms: C_2  and  C_1 
REMARK    2  A    between atoms: C_3  and  C_1 
REMARK    3  A    between atoms: C_4  and  C_2 
REMARK    4  A    between atoms: C_8  and  C_3 
REMARK    5  A    between atoms: O_18  and  C_10 
ROOT
ATOM      1  C   UNL d   1      52.529  32.855  53.006  0.00  0.00     0.196 C 
ATOM      2  O   UNL d   1      52.501  32.192  52.513  0.00  0.00    -0.287 OA
ENDROOT
BRANCH   1   3
ATOM      3  C   UNL d   1      51.913  33.404  52.997  0.00  0.00     0.042 C 
BRANCH   3   4
ATOM      4  C   UNL d   1      51.410  33.704  52.412  0.00  0.00     0.003 C 
BRANCH   4   5
ATOM      5  C   UNL d   1      50.692  34.110  52.417  0.00  0.00     0.000 A 
ATOM      6  C   UNL d   1      50.449  34.498  53.106  0.00  0.00     0.003 A 
ATOM      7  C   UNL d   1      49.729  34.905  53.114  0.00  0.00     0.042 A 
ATOM      8  C   UNL d   1      49.261  34.920  52.435  0.00  0.00     0.196 A 
ATOM      9  C   UNL d   1      49.512  34.530  51.750  0.00  0.00     0.042 A 
ATOM     10  O   UNL d   1      48.543  35.326  52.439  0.00  0.00    -0.287 OA
ATOM     11  C   UNL d   1      50.223  34.127  51.742  0.00  0.00     0.003 A 
ENDBRANCH   4   5
ENDBRANCH   3   4
ENDBRANCH   1   3
BRANCH   1  12
ATOM     12  C   UNL d   1      53.183  32.955  53.507  0.00  0.00     0.039 A 
ATOM     13  C   UNL d   1      53.087  33.208  54.286  0.00  0.00     0.005 A 
ATOM     14  C   UNL d   1      53.747  33.303  54.771  0.00  0.00     0.024 A 
ATOM     15  C   UNL d   1      54.504  33.145  54.477  0.00  0.00     0.094 A 
ATOM     16  C   UNL d   1      54.594  32.888  53.687  0.00  0.00     0.024 A 
ATOM     17  C   UNL d   1      53.936  32.794  53.205  0.00  0.00     0.005 A 
BRANCH  15  18
ATOM     18  O   UNL d   1      55.164  33.240  54.962  0.00  0.00    -0.328 OA
ATOM     19  C   UNL d   1      55.212  33.888  55.469  0.00  0.00     0.181 C 
ENDBRANCH  15  18
ENDBRANCH   1  12
TORSDOF 5
ENDMDL
MODEL 7
REMARK VINA RESULT:      -7.1      3.059      4.414
REMARK  5 active torsions:
REMARK  status: ('A' for Active; 'I' for Inactive)
REMARK    1  A    between atoms: C_2  and  C_1 
REMARK    2  A    between atoms: C_3  and  C_1 
REMARK    3  A    between atoms: C_4  and  C_2 
REMARK    4  A    between atoms: C_8  and  C_3 
REMARK    5  A    between atoms: O_18  and  C_10 
ROOT
ATOM      1  C   UNL d   1      51.392  34.199  52.513  0.00  0.00     0.196 C 
ATOM      2  O   UNL d   1      51.575  33.968  51.741  0.00  0.00    -0.287 OA
ENDROOT
BRANCH   1   3
ATOM      3  C   UNL d   1      50.635  34.475  52.694  0.00  0.00     0.042 C 
BRANCH   3   4
ATOM      4  C   UNL d   1      49.897  34.431  52.325  0.00  0.00     0.003 C 
BRANCH   4   5
ATOM      5  C   UNL d   1      49.210  34.889  52.344  0.00  0.00     0.000 A 
ATOM      6  C   UNL d   1      48.731  34.932  51.672  0.00  0.00     0.003 A 
ATOM      7  C   UNL d   1      48.043  35.390  51.689  0.00  0.00     0.042 A 
ATOM      8  C   UNL d   1      47.841  35.799  52.377  0.00  0.00     0.196 A 
ATOM      9  C   UNL d   1      48.326  35.749  53.045  0.00  0.00     0.042 A 
ATOM     10  O   UNL d   1      47.155  36.256  52.398  0.00  0.00    -0.287 OA
ATOM     11  C   UNL d   1      49.006  35.297  53.029  0.00  0.00     0.003 A 
ENDBRANCH   4   5
ENDBRANCH   3   4
ENDBRANCH   1   3
BRANCH   1  12
ATOM     12  C   UNL d   1      51.979  34.148  53.097  0.00  0.00     0.039 A 
ATOM     13  C   UNL d   1      52.122  33.440  53.496  0.00  0.00     0.005 A 
ATOM     14  C   UNL d   1      52.709  33.405  54.074  0.00  0.00     0.024 A 
ATOM     15  C   UNL d   1      53.154  34.078  54.254  0.00  0.00     0.094 A 
ATOM     16  C   UNL d   1      53.005  34.792  53.847  0.00  0.00     0.024 A 
ATOM     17  C   UNL d   1      52.420  34.825  53.271  0.00  0.00     0.005 A 
BRANCH  15  18
ATOM     18  O   UNL d   1      53.741  34.043  54.832  0.00  0.00    -0.328 OA
ATOM     19  C   UNL d   1      54.113  33.326  54.997  0.00  0.00     0.181 C 
ENDBRANCH  15  18
ENDBRANCH   1  12
TORSDOF 5
ENDMDL
