MODEL 1
REMARK VINA RESULT:      -3.2      0.000      0.000
REMARK  4 active torsions:
REMARK  status: ('A' for Active; 'I' for Inactive)
REMARK    1  A    between atoms: C_11  and  C_9 
REMARK       I    between atoms: N_17  and  C_11 
REMARK    2  A    between atoms: C_19  and  N_17 
REMARK    3  A    between atoms: C_20  and  C_19 
REMARK    4  A    between atoms: C_21  and  C_20 
ROOT
ATOM      1  C   UNL d   1      33.160  20.889 -21.283  0.00  0.00     0.081 A 
ATOM      2  C   UNL d   1      33.121  21.376 -21.948  0.00  0.00     0.117 A 
ATOM      3  N   UNL d   1      33.122  21.037 -22.703  0.00  0.00    -0.221 NA
ATOM      4  N   UNL d   1      33.201  19.739 -22.124  0.00  0.00    -0.258 N 
ATOM      5  C   UNL d   1      33.162  20.219 -22.792  0.00  0.00     0.151 A 
ATOM      6  C   UNL d   1      33.201  20.065 -21.362  0.00  0.00     0.268 A 
ATOM      7  C   UNL d   1      33.150  21.374 -20.612  0.00  0.00     0.018 A 
ATOM      8  S   UNL d   1      33.087  22.152 -21.688  0.00  0.00    -0.063 SA
ATOM      9  C   UNL d   1      33.105  22.153 -20.865  0.00  0.00     0.089 A 
ATOM     10  C   UNL d   1      33.162  19.891 -23.535  0.00  0.00     0.035 A 
ATOM     11  C   UNL d   1      33.241  18.917 -22.206  0.00  0.00     0.084 A 
ATOM     12  O   UNL d   1      33.239  19.586 -20.702  0.00  0.00    -0.267 OA
ATOM     13  C   UNL d   1      33.241  18.595 -22.964  0.00  0.00     0.019 A 
ATOM     14  C   UNL d   1      33.202  19.082 -23.628  0.00  0.00     0.004 A 
ATOM     15  C   UNL d   1      33.123  20.382 -24.198  0.00  0.00     0.003 C 
ENDROOT
BRANCH   9  16
ATOM     16  C   UNL d   1      33.082  22.817 -20.377  0.00  0.00     0.285 C 
ATOM     17  O   UNL d   1      33.239  23.564 -20.687  0.00  0.00    -0.265 OA
ATOM     18  N   UNL d   1      32.900  22.736 -19.577  0.00  0.00    -0.206 NA
BRANCH  18  19
ATOM     19  C   UNL d   1      32.877  23.401 -19.089  0.00  0.00     0.102 C 
BRANCH  19  20
ATOM     20  C   UNL d   1      32.514  23.366 -18.363  0.00  0.00     0.021 C 
BRANCH  20  21
ATOM     21  C   UNL d   1      32.947  23.510 -17.667  0.00  0.00     0.002 C 
ATOM     22  C   UNL d   1      32.575  23.518 -16.938  0.00  0.00     0.000 C 
ENDBRANCH  20  21
ENDBRANCH  19  20
ENDBRANCH  18  19
ENDBRANCH   9  16
TORSDOF 4
ENDMDL
MODEL 2
REMARK VINA RESULT:      -2.9      1.369      4.799
REMARK  4 active torsions:
REMARK  status: ('A' for Active; 'I' for Inactive)
REMARK    1  A    between atoms: C_11  and  C_9 
REMARK       I    between atoms: N_17  and  C_11 
REMARK    2  A    between atoms: C_19  and  N_17 
REMARK    3  A    between atoms: C_20  and  C_19 
REMARK    4  A    between atoms: C_21  and  C_20 
ROOT
ATOM      1  C   UNL d   1      33.150  20.736 -21.433  0.00  0.00     0.081 A 
ATOM      2  C   UNL d   1      33.130  21.262 -22.068  0.00  0.00     0.117 A 
ATOM      3  N   UNL d   1      33.130  22.077 -21.923  0.00  0.00    -0.221 NA
ATOM      4  N   UNL d   1      33.169  21.830 -20.521  0.00  0.00    -0.258 N 
ATOM      5  C   UNL d   1      33.149  22.362 -21.150  0.00  0.00     0.151 A 
ATOM      6  C   UNL d   1      33.170  21.013 -20.652  0.00  0.00     0.268 A 
ATOM      7  C   UNL d   1      33.146  19.967 -21.741  0.00  0.00     0.018 A 
ATOM      8  S   UNL d   1      33.114  20.821 -22.758  0.00  0.00    -0.063 SA
ATOM      9  C   UNL d   1      33.123  20.023 -22.559  0.00  0.00     0.089 A 
ATOM     10  C   UNL d   1      33.149  23.163 -21.012  0.00  0.00     0.035 A 
ATOM     11  C   UNL d   1      33.189  22.110 -19.743  0.00  0.00     0.084 A 
ATOM     12  O   UNL d   1      33.190  20.488 -20.026  0.00  0.00    -0.267 OA
ATOM     13  C   UNL d   1      33.188  22.923 -19.615  0.00  0.00     0.019 A 
ATOM     14  C   UNL d   1      33.168  23.449 -20.249  0.00  0.00     0.004 A 
ATOM     15  C   UNL d   1      33.129  23.686 -21.650  0.00  0.00     0.003 C 
ENDROOT
BRANCH   9  16
ATOM     16  C   UNL d   1      33.112  19.388 -23.085  0.00  0.00     0.285 C 
ATOM     17  O   UNL d   1      33.239  19.515 -23.888  0.00  0.00    -0.265 OA
ATOM     18  N   UNL d   1      32.974  18.624 -22.808  0.00  0.00    -0.206 NA
BRANCH  18  19
ATOM     19  C   UNL d   1      32.963  17.989 -23.334  0.00  0.00     0.102 C 
BRANCH  19  20
ATOM     20  C   UNL d   1      32.560  17.308 -23.150  0.00  0.00     0.021 C 
BRANCH  20  21
ATOM     21  C   UNL d   1      32.503  16.688 -23.703  0.00  0.00     0.002 C 
ATOM     22  C   UNL d   1      32.075  16.013 -23.530  0.00  0.00     0.000 C 
ENDBRANCH  20  21
ENDBRANCH  19  20
ENDBRANCH  18  19
ENDBRANCH   9  16
TORSDOF 4
ENDMDL
MODEL 3
REMARK VINA RESULT:      -1.8      1.070      4.936
REMARK  4 active torsions:
REMARK  status: ('A' for Active; 'I' for Inactive)
REMARK    1  A    between atoms: C_11  and  C_9 
REMARK       I    between atoms: N_17  and  C_11 
REMARK    2  A    between atoms: C_19  and  N_17 
REMARK    3  A    between atoms: C_20  and  C_19 
REMARK    4  A    between atoms: C_21  and  C_20 
ROOT
ATOM      1  C   UNL d   1      32.911  22.178 -21.000  0.00  0.00     0.081 A 
ATOM      2  C   UNL d   1      33.085  21.501 -20.561  0.00  0.00     0.117 A 
ATOM      3  N   UNL d   1      33.136  21.551 -19.737  0.00  0.00    -0.221 NA
ATOM      4  N   UNL d   1      32.842  22.943 -19.800  0.00  0.00    -0.258 N 
ATOM      5  C   UNL d   1      33.015  22.271 -19.355  0.00  0.00     0.151 A 
ATOM      6  C   UNL d   1      32.788  22.907 -20.625  0.00  0.00     0.268 A 
ATOM      7  C   UNL d   1      32.896  21.965 -21.800  0.00  0.00     0.018 A 
ATOM      8  S   UNL d   1      33.174  20.879 -21.086  0.00  0.00    -0.063 SA
ATOM      9  C   UNL d   1      33.059  21.163 -21.850  0.00  0.00     0.089 A 
ATOM     10  C   UNL d   1      33.066  22.316 -18.545  0.00  0.00     0.035 A 
ATOM     11  C   UNL d   1      32.720  23.669 -19.423  0.00  0.00     0.084 A 
ATOM     12  O   UNL d   1      32.617  23.576 -21.063  0.00  0.00    -0.267 OA
ATOM     13  C   UNL d   1      32.774  23.702 -18.602  0.00  0.00     0.019 A 
ATOM     14  C   UNL d   1      32.947  23.026 -18.163  0.00  0.00     0.004 A 
ATOM     15  C   UNL d   1      33.239  21.636 -18.110  0.00  0.00     0.003 C 
ENDROOT
BRANCH   9  16
ATOM     16  C   UNL d   1      33.098  20.722 -22.546  0.00  0.00     0.285 C 
ATOM     17  O   UNL d   1      33.224  21.098 -23.267  0.00  0.00    -0.265 OA
ATOM     18  N   UNL d   1      33.012  19.903 -22.521  0.00  0.00    -0.206 NA
BRANCH  18  19
ATOM     19  C   UNL d   1      33.052  19.462 -23.217  0.00  0.00     0.102 C 
BRANCH  19  20
ATOM     20  C   UNL d   1      32.985  18.652 -23.197  0.00  0.00     0.021 C 
BRANCH  20  21
ATOM     21  C   UNL d   1      32.854  18.221 -23.897  0.00  0.00     0.002 C 
ATOM     22  C   UNL d   1      32.837  17.403 -23.886  0.00  0.00     0.000 C 
ENDBRANCH  20  21
ENDBRANCH  19  20
ENDBRANCH  18  19
ENDBRANCH   9  16
TORSDOF 4
ENDMDL
MODEL 4
REMARK VINA RESULT:      -1.6      2.724      4.251
REMARK  4 active torsions:
REMARK  status: ('A' for Active; 'I' for Inactive)
REMARK    1  A    between atoms: C_11  and  C_9 
REMARK       I    between atoms: N_17  and  C_11 
REMARK    2  A    between atoms: C_19  and  N_17 
REMARK    3  A    between atoms: C_20  and  C_19 
REMARK    4  A    between atoms: C_21  and  C_20 
ROOT
ATOM      1  C   UNL d   1      31.874  18.000 -23.573  0.00  0.00     0.081 A 
ATOM      2  C   UNL d   1      32.623  17.654 -23.549  0.00  0.00     0.117 A 
ATOM      3  N   UNL d   1      32.749  16.926 -23.922  0.00  0.00    -0.221 NA
ATOM      4  N   UNL d   1      31.386  16.899 -24.336  0.00  0.00    -0.258 N 
ATOM      5  C   UNL d   1      32.132  16.548 -24.316  0.00  0.00     0.151 A 
ATOM      6  C   UNL d   1      31.246  17.627 -23.966  0.00  0.00     0.268 A 
ATOM      7  C   UNL d   1      31.911  18.715 -23.158  0.00  0.00     0.018 A 
ATOM      8  S   UNL d   1      33.115  18.153 -23.124  0.00  0.00    -0.063 SA
ATOM      9  C   UNL d   1      32.678  18.807 -22.883  0.00  0.00     0.089 A 
ATOM     10  C   UNL d   1      32.260  15.834 -24.681  0.00  0.00     0.035 A 
ATOM     11  C   UNL d   1      30.762  16.525 -24.729  0.00  0.00     0.084 A 
ATOM     12  O   UNL d   1      30.506  17.972 -23.988  0.00  0.00    -0.267 OA
ATOM     13  C   UNL d   1      30.904  15.801 -25.096  0.00  0.00     0.019 A 
ATOM     14  C   UNL d   1      31.652  15.456 -25.072  0.00  0.00     0.004 A 
ATOM     15  C   UNL d   1      33.010  15.492 -24.655  0.00  0.00     0.003 C 
ENDROOT
BRANCH   9  16
ATOM     16  C   UNL d   1      32.959  19.445 -22.441  0.00  0.00     0.285 C 
ATOM     17  O   UNL d   1      33.237  19.327 -21.676  0.00  0.00    -0.265 OA
ATOM     18  N   UNL d   1      32.960  20.202 -22.765  0.00  0.00    -0.206 NA
BRANCH  18  19
ATOM     19  C   UNL d   1      33.240  20.840 -22.323  0.00  0.00     0.102 C 
BRANCH  19  20
ATOM     20  C   UNL d   1      32.872  21.563 -22.364  0.00  0.00     0.021 C 
BRANCH  20  21
ATOM     21  C   UNL d   1      33.226  22.238 -22.027  0.00  0.00     0.002 C 
ATOM     22  C   UNL d   1      32.767  22.830 -21.699  0.00  0.00     0.000 C 
ENDBRANCH  20  21
ENDBRANCH  19  20
ENDBRANCH  18  19
ENDBRANCH   9  16
TORSDOF 4
ENDMDL
MODEL 5
REMARK VINA RESULT:      -1.0      4.552      6.030
REMARK  4 active torsions:
REMARK  status: ('A' for Active; 'I' for Inactive)
REMARK    1  A    between atoms: C_11  and  C_9 
REMARK       I    between atoms: N_17  and  C_11 
REMARK    2  A    between atoms: C_19  and  N_17 
REMARK    3  A    between atoms: C_20  and  C_19 
REMARK    4  A    between atoms: C_21  and  C_20 
ROOT
ATOM      1  C   UNL d   1      31.021  16.786 -23.664  0.00  0.00     0.081 A 
ATOM      2  C   UNL d   1      30.573  17.329 -24.095  0.00  0.00     0.117 A 
ATOM      3  N   UNL d   1      29.748  17.262 -24.101  0.00  0.00    -0.221 NA
ATOM      4  N   UNL d   1      29.830  16.121 -23.254  0.00  0.00    -0.258 N 
ATOM      5  C   UNL d   1      29.375  16.659 -23.682  0.00  0.00     0.151 A 
ATOM      6  C   UNL d   1      30.656  16.176 -23.239  0.00  0.00     0.268 A 
ATOM      7  C   UNL d   1      31.819  16.986 -23.758  0.00  0.00     0.018 A 
ATOM      8  S   UNL d   1      31.090  17.856 -24.449  0.00  0.00    -0.063 SA
ATOM      9  C   UNL d   1      31.858  17.646 -24.243  0.00  0.00     0.089 A 
ATOM     10  C   UNL d   1      28.565  16.598 -23.691  0.00  0.00     0.035 A 
ATOM     11  C   UNL d   1      29.462  15.513 -22.830  0.00  0.00     0.084 A 
ATOM     12  O   UNL d   1      31.103  15.640 -22.814  0.00  0.00    -0.267 OA
ATOM     13  C   UNL d   1      28.640  15.460 -22.847  0.00  0.00     0.019 A 
ATOM     14  C   UNL d   1      28.192  16.002 -23.277  0.00  0.00     0.004 A 
ATOM     15  C   UNL d   1      28.120  17.142 -24.123  0.00  0.00     0.003 C 
ENDROOT
BRANCH   9  16
ATOM     16  C   UNL d   1      32.549  18.030 -24.479  0.00  0.00     0.285 C 
ATOM     17  O   UNL d   1      33.240  17.599 -24.600  0.00  0.00    -0.265 OA
ATOM     18  N   UNL d   1      32.550  18.846 -24.595  0.00  0.00    -0.206 NA
BRANCH  18  19
ATOM     19  C   UNL d   1      33.241  19.230 -24.831  0.00  0.00     0.102 C 
BRANCH  19  20
ATOM     20  C   UNL d   1      33.216  19.997 -25.097  0.00  0.00     0.021 C 
BRANCH  20  21
ATOM     21  C   UNL d   1      32.992  20.614 -24.584  0.00  0.00     0.002 C 
ATOM     22  C   UNL d   1      33.236  21.382 -24.725  0.00  0.00     0.000 C 
ENDBRANCH  20  21
ENDBRANCH  19  20
ENDBRANCH  18  19
ENDBRANCH   9  16
TORSDOF 4
ENDMDL
MODEL 6
REMARK VINA RESULT:      -0.3      1.566      2.320
REMARK  4 active torsions:
REMARK  status: ('A' for Active; 'I' for Inactive)
REMARK    1  A    between atoms: C_11  and  C_9 
REMARK       I    between atoms: N_17  and  C_11 
REMARK    2  A    between atoms: C_19  and  N_17 
REMARK    3  A    between atoms: C_20  and  C_19 
REMARK    4  A    between atoms: C_21  and  C_20 
ROOT
ATOM      1  C   UNL d   1      32.740  22.263 -20.281  0.00  0.00     0.081 A 
ATOM      2  C   UNL d   1      32.655  23.042 -20.539  0.00  0.00     0.117 A 
ATOM      3  N   UNL d   1      32.695  23.211 -21.348  0.00  0.00    -0.221 NA
ATOM      4  N   UNL d   1      32.903  21.830 -21.629  0.00  0.00    -0.258 N 
ATOM      5  C   UNL d   1      32.819  22.606 -21.894  0.00  0.00     0.151 A 
ATOM      6  C   UNL d   1      32.865  21.647 -20.822  0.00  0.00     0.268 A 
ATOM      7  C   UNL d   1      32.676  22.260 -19.456  0.00  0.00     0.018 A 
ATOM      8  S   UNL d   1      32.540  23.513 -19.879  0.00  0.00    -0.063 SA
ATOM      9  C   UNL d   1      32.553  23.033 -19.210  0.00  0.00     0.089 A 
ATOM     10  C   UNL d   1      32.858  22.777 -22.687  0.00  0.00     0.035 A 
ATOM     11  C   UNL d   1      33.028  21.219 -22.171  0.00  0.00     0.084 A 
ATOM     12  O   UNL d   1      32.949  20.877 -20.563  0.00  0.00    -0.267 OA
ATOM     13  C   UNL d   1      33.065  21.403 -22.973  0.00  0.00     0.019 A 
ATOM     14  C   UNL d   1      32.981  22.181 -23.231  0.00  0.00     0.004 A 
ATOM     15  C   UNL d   1      32.773  23.557 -22.941  0.00  0.00     0.003 C 
ENDROOT
BRANCH   9  16
ATOM     16  C   UNL d   1      32.459  23.282 -18.429  0.00  0.00     0.285 C 
ATOM     17  O   UNL d   1      31.724  23.540 -18.164  0.00  0.00    -0.265 OA
ATOM     18  N   UNL d   1      33.101  23.272 -17.913  0.00  0.00    -0.206 NA
BRANCH  18  19
ATOM     19  C   UNL d   1      33.006  23.520 -17.131  0.00  0.00     0.102 C 
BRANCH  19  20
ATOM     20  C   UNL d   1      33.235  23.041 -16.517  0.00  0.00     0.021 C 
BRANCH  20  21
ATOM     21  C   UNL d   1      32.989  23.208 -15.738  0.00  0.00     0.002 C 
ATOM     22  C   UNL d   1      33.017  22.629 -15.160  0.00  0.00     0.000 C 
ENDBRANCH  20  21
ENDBRANCH  19  20
ENDBRANCH  18  19
ENDBRANCH   9  16
TORSDOF 4
ENDMDL
