MODEL 1
REMARK VINA RESULT:      -9.2      0.000      0.000
REMARK  3 active torsions:
REMARK  status: ('A' for Active; 'I' for Inactive)
REMARK    1  A    between atoms: C_2  and  S_1 
REMARK    2  A    between atoms: N_3  and  S_1 
REMARK    3  A    between atoms: C_9  and  N_3 
ROOT
ATOM      1  S   UNL d   1      54.005  32.330  54.076  0.00  0.00     0.285 S 
ATOM      2  O   UNL d   1      53.764  32.140  54.836  0.00  0.00    -0.198 OA
ATOM      3  O   UNL d   1      54.247  32.524  53.311  0.00  0.00    -0.198 OA
ENDROOT
BRANCH   1   4
ATOM      4  C   UNL d   1      53.673  33.083  54.160  0.00  0.00     0.105 A 
ATOM      5  C   UNL d   1      52.963  33.265  53.787  0.00  0.00     0.013 A 
ATOM      6  C   UNL d   1      52.633  34.009  53.867  0.00  0.00     0.001 A 
ATOM      7  C   UNL d   1      51.917  34.194  53.493  0.00  0.00     0.000 C 
ATOM      8  C   UNL d   1      53.011  34.584  54.325  0.00  0.00     0.000 A 
ATOM      9  C   UNL d   1      53.724  34.402  54.700  0.00  0.00     0.001 A 
ATOM     10  C   UNL d   1      52.683  35.338  54.411  0.00  0.00     0.000 C 
ATOM     11  C   UNL d   1      54.058  33.650  54.618  0.00  0.00     0.012 A 
ATOM     12  C   UNL d   1      54.768  33.472  54.992  0.00  0.00     0.001 C 
ENDBRANCH   1   4
BRANCH   1  13
ATOM     13  N   UNL d   1      54.338  31.577  53.990  0.00  0.00    -0.159 NA
BRANCH  13  14
ATOM     14  C   UNL d   1      53.853  30.928  53.873  0.00  0.00     0.089 A 
ATOM     15  C   UNL d   1      53.731  30.384  54.483  0.00  0.00     0.015 A 
ATOM     16  C   UNL d   1      53.246  29.733  54.369  0.00  0.00     0.100 A 
ATOM     17  C   UNL d   1      52.898  29.046  54.657  0.00  0.00     0.029 C 
ATOM     18  C   UNL d   1      53.393  29.492  55.141  0.00  0.00     0.029 C 
ATOM     19  N   UNL d   1      52.879  29.619  53.644  0.00  0.00    -0.295 NA
ATOM     20  C   UNL d   1      52.995  30.156  53.031  0.00  0.00     0.100 A 
ATOM     21  C   UNL d   1      53.480  30.808  53.146  0.00  0.00     0.015 A 
ATOM     22  C   UNL d   1      52.851  30.402  52.258  0.00  0.00     0.029 C 
ATOM     23  C   UNL d   1      52.498  29.709  52.545  0.00  0.00     0.029 C 
ENDBRANCH  13  14
ENDBRANCH   1  13
TORSDOF 3
ENDMDL
MODEL 2
REMARK VINA RESULT:      -9.1      1.143      4.134
REMARK  3 active torsions:
REMARK  status: ('A' for Active; 'I' for Inactive)
REMARK    1  A    between atoms: C_2  and  S_1 
REMARK    2  A    between atoms: N_3  and  S_1 
REMARK    3  A    between atoms: C_9  and  N_3 
ROOT
ATOM      1  S   UNL d   1      53.195  31.529  53.131  0.00  0.00     0.285 S 
ATOM      2  O   UNL d   1      52.402  31.413  52.965  0.00  0.00    -0.198 OA
ATOM      3  O   UNL d   1      53.996  31.642  53.300  0.00  0.00    -0.198 OA
ENDROOT
BRANCH   1   4
ATOM      4  C   UNL d   1      53.216  30.806  53.532  0.00  0.00     0.105 A 
ATOM      5  C   UNL d   1      53.292  30.790  54.351  0.00  0.00     0.013 A 
ATOM      6  C   UNL d   1      53.312  30.076  54.750  0.00  0.00     0.001 A 
ATOM      7  C   UNL d   1      53.388  30.058  55.574  0.00  0.00     0.000 C 
ATOM      8  C   UNL d   1      53.257  29.365  54.333  0.00  0.00     0.000 A 
ATOM      9  C   UNL d   1      53.181  29.380  53.510  0.00  0.00     0.001 A 
ATOM     10  C   UNL d   1      53.277  28.640  54.729  0.00  0.00     0.000 C 
ATOM     11  C   UNL d   1      53.160  30.101  53.106  0.00  0.00     0.012 A 
ATOM     12  C   UNL d   1      53.084  30.114  52.288  0.00  0.00     0.001 C 
ENDBRANCH   1   4
BRANCH   1  13
ATOM     13  N   UNL d   1      53.178  32.253  52.730  0.00  0.00    -0.159 NA
BRANCH  13  14
ATOM     14  C   UNL d   1      52.878  32.918  53.103  0.00  0.00     0.089 A 
ATOM     15  C   UNL d   1      52.107  33.170  52.947  0.00  0.00     0.015 A 
ATOM     16  C   UNL d   1      51.804  33.835  53.318  0.00  0.00     0.100 A 
ATOM     17  C   UNL d   1      51.184  34.361  53.440  0.00  0.00     0.029 C 
ATOM     18  C   UNL d   1      51.093  33.731  52.918  0.00  0.00     0.029 C 
ATOM     19  N   UNL d   1      52.269  34.254  53.848  0.00  0.00    -0.295 NA
ATOM     20  C   UNL d   1      53.038  34.010  54.008  0.00  0.00     0.100 A 
ATOM     21  C   UNL d   1      53.341  33.344  53.637  0.00  0.00     0.015 A 
ATOM     22  C   UNL d   1      53.753  34.110  54.407  0.00  0.00     0.029 C 
ATOM     23  C   UNL d   1      53.130  34.643  54.533  0.00  0.00     0.029 C 
ENDBRANCH  13  14
ENDBRANCH   1  13
TORSDOF 3
ENDMDL
MODEL 3
REMARK VINA RESULT:      -8.4      1.645      3.012
REMARK  3 active torsions:
REMARK  status: ('A' for Active; 'I' for Inactive)
REMARK    1  A    between atoms: C_2  and  S_1 
REMARK    2  A    between atoms: N_3  and  S_1 
REMARK    3  A    between atoms: C_9  and  N_3 
ROOT
ATOM      1  S   UNL d   1      52.459  33.728  52.701  0.00  0.00     0.285 S 
ATOM      2  O   UNL d   1      52.275  33.030  52.313  0.00  0.00    -0.198 OA
ATOM      3  O   UNL d   1      52.641  34.432  53.093  0.00  0.00    -0.198 OA
ENDROOT
BRANCH   1   4
ATOM      4  C   UNL d   1      51.670  33.967  52.644  0.00  0.00     0.105 A 
ATOM      5  C   UNL d   1      51.163  33.877  53.285  0.00  0.00     0.013 A 
ATOM      6  C   UNL d   1      50.381  34.113  53.231  0.00  0.00     0.001 A 
ATOM      7  C   UNL d   1      49.870  34.023  53.876  0.00  0.00     0.000 C 
ATOM      8  C   UNL d   1      50.095  34.444  52.531  0.00  0.00     0.000 A 
ATOM      9  C   UNL d   1      50.603  34.535  51.885  0.00  0.00     0.001 A 
ATOM     10  C   UNL d   1      49.306  34.685  52.468  0.00  0.00     0.000 C 
ATOM     11  C   UNL d   1      51.393  34.297  51.940  0.00  0.00     0.012 A 
ATOM     12  C   UNL d   1      51.897  34.389  51.297  0.00  0.00     0.001 C 
ENDBRANCH   1   4
BRANCH   1  13
ATOM     13  N   UNL d   1      53.249  33.491  52.761  0.00  0.00    -0.159 NA
BRANCH  13  14
ATOM     14  C   UNL d   1      53.482  32.993  53.368  0.00  0.00     0.089 A 
ATOM     15  C   UNL d   1      53.787  33.307  54.069  0.00  0.00     0.015 A 
ATOM     16  C   UNL d   1      54.021  32.812  54.679  0.00  0.00     0.100 A 
ATOM     17  C   UNL d   1      54.331  32.712  55.433  0.00  0.00     0.029 C 
ATOM     18  C   UNL d   1      54.235  33.469  55.126  0.00  0.00     0.029 C 
ATOM     19  N   UNL d   1      53.951  31.999  54.595  0.00  0.00    -0.295 NA
ATOM     20  C   UNL d   1      53.648  31.679  53.900  0.00  0.00     0.100 A 
ATOM     21  C   UNL d   1      53.414  32.175  53.289  0.00  0.00     0.015 A 
ATOM     22  C   UNL d   1      53.432  31.024  53.448  0.00  0.00     0.029 C 
ATOM     23  C   UNL d   1      53.745  30.918  54.209  0.00  0.00     0.029 C 
ENDBRANCH  13  14
ENDBRANCH   1  13
TORSDOF 3
ENDMDL
