MODEL 1
REMARK VINA RESULT:      20.9      0.000      0.000
REMARK  6 active torsions:
REMARK  status: ('A' for Active; 'I' for Inactive)
REMARK    1  A    between atoms: C_2  and  S_1 
REMARK    2  A    between atoms: N_4  and  S_1 
REMARK    3  A    between atoms: C_18  and  N_4 
REMARK    4  A    between atoms: O_20  and  C_6 
REMARK    5  A    between atoms: C_19  and  C_18 
REMARK    6  A    between atoms: C_24  and  O_20 
ROOT
ATOM      1  S   UNL d   1      45.679 -15.714  44.586  0.00  0.00     0.327 S 
ATOM      2  O   UNL d   1      46.435 -15.420  44.396  0.00  0.00    -0.186 OA
ATOM      3  O   UNL d   1      44.930 -16.008  44.775  0.00  0.00    -0.186 OA
ENDROOT
BRANCH   1   4
ATOM      4  C   UNL d   1      45.356 -14.970  44.467  0.00  0.00     0.118 A 
ATOM      5  C   UNL d   1      45.820 -14.352  44.167  0.00  0.00     0.039 A 
ATOM      6  C   UNL d   1      45.497 -13.603  44.047  0.00  0.00     0.101 A 
ATOM      7  C   UNL d   1      44.697 -13.464  44.229  0.00  0.00     0.023 A 
ATOM      8  C   UNL d   1      44.233 -14.077  44.528  0.00  0.00     0.003 A 
ATOM      9  C   UNL d   1      44.368 -12.722  44.113  0.00  0.00     0.002 C 
ATOM     10  C   UNL d   1      44.556 -14.831  44.650  0.00  0.00     0.013 A 
ATOM     11  C   UNL d   1      44.088 -15.439  44.948  0.00  0.00     0.001 C 
BRANCH   6  12
ATOM     12  O   UNL d   1      45.960 -12.997  43.750  0.00  0.00    -0.305 OA
BRANCH  12  13
ATOM     13  C   UNL d   1      45.610 -12.407  43.301  0.00  0.00     0.123 C 
ATOM     14  C   UNL d   1      45.716 -12.409  42.483  0.00  0.00     0.029 C 
ENDBRANCH  12  13
ENDBRANCH   6  12
ENDBRANCH   1   4
BRANCH   1  15
ATOM     15  N   UNL d   1      46.000 -16.458  44.704  0.00  0.00    -0.314 NA
BRANCH  15  16
ATOM     16  C   UNL d   1      46.321 -17.209  44.821  0.00  0.00     0.176 C 
BRANCH  16  17
ATOM     17  C   UNL d   1      46.284 -17.781  44.222  0.00  0.00     0.035 A 
ATOM     18  C   UNL d   1      46.247 -18.579  44.412  0.00  0.00     0.029 A 
ATOM     19  C   UNL d   1      46.211 -19.147  43.814  0.00  0.00     0.119 A 
ATOM     20  O   UNL d   1      46.170 -19.974  43.839  0.00  0.00    -0.300 OA
ATOM     21  C   UNL d   1      46.210 -18.909  43.017  0.00  0.00     0.119 A 
ATOM     22  C   UNL d   1      46.145 -20.245  43.058  0.00  0.00     0.304 A 
ATOM     23  O   UNL d   1      46.170 -19.590  42.554  0.00  0.00    -0.300 OA
ATOM     24  C   UNL d   1      46.247 -18.106  42.829  0.00  0.00     0.026 A 
ATOM     25  C   UNL d   1      46.284 -17.543  43.425  0.00  0.00     0.005 A 
ENDBRANCH  16  17
ENDBRANCH  15  16
ENDBRANCH   1  15
TORSDOF 6
ENDMDL
