MODEL 1
REMARK VINA RESULT:      -3.5      0.000      0.000
REMARK  6 active torsions:
REMARK  status: ('A' for Active; 'I' for Inactive)
REMARK    1  A    between atoms: C_6  and  C_1 
REMARK    2  A    between atoms: N_8  and  C_5 
REMARK    3  A    between atoms: O_13  and  C_6 
REMARK       I    between atoms: C_7  and  N_8 
REMARK    4  A    between atoms: O_12  and  C_7 
REMARK    5  A    between atoms: C_16  and  O_12 
REMARK    6  A    between atoms: C_17  and  O_13 
ROOT
ATOM      1  C   UNL d   1     -41.434-122.726 -52.609  0.00  0.00     0.083 A 
ATOM      2  N   UNL d   1     -41.150-121.550 -51.848  0.00  0.00    -0.244 NA
ATOM      3  C   UNL d   1     -41.256-121.935 -52.583  0.00  0.00     0.087 A 
ATOM      4  C   UNL d   1     -41.513-123.165 -51.900  0.00  0.00     0.028 A 
ATOM      5  C   UNL d   1     -41.410-122.792 -51.172  0.00  0.00     0.104 A 
ATOM      6  C   UNL d   1     -41.229-121.987 -51.146  0.00  0.00     0.099 A 
ATOM      7  C   UNL d   1     -41.177-121.497 -53.285  0.00  0.00     0.021 C 
ATOM      8  C   UNL d   1     -41.123-121.603 -50.404  0.00  0.00     0.022 C 
ENDROOT
BRANCH   5   9
ATOM      9  N   UNL d   1     -41.488-123.230 -50.463  0.00  0.00    -0.184 NA
ATOM     10  C   UNL d   1     -42.233-123.310 -50.111  0.00  0.00     0.392 C 
ATOM     11  O   UNL d   1     -42.907-122.960 -50.452  0.00  0.00    -0.236 OA
BRANCH  10  12
ATOM     12  O   UNL d   1     -42.317-123.744 -49.406  0.00  0.00    -0.256 OA
BRANCH  12  13
ATOM     13  C   UNL d   1     -43.002-123.685 -48.954  0.00  0.00     0.128 C 
ATOM     14  C   UNL d   1     -42.981-123.816 -48.145  0.00  0.00     0.029 C 
ENDBRANCH  12  13
ENDBRANCH  10  12
ENDBRANCH   5   9
BRANCH   1  15
ATOM     15  C   UNL d   1     -41.538-123.106 -53.332  0.00  0.00     0.302 C 
ATOM     16  O   UNL d   1     -41.140-123.810 -53.495  0.00  0.00    -0.259 OA
BRANCH  15  17
ATOM     17  O   UNL d   1     -42.045-122.776 -53.890  0.00  0.00    -0.271 OA
BRANCH  17  18
ATOM     18  C   UNL d   1     -41.964-122.987 -54.681  0.00  0.00     0.126 C 
ATOM     19  C   UNL d   1     -42.429-122.612 -55.247  0.00  0.00     0.029 C 
ENDBRANCH  17  18
ENDBRANCH  15  17
ENDBRANCH   1  15
TORSDOF 6
ENDMDL
MODEL 2
REMARK VINA RESULT:      -3.0      1.547      4.176
REMARK  6 active torsions:
REMARK  status: ('A' for Active; 'I' for Inactive)
REMARK    1  A    between atoms: C_6  and  C_1 
REMARK    2  A    between atoms: N_8  and  C_5 
REMARK    3  A    between atoms: O_13  and  C_6 
REMARK       I    between atoms: C_7  and  N_8 
REMARK    4  A    between atoms: O_12  and  C_7 
REMARK    5  A    between atoms: C_16  and  O_12 
REMARK    6  A    between atoms: C_17  and  O_13 
ROOT
ATOM      1  C   UNL d   1     -41.505-122.450 -51.783  0.00  0.00     0.083 A 
ATOM      2  N   UNL d   1     -41.308-123.722 -52.407  0.00  0.00    -0.244 NA
ATOM      3  C   UNL d   1     -41.425-123.256 -51.721  0.00  0.00     0.087 A 
ATOM      4  C   UNL d   1     -41.471-122.079 -52.533  0.00  0.00     0.028 A 
ATOM      5  C   UNL d   1     -41.356-122.532 -53.212  0.00  0.00     0.104 A 
ATOM      6  C   UNL d   1     -41.275-123.351 -53.149  0.00  0.00     0.099 A 
ATOM      7  C   UNL d   1     -41.459-123.628 -50.979  0.00  0.00     0.021 C 
ATOM      8  C   UNL d   1     -41.158-123.817 -53.841  0.00  0.00     0.022 C 
ENDROOT
BRANCH   5   9
ATOM      9  N   UNL d   1     -41.322-122.161 -53.962  0.00  0.00    -0.184 NA
ATOM     10  C   UNL d   1     -42.009-121.835 -54.288  0.00  0.00     0.392 C 
ATOM     11  O   UNL d   1     -42.735-121.870 -53.882  0.00  0.00    -0.236 OA
BRANCH  10  12
ATOM     12  O   UNL d   1     -41.981-121.464 -55.033  0.00  0.00    -0.256 OA
BRANCH  12  13
ATOM     13  C   UNL d   1     -42.092-121.898 -55.723  0.00  0.00     0.128 C 
ATOM     14  C   UNL d   1     -42.263-121.521 -56.431  0.00  0.00     0.029 C 
ENDBRANCH  12  13
ENDBRANCH  10  12
ENDBRANCH   5   9
BRANCH   1  15
ATOM     15  C   UNL d   1     -41.620-121.991 -51.110  0.00  0.00     0.302 C 
ATOM     16  O   UNL d   1     -42.210-122.187 -50.567  0.00  0.00    -0.259 OA
BRANCH  15  17
ATOM     17  O   UNL d   1     -41.141-121.334 -50.985  0.00  0.00    -0.271 OA
BRANCH  17  18
ATOM     18  C   UNL d   1     -41.489-120.610 -50.807  0.00  0.00     0.126 C 
ATOM     19  C   UNL d   1     -41.123-119.916 -51.055  0.00  0.00     0.029 C 
ENDBRANCH  17  18
ENDBRANCH  15  17
ENDBRANCH   1  15
TORSDOF 6
ENDMDL
