MODEL 1
REMARK VINA RESULT:      -7.9      0.000      0.000
REMARK  2 active torsions:
REMARK  status: ('A' for Active; 'I' for Inactive)
REMARK    1  A    between atoms: N_5  and  C_1 
REMARK       I    between atoms: C_7  and  N_5 
REMARK    2  A    between atoms: C_11  and  C_7 
ROOT
ATOM      1  C   UNL d   1     -48.626  13.923  22.570  0.00  0.00     0.124 A 
ATOM      2  C   UNL d   1     -49.343  13.733  22.284  0.00  0.00     0.093 A 
ATOM      3  S   UNL d   1     -48.676  14.627  22.993  0.00  0.00    -0.067 SA
ATOM      4  C   UNL d   1     -49.881  14.308  22.512  0.00  0.00     0.018 A 
ATOM      5  C   UNL d   1     -49.453  14.882  22.967  0.00  0.00     0.032 A 
ATOM      6  C   UNL d   1     -49.530  13.037  21.810  0.00  0.00     0.103 C 
ATOM      7  N   UNL d   1     -49.724  12.380  21.358  0.00  0.00    -0.191 NA
ATOM      8  C   UNL d   1     -50.682  14.403  22.382  0.00  0.00     0.001 A 
ATOM      9  C   UNL d   1     -49.844  15.527  23.273  0.00  0.00     0.006 A 
ATOM     10  C   UNL d   1     -51.058  15.079  22.712  0.00  0.00     0.000 A 
ATOM     11  C   UNL d   1     -50.669  15.601  23.125  0.00  0.00     0.001 A 
ENDROOT
BRANCH   1  12
ATOM     12  N   UNL d   1     -47.913  13.477  22.462  0.00  0.00    -0.201 NA
ATOM     13  C   UNL d   1     -47.206  13.729  22.810  0.00  0.00     0.280 C 
ATOM     14  O   UNL d   1     -47.184  14.443  23.283  0.00  0.00    -0.265 OA
BRANCH  13  15
ATOM     15  C   UNL d   1     -46.523  13.302  22.707  0.00  0.00     0.058 A 
ATOM     16  C   UNL d   1     -46.415  12.597  23.170  0.00  0.00     0.005 A 
ATOM     17  C   UNL d   1     -45.702  12.151  23.063  0.00  0.00     0.000 A 
ATOM     18  C   UNL d   1     -45.133  12.431  22.496  0.00  0.00     0.000 A 
ATOM     19  C   UNL d   1     -45.252  13.113  22.057  0.00  0.00     0.000 A 
ATOM     20  C   UNL d   1     -45.935  13.540  22.160  0.00  0.00     0.005 A 
ENDBRANCH  13  15
ENDBRANCH   1  12
TORSDOF 2
ENDMDL
MODEL 2
REMARK VINA RESULT:      -7.8      1.264      4.334
REMARK  2 active torsions:
REMARK  status: ('A' for Active; 'I' for Inactive)
REMARK    1  A    between atoms: N_5  and  C_1 
REMARK       I    between atoms: C_7  and  N_5 
REMARK    2  A    between atoms: C_11  and  C_7 
ROOT
ATOM      1  C   UNL d   1     -47.672  12.986  23.217  0.00  0.00     0.124 A 
ATOM      2  C   UNL d   1     -46.880  12.993  23.146  0.00  0.00     0.093 A 
ATOM      3  S   UNL d   1     -47.922  12.232  23.433  0.00  0.00    -0.067 SA
ATOM      4  C   UNL d   1     -46.592  12.244  23.313  0.00  0.00     0.018 A 
ATOM      5  C   UNL d   1     -47.260  11.756  23.497  0.00  0.00     0.032 A 
ATOM      6  C   UNL d   1     -46.398  13.674  22.928  0.00  0.00     0.103 C 
ATOM      7  N   UNL d   1     -45.925  14.313  22.722  0.00  0.00    -0.191 NA
ATOM      8  C   UNL d   1     -45.838  11.929  23.328  0.00  0.00     0.001 A 
ATOM      9  C   UNL d   1     -47.147  10.973  23.689  0.00  0.00     0.006 A 
ATOM     10  C   UNL d   1     -45.753  11.117  23.530  0.00  0.00     0.000 A 
ATOM     11  C   UNL d   1     -46.361  10.673  23.697  0.00  0.00     0.001 A 
ENDROOT
BRANCH   1  12
ATOM     12  N   UNL d   1     -48.189  13.647  23.092  0.00  0.00    -0.201 NA
ATOM     13  C   UNL d   1     -49.001  13.528  22.995  0.00  0.00     0.280 C 
ATOM     14  O   UNL d   1     -49.333  12.738  23.018  0.00  0.00    -0.265 OA
BRANCH  13  15
ATOM     15  C   UNL d   1     -49.496  14.161  22.875  0.00  0.00     0.058 A 
ATOM     16  C   UNL d   1     -50.119  14.083  22.302  0.00  0.00     0.005 A 
ATOM     17  C   UNL d   1     -50.636  14.743  22.177  0.00  0.00     0.000 A 
ATOM     18  C   UNL d   1     -50.504  15.450  22.632  0.00  0.00     0.000 A 
ATOM     19  C   UNL d   1     -49.898  15.510  23.181  0.00  0.00     0.000 A 
ATOM     20  C   UNL d   1     -49.404  14.877  23.301  0.00  0.00     0.005 A 
ENDBRANCH  13  15
ENDBRANCH   1  12
TORSDOF 2
ENDMDL
MODEL 3
REMARK VINA RESULT:      -7.1      1.101      1.657
REMARK  2 active torsions:
REMARK  status: ('A' for Active; 'I' for Inactive)
REMARK    1  A    between atoms: N_5  and  C_1 
REMARK       I    between atoms: C_7  and  N_5 
REMARK    2  A    between atoms: C_11  and  C_7 
ROOT
ATOM      1  C   UNL d   1     -47.758  12.997  22.814  0.00  0.00     0.124 A 
ATOM      2  C   UNL d   1     -48.541  12.914  22.709  0.00  0.00     0.093 A 
ATOM      3  S   UNL d   1     -47.575  13.795  22.895  0.00  0.00    -0.067 SA
ATOM      4  C   UNL d   1     -48.891  13.656  22.718  0.00  0.00     0.018 A 
ATOM      5  C   UNL d   1     -48.271  14.221  22.837  0.00  0.00     0.032 A 
ATOM      6  C   UNL d   1     -48.961  12.168  22.602  0.00  0.00     0.103 C 
ATOM      7  N   UNL d   1     -49.375  11.466  22.499  0.00  0.00    -0.191 NA
ATOM      8  C   UNL d   1     -49.665  13.907  22.638  0.00  0.00     0.001 A 
ATOM      9  C   UNL d   1     -48.449  15.014  22.872  0.00  0.00     0.006 A 
ATOM     10  C   UNL d   1     -49.817  14.733  22.678  0.00  0.00     0.000 A 
ATOM     11  C   UNL d   1     -49.253  15.247  22.786  0.00  0.00     0.001 A 
ENDROOT
BRANCH   1  12
ATOM     12  N   UNL d   1     -47.190  12.368  22.841  0.00  0.00    -0.201 NA
ATOM     13  C   UNL d   1     -46.486  12.459  23.266  0.00  0.00     0.280 C 
ATOM     14  O   UNL d   1     -46.320  13.189  23.684  0.00  0.00    -0.265 OA
BRANCH  13  15
ATOM     15  C   UNL d   1     -45.942  11.857  23.291  0.00  0.00     0.058 A 
ATOM     16  C   UNL d   1     -45.187  11.980  22.919  0.00  0.00     0.005 A 
ATOM     17  C   UNL d   1     -44.619  11.351  22.946  0.00  0.00     0.000 A 
ATOM     18  C   UNL d   1     -44.834  10.630  23.344  0.00  0.00     0.000 A 
ATOM     19  C   UNL d   1     -45.566  10.527  23.698  0.00  0.00     0.000 A 
ATOM     20  C   UNL d   1     -46.110  11.130  23.672  0.00  0.00     0.005 A 
ENDBRANCH  13  15
ENDBRANCH   1  12
TORSDOF 2
ENDMDL
MODEL 4
REMARK VINA RESULT:      -7.1      1.507      2.060
REMARK  2 active torsions:
REMARK  status: ('A' for Active; 'I' for Inactive)
REMARK    1  A    between atoms: N_5  and  C_1 
REMARK       I    between atoms: C_7  and  N_5 
REMARK    2  A    between atoms: C_11  and  C_7 
ROOT
ATOM      1  C   UNL d   1     -48.513  12.697  22.638  0.00  0.00     0.124 A 
ATOM      2  C   UNL d   1     -49.209  13.051  22.489  0.00  0.00     0.093 A 
ATOM      3  S   UNL d   1     -48.639  12.032  23.107  0.00  0.00    -0.067 SA
ATOM      4  C   UNL d   1     -49.807  12.629  22.857  0.00  0.00     0.018 A 
ATOM      5  C   UNL d   1     -49.441  11.974  23.254  0.00  0.00     0.032 A 
ATOM      6  C   UNL d   1     -49.322  13.766  22.018  0.00  0.00     0.103 C 
ATOM      7  N   UNL d   1     -49.446  14.444  21.573  0.00  0.00    -0.191 NA
ATOM      8  C   UNL d   1     -50.617  12.731  22.896  0.00  0.00     0.001 A 
ATOM      9  C   UNL d   1     -49.901  11.449  23.673  0.00  0.00     0.006 A 
ATOM     10  C   UNL d   1     -51.064  12.171  23.337  0.00  0.00     0.000 A 
ATOM     11  C   UNL d   1     -50.732  11.576  23.698  0.00  0.00     0.001 A 
ENDROOT
BRANCH   1  12
ATOM     12  N   UNL d   1     -47.754  12.954  22.361  0.00  0.00    -0.201 NA
ATOM     13  C   UNL d   1     -47.095  12.918  22.859  0.00  0.00     0.280 C 
ATOM     14  O   UNL d   1     -47.168  12.622  23.660  0.00  0.00    -0.265 OA
BRANCH  13  15
ATOM     15  C   UNL d   1     -46.368  13.164  22.594  0.00  0.00     0.058 A 
ATOM     16  C   UNL d   1     -46.169  13.988  22.668  0.00  0.00     0.005 A 
ATOM     17  C   UNL d   1     -45.410  14.245  22.392  0.00  0.00     0.000 A 
ATOM     18  C   UNL d   1     -44.887  13.666  22.055  0.00  0.00     0.000 A 
ATOM     19  C   UNL d   1     -45.093  12.875  21.990  0.00  0.00     0.000 A 
ATOM     20  C   UNL d   1     -45.820  12.629  22.255  0.00  0.00     0.005 A 
ENDBRANCH  13  15
ENDBRANCH   1  12
TORSDOF 2
ENDMDL
MODEL 5
REMARK VINA RESULT:      -7.0      1.809      4.284
REMARK  2 active torsions:
REMARK  status: ('A' for Active; 'I' for Inactive)
REMARK    1  A    between atoms: N_5  and  C_1 
REMARK       I    between atoms: C_7  and  N_5 
REMARK    2  A    between atoms: C_11  and  C_7 
ROOT
ATOM      1  C   UNL d   1     -47.366  12.947  22.811  0.00  0.00     0.124 A 
ATOM      2  C   UNL d   1     -46.960  13.605  22.629  0.00  0.00     0.093 A 
ATOM      3  S   UNL d   1     -46.858  12.299  22.796  0.00  0.00    -0.067 SA
ATOM      4  C   UNL d   1     -46.177  13.406  22.490  0.00  0.00     0.018 A 
ATOM      5  C   UNL d   1     -46.112  12.567  22.597  0.00  0.00     0.032 A 
ATOM      6  C   UNL d   1     -47.285  14.403  22.584  0.00  0.00     0.103 C 
ATOM      7  N   UNL d   1     -47.579  15.168  22.537  0.00  0.00    -0.191 NA
ATOM      8  C   UNL d   1     -45.519  13.845  22.286  0.00  0.00     0.001 A 
ATOM      9  C   UNL d   1     -45.391  12.202  22.495  0.00  0.00     0.006 A 
ATOM     10  C   UNL d   1     -44.788  13.439  22.188  0.00  0.00     0.000 A 
ATOM     11  C   UNL d   1     -44.729  12.677  22.285  0.00  0.00     0.001 A 
ENDROOT
BRANCH   1  12
ATOM     12  N   UNL d   1     -48.193  12.906  22.995  0.00  0.00    -0.201 NA
ATOM     13  C   UNL d   1     -48.660  12.299  22.683  0.00  0.00     0.280 C 
ATOM     14  O   UNL d   1     -48.316  11.703  22.171  0.00  0.00    -0.265 OA
BRANCH  13  15
ATOM     15  C   UNL d   1     -49.451  12.260  22.858  0.00  0.00     0.058 A 
ATOM     16  C   UNL d   1     -49.998  12.666  22.348  0.00  0.00     0.005 A 
ATOM     17  C   UNL d   1     -50.825  12.625  22.531  0.00  0.00     0.000 A 
ATOM     18  C   UNL d   1     -51.064  12.181  23.215  0.00  0.00     0.000 A 
ATOM     19  C   UNL d   1     -50.525  11.795  23.698  0.00  0.00     0.000 A 
ATOM     20  C   UNL d   1     -49.733  11.834  23.522  0.00  0.00     0.005 A 
ENDBRANCH  13  15
ENDBRANCH   1  12
TORSDOF 2
ENDMDL
MODEL 6
REMARK VINA RESULT:      -6.6      8.858      9.394
REMARK  2 active torsions:
REMARK  status: ('A' for Active; 'I' for Inactive)
REMARK    1  A    between atoms: N_5  and  C_1 
REMARK       I    between atoms: C_7  and  N_5 
REMARK    2  A    between atoms: C_11  and  C_7 
ROOT
ATOM      1  C   UNL d   1     -39.951  14.474  18.954  0.00  0.00     0.124 A 
ATOM      2  C   UNL d   1     -39.899  14.225  18.201  0.00  0.00     0.093 A 
ATOM      3  S   UNL d   1     -40.415  15.154  18.987  0.00  0.00    -0.067 SA
ATOM      4  C   UNL d   1     -40.327  14.735  17.722  0.00  0.00     0.018 A 
ATOM      5  C   UNL d   1     -40.657  15.331  18.226  0.00  0.00     0.032 A 
ATOM      6  C   UNL d   1     -39.465  13.532  17.927  0.00  0.00     0.103 C 
ATOM      7  N   UNL d   1     -39.057  12.875  17.650  0.00  0.00    -0.191 NA
ATOM      8  C   UNL d   1     -40.468  14.754  16.917  0.00  0.00     0.001 A 
ATOM      9  C   UNL d   1     -41.115  15.922  17.905  0.00  0.00     0.006 A 
ATOM     10  C   UNL d   1     -40.945  15.378  16.615  0.00  0.00     0.000 A 
ATOM     11  C   UNL d   1     -41.246  15.920  17.074  0.00  0.00     0.001 A 
ENDROOT
BRANCH   1  12
ATOM     12  N   UNL d   1     -39.591  14.105  19.627  0.00  0.00    -0.201 NA
ATOM     13  C   UNL d   1     -39.472  14.533  20.324  0.00  0.00     0.280 C 
ATOM     14  O   UNL d   1     -39.710  15.355  20.377  0.00  0.00    -0.265 OA
BRANCH  13  15
ATOM     15  C   UNL d   1     -39.126  14.180  20.968  0.00  0.00     0.058 A 
ATOM     16  C   UNL d   1     -39.619  13.986  21.634  0.00  0.00     0.005 A 
ATOM     17  C   UNL d   1     -39.258  13.617  22.307  0.00  0.00     0.000 A 
ATOM     18  C   UNL d   1     -38.422  13.460  22.280  0.00  0.00     0.000 A 
ATOM     19  C   UNL d   1     -37.961  13.653  21.631  0.00  0.00     0.000 A 
ATOM     20  C   UNL d   1     -38.306  14.006  20.986  0.00  0.00     0.005 A 
ENDBRANCH  13  15
ENDBRANCH   1  12
TORSDOF 2
ENDMDL
MODEL 7
REMARK VINA RESULT:      -6.4      1.914      2.940
REMARK  2 active torsions:
REMARK  status: ('A' for Active; 'I' for Inactive)
REMARK    1  A    between atoms: N_5  and  C_1 
REMARK       I    between atoms: C_7  and  N_5 
REMARK    2  A    between atoms: C_11  and  C_7 
ROOT
ATOM      1  C   UNL d   1     -46.594  12.635  23.117  0.00  0.00     0.124 A 
ATOM      2  C   UNL d   1     -46.699  13.401  22.937  0.00  0.00     0.093 A 
ATOM      3  S   UNL d   1     -47.325  12.283  23.259  0.00  0.00    -0.067 SA
ATOM      4  C   UNL d   1     -47.501  13.572  22.955  0.00  0.00     0.018 A 
ATOM      5  C   UNL d   1     -47.903  12.854  23.162  0.00  0.00     0.032 A 
ATOM      6  C   UNL d   1     -46.075  13.967  22.751  0.00  0.00     0.103 C 
ATOM      7  N   UNL d   1     -45.492  14.517  22.572  0.00  0.00    -0.191 NA
ATOM      8  C   UNL d   1     -47.928  14.256  22.819  0.00  0.00     0.001 A 
ATOM      9  C   UNL d   1     -48.714  12.850  23.224  0.00  0.00     0.006 A 
ATOM     10  C   UNL d   1     -48.765  14.219  22.891  0.00  0.00     0.000 A 
ATOM     11  C   UNL d   1     -49.130  13.567  23.079  0.00  0.00     0.001 A 
ENDROOT
BRANCH   1  12
ATOM     12  N   UNL d   1     -45.850  12.230  23.161  0.00  0.00    -0.201 NA
ATOM     13  C   UNL d   1     -45.826  11.413  23.286  0.00  0.00     0.280 C 
ATOM     14  O   UNL d   1     -46.550  10.964  23.373  0.00  0.00    -0.265 OA
BRANCH  13  15
ATOM     15  C   UNL d   1     -45.113  11.026  23.327  0.00  0.00     0.058 A 
ATOM     16  C   UNL d   1     -45.100  10.241  23.653  0.00  0.00     0.005 A 
ATOM     17  C   UNL d   1     -44.355   9.837  23.696  0.00  0.00     0.000 A 
ATOM     18  C   UNL d   1     -43.662  10.238  23.412  0.00  0.00     0.000 A 
ATOM     19  C   UNL d   1     -43.691  10.996  23.100  0.00  0.00     0.000 A 
ATOM     20  C   UNL d   1     -44.404  11.383  23.059  0.00  0.00     0.005 A 
ENDBRANCH  13  15
ENDBRANCH   1  12
TORSDOF 2
ENDMDL
MODEL 8
REMARK VINA RESULT:      -6.2      8.565      9.796
REMARK  2 active torsions:
REMARK  status: ('A' for Active; 'I' for Inactive)
REMARK    1  A    between atoms: N_5  and  C_1 
REMARK       I    between atoms: C_7  and  N_5 
REMARK    2  A    between atoms: C_11  and  C_7 
ROOT
ATOM      1  C   UNL d   1     -39.460  14.681  20.103  0.00  0.00     0.124 A 
ATOM      2  C   UNL d   1     -39.762  14.805  20.828  0.00  0.00     0.093 A 
ATOM      3  S   UNL d   1     -38.850  14.130  20.151  0.00  0.00    -0.067 SA
ATOM      4  C   UNL d   1     -39.359  14.338  21.368  0.00  0.00     0.018 A 
ATOM      5  C   UNL d   1     -38.773  13.905  20.934  0.00  0.00     0.032 A 
ATOM      6  C   UNL d   1     -40.410  15.341  21.020  0.00  0.00     0.103 C 
ATOM      7  N   UNL d   1     -41.025  15.847  21.219  0.00  0.00    -0.191 NA
ATOM      8  C   UNL d   1     -39.428  14.237  22.176  0.00  0.00     0.001 A 
ATOM      9  C   UNL d   1     -38.280  13.390  21.326  0.00  0.00     0.006 A 
ATOM     10  C   UNL d   1     -38.904  13.697  22.553  0.00  0.00     0.000 A 
ATOM     11  C   UNL d   1     -38.372  13.304  22.158  0.00  0.00     0.001 A 
ENDROOT
BRANCH   1  12
ATOM     12  N   UNL d   1     -39.717  15.053  19.386  0.00  0.00    -0.201 NA
ATOM     13  C   UNL d   1     -39.665  14.650  18.666  0.00  0.00     0.280 C 
ATOM     14  O   UNL d   1     -39.352  13.853  18.633  0.00  0.00    -0.265 OA
BRANCH  13  15
ATOM     15  C   UNL d   1     -39.911  15.006  17.979  0.00  0.00     0.058 A 
ATOM     16  C   UNL d   1     -40.675  14.798  17.668  0.00  0.00     0.005 A 
ATOM     17  C   UNL d   1     -40.932  15.170  16.951  0.00  0.00     0.000 A 
ATOM     18  C   UNL d   1     -40.412  15.732  16.579  0.00  0.00     0.000 A 
ATOM     19  C   UNL d   1     -39.678  15.922  16.891  0.00  0.00     0.000 A 
ATOM     20  C   UNL d   1     -39.432  15.566  17.578  0.00  0.00     0.005 A 
ENDBRANCH  13  15
ENDBRANCH   1  12
TORSDOF 2
ENDMDL
MODEL 9
REMARK VINA RESULT:      -5.7      8.298      9.317
REMARK  2 active torsions:
REMARK  status: ('A' for Active; 'I' for Inactive)
REMARK    1  A    between atoms: N_5  and  C_1 
REMARK       I    between atoms: C_7  and  N_5 
REMARK    2  A    between atoms: C_11  and  C_7 
ROOT
ATOM      1  C   UNL d   1     -39.781  14.518  20.210  0.00  0.00     0.124 A 
ATOM      2  C   UNL d   1     -40.365  14.946  19.882  0.00  0.00     0.093 A 
ATOM      3  S   UNL d   1     -39.369  14.120  19.619  0.00  0.00    -0.067 SA
ATOM      4  C   UNL d   1     -40.350  14.839  19.069  0.00  0.00     0.018 A 
ATOM      5  C   UNL d   1     -39.710  14.309  18.900  0.00  0.00     0.032 A 
ATOM      6  C   UNL d   1     -40.927  15.444  20.308  0.00  0.00     0.103 C 
ATOM      7  N   UNL d   1     -41.468  15.922  20.698  0.00  0.00    -0.191 NA
ATOM      8  C   UNL d   1     -40.809  15.135  18.461  0.00  0.00     0.001 A 
ATOM      9  C   UNL d   1     -39.556  14.096  18.130  0.00  0.00     0.006 A 
ATOM     10  C   UNL d   1     -40.624  14.896  17.676  0.00  0.00     0.000 A 
ATOM     11  C   UNL d   1     -40.043  14.414  17.522  0.00  0.00     0.001 A 
ENDROOT
BRANCH   1  12
ATOM     12  N   UNL d   1     -39.602  14.471  21.037  0.00  0.00    -0.201 NA
ATOM     13  C   UNL d   1     -38.896  14.124  21.292  0.00  0.00     0.280 C 
ATOM     14  O   UNL d   1     -38.336  13.807  20.725  0.00  0.00    -0.265 OA
BRANCH  13  15
ATOM     15  C   UNL d   1     -38.724  14.079  22.084  0.00  0.00     0.058 A 
ATOM     16  C   UNL d   1     -38.869  13.343  22.487  0.00  0.00     0.005 A 
ATOM     17  C   UNL d   1     -38.689  13.296  23.314  0.00  0.00     0.000 A 
ATOM     18  C   UNL d   1     -38.374  13.987  23.698  0.00  0.00     0.000 A 
ATOM     19  C   UNL d   1     -38.240  14.689  23.296  0.00  0.00     0.000 A 
ATOM     20  C   UNL d   1     -38.412  14.734  22.504  0.00  0.00     0.005 A 
ENDBRANCH  13  15
ENDBRANCH   1  12
TORSDOF 2
ENDMDL
