MODEL 1
REMARK VINA RESULT:      99.6      0.000      0.000
REMARK  2 active torsions:
REMARK  status: ('A' for Active; 'I' for Inactive)
REMARK    1  A    between atoms: N_9  and  C_3 
REMARK    2  A    between atoms: C_13  and  C_5 
ROOT
ATOM      1  N   UNL d   1      61.442  47.243  50.229  0.00  0.00    -0.196 N 
ATOM      2  C   UNL d   1      60.961  47.663  50.779  0.00  0.00     0.167 A 
ATOM      3  C   UNL d   1      61.484  46.414  50.270  0.00  0.00     0.153 A 
ATOM      4  N   UNL d   1      61.822  48.474  49.619  0.00  0.00    -0.163 NA
ATOM      5  C   UNL d   1      60.919  48.472  50.739  0.00  0.00     0.055 A 
ATOM      6  N   UNL d   1      60.539  47.240  51.350  0.00  0.00    -0.227 NA
ATOM      7  C   UNL d   1      61.062  46.011  50.839  0.00  0.00     0.052 A 
ATOM      8  C   UNL d   1      61.348  48.888  50.160  0.00  0.00     0.104 A 
ATOM      9  C   UNL d   1      60.578  46.424  51.393  0.00  0.00     0.086 A 
ATOM     10  C   UNL d   1      60.993  45.218  51.014  0.00  0.00     0.005 A 
ATOM     11  C   UNL d   1      61.300  49.708  50.127  0.00  0.00     0.023 C 
ATOM     12  C   UNL d   1      60.224  45.876  51.893  0.00  0.00     0.019 A 
ATOM     13  C   UNL d   1      60.486  45.120  51.653  0.00  0.00     0.002 A 
ENDROOT
BRANCH   5  14
ATOM     14  C   UNL d   1      60.448  48.884  51.277  0.00  0.00     0.004 A 
ATOM     15  C   UNL d   1      59.674  49.082  51.084  0.00  0.00     0.000 A 
ATOM     16  C   UNL d   1      59.198  49.498  51.628  0.00  0.00     0.000 A 
ATOM     17  C   UNL d   1      59.505  49.708  52.353  0.00  0.00     0.000 A 
ATOM     18  C   UNL d   1      60.285  49.510  52.551  0.00  0.00     0.000 A 
ATOM     19  C   UNL d   1      60.751  49.100  52.013  0.00  0.00     0.000 A 
ENDBRANCH   5  14
BRANCH   3  20
ATOM     20  N   UNL d   1      61.969  45.986  49.717  0.00  0.00    -0.271 N 
ATOM     21  C   UNL d   1      62.746  46.212  49.464  0.00  0.00     0.184 A 
ATOM     22  N   UNL d   1      63.012  45.622  48.914  0.00  0.00    -0.222 NA
ATOM     23  C   UNL d   1      62.402  45.034  48.829  0.00  0.00     0.120 A 
ATOM     24  C   UNL d   1      61.755  45.269  49.334  0.00  0.00     0.104 A 
ENDBRANCH   3  20
TORSDOF 2
ENDMDL
MODEL 2
REMARK VINA RESULT:     100.1      0.916      4.270
REMARK  2 active torsions:
REMARK  status: ('A' for Active; 'I' for Inactive)
REMARK    1  A    between atoms: N_9  and  C_3 
REMARK    2  A    between atoms: C_13  and  C_5 
ROOT
ATOM      1  N   UNL d   1      60.750  47.695  51.274  0.00  0.00    -0.196 N 
ATOM      2  C   UNL d   1      61.044  47.234  50.634  0.00  0.00     0.167 A 
ATOM      3  C   UNL d   1      60.681  48.519  51.190  0.00  0.00     0.153 A 
ATOM      4  N   UNL d   1      60.602  46.513  52.058  0.00  0.00    -0.163 NA
ATOM      5  C   UNL d   1      61.112  46.430  50.715  0.00  0.00     0.055 A 
ATOM      6  N   UNL d   1      61.260  47.612  49.931  0.00  0.00    -0.227 NA
ATOM      7  C   UNL d   1      60.897  48.877  50.491  0.00  0.00     0.052 A 
ATOM      8  C   UNL d   1      60.892  46.059  51.427  0.00  0.00     0.104 A 
ATOM      9  C   UNL d   1      61.193  48.423  49.845  0.00  0.00     0.086 A 
ATOM     10  C   UNL d   1      60.893  49.655  50.247  0.00  0.00     0.005 A 
ATOM     11  C   UNL d   1      60.964  45.244  51.502  0.00  0.00     0.023 C 
ATOM     12  C   UNL d   1      61.363  48.932  49.221  0.00  0.00     0.019 A 
ATOM     13  C   UNL d   1      61.174  49.704  49.476  0.00  0.00     0.002 A 
ENDROOT
BRANCH   5  14
ATOM     14  C   UNL d   1      61.400  45.978  50.088  0.00  0.00     0.004 A 
ATOM     15  C   UNL d   1      60.973  45.334  49.810  0.00  0.00     0.000 A 
ATOM     16  C   UNL d   1      61.265  44.877  49.176  0.00  0.00     0.000 A 
ATOM     17  C   UNL d   1      61.978  45.074  48.833  0.00  0.00     0.000 A 
ATOM     18  C   UNL d   1      62.411  45.722  49.111  0.00  0.00     0.000 A 
ATOM     19  C   UNL d   1      62.121  46.170  49.735  0.00  0.00     0.000 A 
ENDBRANCH   5  14
BRANCH   3  20
ATOM     20  N   UNL d   1      60.384  48.988  51.835  0.00  0.00    -0.271 N 
ATOM     21  C   UNL d   1      59.585  49.261  51.920  0.00  0.00     0.184 A 
ATOM     22  N   UNL d   1      59.548  49.705  52.642  0.00  0.00    -0.222 NA
ATOM     23  C   UNL d   1      60.320  49.707  53.002  0.00  0.00     0.120 A 
ATOM     24  C   UNL d   1      60.835  49.257  52.490  0.00  0.00     0.104 A 
ENDBRANCH   3  20
TORSDOF 2
ENDMDL
