MODEL 1
REMARK VINA RESULT:      72.9      0.000      0.000
REMARK  4 active torsions:
REMARK  status: ('A' for Active; 'I' for Inactive)
REMARK    1  A    between atoms: C_3  and  S_1 
REMARK    2  A    between atoms: N_5  and  S_1 
REMARK    3  A    between atoms: C_11  and  N_5 
REMARK    4  A    between atoms: C_21  and  N_5 
ROOT
ATOM      1  N   UNL d   1     -51.714  24.760  33.385  0.00  0.00    -0.273 N 
ATOM      2  C   UNL d   1     -50.435  26.854  33.614  0.00  0.00     0.104 A 
ATOM      3  C   UNL d   1     -51.292  25.456  33.461  0.00  0.00     0.067 A 
ATOM      4  C   UNL d   1     -50.474  25.427  33.536  0.00  0.00     0.017 A 
ATOM      5  C   UNL d   1     -51.683  26.183  33.462  0.00  0.00     0.017 A 
ATOM      6  C   UNL d   1     -51.323  24.034  33.384  0.00  0.00     0.265 A 
ATOM      7  C   UNL d   1     -50.044  26.128  33.613  0.00  0.00     0.014 A 
ATOM      8  C   UNL d   1     -51.256  26.880  33.538  0.00  0.00     0.014 A 
ATOM      9  C   UNL d   1     -50.083  24.701  33.535  0.00  0.00     0.006 A 
ATOM     10  C   UNL d   1     -50.510  24.003  33.459  0.00  0.00     0.061 A 
ATOM     11  O   UNL d   1     -51.758  23.322  33.306  0.00  0.00    -0.267 OA
ATOM     12  C   UNL d   1     -52.536  24.787  33.309  0.00  0.00     0.083 A 
ATOM     13  C   UNL d   1     -52.496  26.213  33.387  0.00  0.00     0.003 A 
ATOM     14  C   UNL d   1     -52.927  25.514  33.310  0.00  0.00     0.019 A 
ENDROOT
BRANCH   2  15
ATOM     15  S   UNL d   1     -50.000  27.556  33.691  0.00  0.00     0.271 S 
ATOM     16  O   UNL d   1     -50.688  27.973  33.892  0.00  0.00    -0.200 OA
ATOM     17  O   UNL d   1     -49.306  27.143  33.490  0.00  0.00    -0.200 OA
BRANCH  15  18
ATOM     18  N   UNL d   1     -49.558  28.262  33.768  0.00  0.00    -0.231 N 
BRANCH  18  19
ATOM     19  C   UNL d   1     -48.934  28.308  34.300  0.00  0.00     0.075 A 
ATOM     20  C   UNL d   1     -48.749  29.033  34.647  0.00  0.00     0.018 A 
ATOM     21  C   UNL d   1     -48.130  29.090  35.178  0.00  0.00     0.002 A 
ATOM     22  C   UNL d   1     -47.943  29.824  35.528  0.00  0.00     0.000 C 
ATOM     23  C   UNL d   1     -47.689  28.418  35.367  0.00  0.00     0.000 A 
ATOM     24  C   UNL d   1     -47.875  27.693  35.020  0.00  0.00     0.002 A 
ATOM     25  C   UNL d   1     -48.499  27.647  34.488  0.00  0.00     0.018 A 
ENDBRANCH  18  19
BRANCH  18  26
ATOM     26  C   UNL d   1     -49.748  28.919  33.308  0.00  0.00     0.092 C 
ATOM     27  C   UNL d   1     -50.470  29.305  33.418  0.00  0.00     0.021 C 
ENDBRANCH  18  26
ENDBRANCH  15  18
ENDBRANCH   2  15
TORSDOF 4
ENDMDL
