MODEL 1
REMARK VINA RESULT:     105.8      0.000      0.000
REMARK  5 active torsions:
REMARK  status: ('A' for Active; 'I' for Inactive)
REMARK    1  A    between atoms: N_2  and  S_1 
REMARK    2  A    between atoms: C_14  and  S_1 
REMARK    3  A    between atoms: C_4  and  N_2 
REMARK    4  A    between atoms: S_6  and  C_3 
REMARK    5  A    between atoms: C_10  and  S_6 
ROOT
ATOM      1  C   UNL d   1      60.718  47.527  50.525  0.00  0.00     0.070 A 
ATOM      2  C   UNL d   1      60.239  48.867  50.603  0.00  0.00     0.095 A 
ATOM      3  C   UNL d   1      61.026  47.593  51.288  0.00  0.00     0.202 A 
ATOM      4  C   UNL d   1      60.324  48.165  50.183  0.00  0.00     0.030 A 
ATOM      5  C   UNL d   1      60.940  48.296  51.707  0.00  0.00     0.041 A 
ATOM      6  C   UNL d   1      60.547  48.933  51.366  0.00  0.00     0.022 A 
ATOM      7  O   UNL d   1      61.429  46.945  51.640  0.00  0.00    -0.286 OA
ATOM      8  C   UNL d   1      61.252  48.363  52.478  0.00  0.00     0.003 A 
ATOM      9  C   UNL d   1      60.460  49.640  51.786  0.00  0.00     0.002 A 
ATOM     10  C   UNL d   1      61.167  49.065  52.898  0.00  0.00     0.000 A 
ATOM     11  C   UNL d   1      60.772  49.706  52.557  0.00  0.00     0.000 A 
ENDROOT
BRANCH   1  12
ATOM     12  S   UNL d   1      60.803  46.825  50.104  0.00  0.00    -0.082 SA
BRANCH  12  13
ATOM     13  C   UNL d   1      60.891  46.121  49.682  0.00  0.00     0.047 A 
ATOM     14  C   UNL d   1      61.642  45.853  49.472  0.00  0.00     0.087 A 
ATOM     15  N   UNL d   1      62.307  46.293  49.684  0.00  0.00    -0.244 NA
ATOM     16  C   UNL d   1      61.726  45.150  49.051  0.00  0.00     0.018 A 
ATOM     17  C   UNL d   1      63.058  46.025  49.473  0.00  0.00     0.099 A 
ATOM     18  C   UNL d   1      63.140  45.319  49.051  0.00  0.00     0.021 A 
ATOM     19  C   UNL d   1      62.485  44.880  48.838  0.00  0.00     0.003 A 
ATOM     20  C   UNL d   1      61.067  44.712  48.839  0.00  0.00     0.002 A 
ATOM     21  C   UNL d   1      60.311  44.971  49.045  0.00  0.00     0.001 A 
ATOM     22  C   UNL d   1      60.220  45.679  49.469  0.00  0.00     0.008 A 
ENDBRANCH  12  13
ENDBRANCH   1  12
BRANCH   2  23
ATOM     23  N   UNL d   1      59.836  49.515  50.250  0.00  0.00    -0.158 NA
BRANCH  23  24
ATOM     24  S   UNL d   1      59.013  49.494  50.174  0.00  0.00     0.285 S 
ATOM     25  O   UNL d   1      59.090  49.291  49.368  0.00  0.00    -0.198 OA
ATOM     26  O   UNL d   1      58.933  49.694  50.971  0.00  0.00    -0.198 OA
BRANCH  24  27
ATOM     27  C   UNL d   1      58.186  49.473  50.098  0.00  0.00     0.105 A 
ATOM     28  C   UNL d   1      57.843  49.330  49.363  0.00  0.00     0.013 A 
ATOM     29  C   UNL d   1      57.015  49.308  49.281  0.00  0.00     0.001 A 
ATOM     30  C   UNL d   1      56.533  49.431  49.946  0.00  0.00     0.000 A 
ATOM     31  C   UNL d   1      56.887  49.575  50.686  0.00  0.00     0.001 A 
ATOM     32  C   UNL d   1      57.707  49.595  50.758  0.00  0.00     0.013 A 
ENDBRANCH  24  27
ENDBRANCH  23  24
ENDBRANCH   2  23
TORSDOF 5
ENDMDL
