MODEL 1
REMARK VINA RESULT:      -7.8      0.000      0.000
REMARK  2 active torsions:
REMARK  status: ('A' for Active; 'I' for Inactive)
REMARK    1  A    between atoms: C_4  and  N_1 
REMARK    2  A    between atoms: C_7  and  C_9 
ROOT
ATOM      1  C   UNL d   1     -48.422  12.589  22.874  0.00  0.00     0.070 A 
ATOM      2  C   UNL d   1     -47.649  12.873  22.963  0.00  0.00     0.024 A 
ATOM      3  C   UNL d   1     -47.095  12.432  23.373  0.00  0.00     0.066 A 
ATOM      4  C   UNL d   1     -48.642  11.865  23.195  0.00  0.00     0.018 A 
ATOM      5  C   UNL d   1     -47.314  11.700  23.698  0.00  0.00     0.006 A 
ATOM      6  C   UNL d   1     -48.087  11.416  23.609  0.00  0.00     0.002 A 
ENDROOT
BRANCH   1   7
ATOM      7  N   UNL d   1     -48.983  13.031  22.462  0.00  0.00    -0.242 N 
ATOM      8  C   UNL d   1     -49.110  13.006  21.637  0.00  0.00     0.267 A 
ATOM      9  C   UNL d   1     -49.719  13.531  21.453  0.00  0.00     0.066 A 
ATOM     10  O   UNL d   1     -48.717  12.550  21.070  0.00  0.00    -0.267 OA
ATOM     11  C   UNL d   1     -49.972  13.883  22.159  0.00  0.00     0.066 A 
ATOM     12  C   UNL d   1     -49.523  13.577  22.773  0.00  0.00     0.267 A 
ATOM     13  O   UNL d   1     -49.630  13.811  23.565  0.00  0.00    -0.267 OA
ENDBRANCH   1   7
BRANCH   3  14
ATOM     14  C   UNL d   1     -46.326  12.701  23.468  0.00  0.00     0.211 C 
ATOM     15  O   UNL d   1     -46.177  13.474  23.698  0.00  0.00    -0.644 OA
ATOM     16  O   UNL d   1     -45.696  12.180  23.328  0.00  0.00    -0.644 OA
ENDBRANCH   3  14
TORSDOF 2
ENDMDL
MODEL 2
REMARK VINA RESULT:      -7.7      1.378      2.956
REMARK  2 active torsions:
REMARK  status: ('A' for Active; 'I' for Inactive)
REMARK    1  A    between atoms: C_4  and  N_1 
REMARK    2  A    between atoms: C_7  and  C_9 
ROOT
ATOM      1  C   UNL d   1     -48.427  12.967  22.445  0.00  0.00     0.070 A 
ATOM      2  C   UNL d   1     -48.909  12.625  23.025  0.00  0.00     0.024 A 
ATOM      3  C   UNL d   1     -49.583  12.216  22.809  0.00  0.00     0.066 A 
ATOM      4  C   UNL d   1     -48.618  12.899  21.648  0.00  0.00     0.018 A 
ATOM      5  C   UNL d   1     -49.780  12.145  22.006  0.00  0.00     0.006 A 
ATOM      6  C   UNL d   1     -49.298  12.486  21.425  0.00  0.00     0.002 A 
ENDROOT
BRANCH   1   7
ATOM      7  N   UNL d   1     -47.747  13.380  22.659  0.00  0.00    -0.242 N 
ATOM      8  C   UNL d   1     -47.687  14.209  22.742  0.00  0.00     0.267 A 
ATOM      9  C   UNL d   1     -46.915  14.393  22.962  0.00  0.00     0.066 A 
ATOM     10  O   UNL d   1     -48.276  14.779  22.633  0.00  0.00    -0.267 OA
ATOM     11  C   UNL d   1     -46.490  13.683  23.016  0.00  0.00     0.066 A 
ATOM     12  C   UNL d   1     -46.999  13.067  22.831  0.00  0.00     0.267 A 
ATOM     13  O   UNL d   1     -46.755  12.271  22.830  0.00  0.00    -0.267 OA
ENDBRANCH   1   7
BRANCH   3  14
ATOM     14  C   UNL d   1     -50.069  11.873  23.375  0.00  0.00     0.211 C 
ATOM     15  O   UNL d   1     -50.745  12.256  23.635  0.00  0.00    -0.644 OA
ATOM     16  O   UNL d   1     -49.868  11.129  23.682  0.00  0.00    -0.644 OA
ENDBRANCH   3  14
TORSDOF 2
ENDMDL
MODEL 3
REMARK VINA RESULT:      -7.4      1.097      3.112
REMARK  2 active torsions:
REMARK  status: ('A' for Active; 'I' for Inactive)
REMARK    1  A    between atoms: C_4  and  N_1 
REMARK    2  A    between atoms: C_7  and  C_9 
ROOT
ATOM      1  C   UNL d   1     -48.145  13.022  22.666  0.00  0.00     0.070 A 
ATOM      2  C   UNL d   1     -48.552  13.615  23.077  0.00  0.00     0.024 A 
ATOM      3  C   UNL d   1     -49.055  14.120  22.675  0.00  0.00     0.066 A 
ATOM      4  C   UNL d   1     -48.240  12.934  21.854  0.00  0.00     0.018 A 
ATOM      5  C   UNL d   1     -49.153  14.034  21.856  0.00  0.00     0.006 A 
ATOM      6  C   UNL d   1     -48.746  13.441  21.444  0.00  0.00     0.002 A 
ENDROOT
BRANCH   1   7
ATOM      7  N   UNL d   1     -47.637  12.511  23.067  0.00  0.00    -0.242 N 
ATOM      8  C   UNL d   1     -47.825  11.739  23.321  0.00  0.00     0.267 A 
ATOM      9  C   UNL d   1     -47.165  11.421  23.698  0.00  0.00     0.066 A 
ATOM     10  O   UNL d   1     -48.537  11.328  23.230  0.00  0.00    -0.267 OA
ATOM     11  C   UNL d   1     -46.564  11.992  23.681  0.00  0.00     0.066 A 
ATOM     12  C   UNL d   1     -46.854  12.656  23.296  0.00  0.00     0.267 A 
ATOM     13  O   UNL d   1     -46.395  13.340  23.180  0.00  0.00    -0.267 OA
ENDBRANCH   1   7
BRANCH   3  14
ATOM     14  C   UNL d   1     -49.464  14.711  23.070  0.00  0.00     0.211 C 
ATOM     15  O   UNL d   1     -50.137  14.538  23.505  0.00  0.00    -0.644 OA
ATOM     16  O   UNL d   1     -49.189  15.493  23.024  0.00  0.00    -0.644 OA
ENDBRANCH   3  14
TORSDOF 2
ENDMDL
MODEL 4
REMARK VINA RESULT:      -5.1      1.299      1.819
REMARK  2 active torsions:
REMARK  status: ('A' for Active; 'I' for Inactive)
REMARK    1  A    between atoms: C_4  and  N_1 
REMARK    2  A    between atoms: C_7  and  C_9 
ROOT
ATOM      1  C   UNL d   1     -47.983  13.480  22.246  0.00  0.00     0.070 A 
ATOM      2  C   UNL d   1     -47.249  13.112  22.356  0.00  0.00     0.024 A 
ATOM      3  C   UNL d   1     -46.640  13.514  22.725  0.00  0.00     0.066 A 
ATOM      4  C   UNL d   1     -48.108  14.250  22.506  0.00  0.00     0.018 A 
ATOM      5  C   UNL d   1     -46.763  14.291  22.988  0.00  0.00     0.006 A 
ATOM      6  C   UNL d   1     -47.497  14.660  22.879  0.00  0.00     0.002 A 
ENDROOT
BRANCH   1   7
ATOM      7  N   UNL d   1     -48.599  13.078  21.875  0.00  0.00    -0.242 N 
ATOM      8  C   UNL d   1     -49.233  13.432  21.464  0.00  0.00     0.267 A 
ATOM      9  C   UNL d   1     -49.724  12.835  21.178  0.00  0.00     0.066 A 
ATOM     10  O   UNL d   1     -49.380  14.237  21.342  0.00  0.00    -0.267 OA
ATOM     11  C   UNL d   1     -49.399  12.108  21.409  0.00  0.00     0.066 A 
ATOM     12  C   UNL d   1     -48.714  12.258  21.833  0.00  0.00     0.267 A 
ATOM     13  O   UNL d   1     -48.243  11.649  22.151  0.00  0.00    -0.267 OA
ENDBRANCH   1   7
BRANCH   3  14
ATOM     14  C   UNL d   1     -45.908  13.161  22.840  0.00  0.00     0.211 C 
ATOM     15  O   UNL d   1     -45.233  13.475  22.498  0.00  0.00    -0.644 OA
ATOM     16  O   UNL d   1     -45.859  12.478  23.308  0.00  0.00    -0.644 OA
ENDBRANCH   3  14
TORSDOF 2
ENDMDL
