MODEL 1
REMARK VINA RESULT:      51.4      0.000      0.000
REMARK  3 active torsions:
REMARK  status: ('A' for Active; 'I' for Inactive)
REMARK    1  A    between atoms: C_7  and  C_1 
REMARK    2  A    between atoms: C_10  and  N_2 
REMARK    3  A    between atoms: C_14  and  C_7 
ROOT
ATOM      1  C   UNL d   1     -50.796  25.047  33.356  0.00  0.00     0.155 A 
ATOM      2  N   UNL d   1     -51.109  25.816  33.358  0.00  0.00    -0.277 N 
ATOM      3  C   UNL d   1     -50.600  26.452  33.352  0.00  0.00     0.153 A 
ATOM      4  C   UNL d   1     -49.779  26.330  33.344  0.00  0.00     0.092 A 
ATOM      5  N   UNL d   1     -49.979  24.925  33.348  0.00  0.00    -0.190 NA
ATOM      6  C   UNL d   1     -49.481  25.574  33.342  0.00  0.00     0.283 A 
ATOM      7  N   UNL d   1     -50.908  27.231  33.354  0.00  0.00    -0.228 NA
ATOM      8  C   UNL d   1     -49.272  26.988  33.337  0.00  0.00     0.009 A 
ATOM      9  O   UNL d   1     -48.659  25.459  33.334  0.00  0.00    -0.265 OA
ATOM     10  C   UNL d   1     -49.583  27.745  33.339  0.00  0.00     0.019 A 
ATOM     11  C   UNL d   1     -50.390  27.865  33.348  0.00  0.00     0.083 A 
ATOM     12  C   UNL d   1     -48.456  26.867  33.329  0.00  0.00     0.000 C 
ATOM     13  C   UNL d   1     -50.691  28.637  33.349  0.00  0.00     0.021 C 
ENDROOT
BRANCH   2  14
ATOM     14  C   UNL d   1     -51.920  25.936  33.367  0.00  0.00     0.067 A 
ATOM     15  C   UNL d   1     -52.218  26.691  33.337  0.00  0.00     0.018 A 
ATOM     16  C   UNL d   1     -53.037  26.813  33.346  0.00  0.00     0.002 A 
ATOM     17  C   UNL d   1     -53.553  26.179  33.383  0.00  0.00     0.000 A 
ATOM     18  C   UNL d   1     -53.238  25.407  33.413  0.00  0.00     0.002 A 
ATOM     19  C   UNL d   1     -52.426  25.286  33.405  0.00  0.00     0.018 A 
ENDBRANCH   2  14
BRANCH   1  20
ATOM     20  C   UNL d   1     -51.305  24.401  33.363  0.00  0.00     0.080 C 
BRANCH  20  21
ATOM     21  C   UNL d   1     -51.124  23.677  33.714  0.00  0.00     0.199 C 
ATOM     22  O   UNL d   1     -51.839  23.193  33.959  0.00  0.00    -0.286 OA
ATOM     23  C   UNL d   1     -50.139  23.296  33.887  0.00  0.00     0.045 C 
ENDBRANCH  20  21
ENDBRANCH   1  20
TORSDOF 3
ENDMDL
