MODEL 1
REMARK VINA RESULT:      85.5      0.000      0.000
REMARK  3 active torsions:
REMARK  status: ('A' for Active; 'I' for Inactive)
REMARK    1  A    between atoms: C_5  and  C_1 
REMARK       I    between atoms: N_7  and  C_5 
REMARK    2  A    between atoms: C_15  and  N_10 
REMARK    3  A    between atoms: C_21  and  C_15 
ROOT
ATOM      1  C   UNL d   1     -57.307 -99.703 -43.981  0.00  0.00     0.270 C 
ATOM      2  N   UNL d   1     -57.860 -99.463 -44.573  0.00  0.00    -0.270 N 
ATOM      3  N   UNL d   1     -58.949 -98.992 -45.753  0.00  0.00    -0.300 N 
ATOM      4  O   UNL d   1     -57.451 -99.507 -43.222  0.00  0.00    -0.269 OA
ATOM      5  C   UNL d   1     -58.549 -99.026 -44.363  0.00  0.00     0.102 A 
ATOM      6  C   UNL d   1     -57.706 -99.669 -45.365  0.00  0.00     0.102 A 
ATOM      7  C   UNL d   1     -59.084 -98.795 -44.947  0.00  0.00     0.100 A 
ATOM      8  C   UNL d   1     -58.260 -99.428 -45.962  0.00  0.00     0.100 A 
ENDROOT
BRANCH   1   9
ATOM      9  C   UNL d   1     -56.660-100.113 -44.177  0.00  0.00     0.191 A 
ATOM     10  O   UNL d   1     -57.037-100.778 -44.029  0.00  0.00    -0.293 OA
ATOM     11  C   UNL d   1     -56.389-101.188 -44.226  0.00  0.00     0.275 A 
ATOM     12  O   UNL d   1     -56.188-101.967 -44.263  0.00  0.00    -0.264 OA
ATOM     13  C   UNL d   1     -55.993-100.521 -44.381  0.00  0.00     0.099 A 
ATOM     14  C   UNL d   1     -55.259-100.320 -44.628  0.00  0.00     0.047 A 
ATOM     15  C   UNL d   1     -55.463-101.079 -44.533  0.00  0.00     0.014 C 
ATOM     16  C   UNL d   1     -55.999 -99.722 -44.409  0.00  0.00    -0.019 A 
ATOM     17  C   UNL d   1     -54.732-100.891 -44.780  0.00  0.00     0.004 C 
ATOM     18  C   UNL d   1     -54.877 -99.644 -44.779  0.00  0.00     0.004 C 
ATOM     19  C   UNL d   1     -56.651 -99.319 -44.210  0.00  0.00     0.006 A 
ENDBRANCH   1   9
BRANCH   3  20
ATOM     20  C   UNL d   1     -59.497 -98.756 -46.354  0.00  0.00     0.080 C 
BRANCH  20  21
ATOM     21  C   UNL d   1     -59.599 -99.229 -47.042  0.00  0.00     0.018 A 
ATOM     22  C   UNL d   1     -59.450-100.053 -47.010  0.00  0.00     0.002 A 
ATOM     23  C   UNL d   1     -59.549-100.539 -47.696  0.00  0.00     0.000 A 
ATOM     24  C   UNL d   1     -59.802-100.172 -48.415  0.00  0.00     0.000 A 
ATOM     25  C   UNL d   1     -59.952 -99.344 -48.448  0.00  0.00     0.000 A 
ATOM     26  C   UNL d   1     -59.849 -98.874 -47.761  0.00  0.00     0.002 A 
ENDBRANCH  20  21
ENDBRANCH   3  20
TORSDOF 3
ENDMDL
