MODEL 1
REMARK VINA RESULT:      50.7      0.000      0.000
REMARK  2 active torsions:
REMARK  status: ('A' for Active; 'I' for Inactive)
REMARK    1  A    between atoms: C_9  and  C_1 
REMARK    2  A    between atoms: N_7  and  C_2 
ROOT
ATOM      1  C   UNL d   1      46.176 -18.457  42.301  0.00  0.00     0.022 A 
ATOM      2  C   UNL d   1      46.118 -17.682  42.561  0.00  0.00     0.123 A 
ATOM      3  C   UNL d   1      46.214 -17.067  42.042  0.00  0.00     0.295 A 
ATOM      4  C   UNL d   1      46.335 -18.617  41.495  0.00  0.00     0.020 A 
ATOM      5  N   UNL d   1      46.370 -17.211  41.249  0.00  0.00    -0.207 NA
ATOM      6  C   UNL d   1      46.431 -18.001  40.976  0.00  0.00     0.085 A 
ATOM      7  C   UNL d   1      46.392 -19.386  41.241  0.00  0.00     0.013 A 
ATOM      8  O   UNL d   1      46.148 -16.282  42.344  0.00  0.00    -0.264 OA
ATOM      9  C   UNL d   1      46.586 -18.141  40.189  0.00  0.00     0.020 A 
ATOM     10  C   UNL d   1      46.551 -19.546  40.436  0.00  0.00     0.058 A 
ATOM     11  C   UNL d   1      46.647 -18.931  39.916  0.00  0.00     0.013 A 
ATOM     12 CL   UNL d   1      46.616 -20.327  40.137  0.00  0.00    -0.082 Cl
ENDROOT
BRANCH   1  13
ATOM     13  C   UNL d   1      46.077 -19.089  42.836  0.00  0.00     0.002 A 
ATOM     14  C   UNL d   1      45.429 -19.578  42.777  0.00  0.00     0.000 A 
ATOM     15  C   UNL d   1      45.331 -20.203  43.304  0.00  0.00     0.000 A 
ATOM     16  C   UNL d   1      45.896 -20.329  43.893  0.00  0.00     0.000 A 
ATOM     17  C   UNL d   1      46.547 -19.842  43.956  0.00  0.00     0.000 A 
ATOM     18  C   UNL d   1      46.646 -19.209  43.421  0.00  0.00     0.000 A 
ENDBRANCH   1  13
BRANCH   2  19
ATOM     19  N   UNL d   1      45.964 -17.543  43.343  0.00  0.00    -0.296 N 
ATOM     20  C   UNL d   1      46.572 -17.643  43.904  0.00  0.00     0.107 A 
ATOM     21  C   UNL d   1      46.425 -17.504  44.709  0.00  0.00     0.142 A 
ATOM     22  O   UNL d   1      45.666 -17.262  44.954  0.00  0.00    -0.300 OA
ATOM     23  C   UNL d   1      45.068 -17.165  44.398  0.00  0.00     0.142 A 
ATOM     24  C   UNL d   1      45.206 -17.302  43.592  0.00  0.00     0.107 A 
ENDBRANCH   2  19
TORSDOF 2
ENDMDL
