MODEL 1
REMARK VINA RESULT:      71.6      0.000      0.000
REMARK  5 active torsions:
REMARK  status: ('A' for Active; 'I' for Inactive)
REMARK    1  A    between atoms: C_12  and  C_4 
REMARK    2  A    between atoms: S_10  and  C_5 
REMARK    3  A    between atoms: C_15  and  S_10 
REMARK    4  A    between atoms: C_11  and  C_15 
REMARK       I    between atoms: N_13  and  C_11 
REMARK    5  A    between atoms: C_16  and  N_13 
ROOT
ATOM      1  N   UNL d   1     -50.659  26.481  33.750  0.00  0.00    -0.206 N 
ATOM      2  C   UNL d   1     -50.962  25.718  33.659  0.00  0.00     0.166 A 
ATOM      3  N   UNL d   1     -51.962  27.002  33.669  0.00  0.00    -0.163 NA
ATOM      4  C   UNL d   1     -51.758  25.598  33.575  0.00  0.00     0.055 A 
ATOM      5  C   UNL d   1     -49.863  26.579  33.832  0.00  0.00     0.116 A 
ATOM      6  C   UNL d   1     -52.260  26.252  33.581  0.00  0.00     0.104 A 
ATOM      7  N   UNL d   1     -50.460  25.074  33.654  0.00  0.00    -0.227 NA
ATOM      8  C   UNL d   1     -49.348  25.946  33.829  0.00  0.00     0.045 A 
ATOM      9  C   UNL d   1     -49.649  25.188  33.739  0.00  0.00     0.085 A 
ATOM     10  C   UNL d   1     -53.052  26.129  33.496  0.00  0.00     0.023 C 
ATOM     11  C   UNL d   1     -49.125  24.515  33.734  0.00  0.00     0.021 C 
ENDROOT
BRANCH   5  12
ATOM     12  S   UNL d   1     -49.551  27.365  33.926  0.00  0.00    -0.062 SA
BRANCH  12  13
ATOM     13  C   UNL d   1     -49.017  27.919  33.592  0.00  0.00     0.099 C 
BRANCH  13  14
ATOM     14  C   UNL d   1     -48.502  28.359  34.092  0.00  0.00     0.286 C 
ATOM     15  N   UNL d   1     -48.806  28.978  34.586  0.00  0.00    -0.208 NA
ATOM     16  O   UNL d   1     -47.674  28.188  34.105  0.00  0.00    -0.265 OA
BRANCH  15  17
ATOM     17  C   UNL d   1     -48.286  29.417  35.085  0.00  0.00     0.085 A 
ATOM     18  C   UNL d   1     -47.731  29.950  34.741  0.00  0.00     0.022 A 
ATOM     19  C   UNL d   1     -47.207  30.392  35.252  0.00  0.00     0.044 A 
ATOM     20  C   UNL d   1     -47.248  30.294  36.084  0.00  0.00     0.196 A 
ATOM     21  C   UNL d   1     -47.803  29.760  36.426  0.00  0.00     0.044 A 
ATOM     22  O   UNL d   1     -46.728  30.732  36.582  0.00  0.00    -0.287 OA
ATOM     23  C   UNL d   1     -48.324  29.320  35.923  0.00  0.00     0.022 A 
ENDBRANCH  15  17
ENDBRANCH  13  14
ENDBRANCH  12  13
ENDBRANCH   5  12
BRANCH   4  24
ATOM     24  C   UNL d   1     -52.056  24.847  33.486  0.00  0.00     0.004 A 
ATOM     25  C   UNL d   1     -51.556  24.220  33.409  0.00  0.00     0.000 A 
ATOM     26  C   UNL d   1     -51.854  23.469  33.320  0.00  0.00     0.000 A 
ATOM     27  C   UNL d   1     -52.651  23.345  33.308  0.00  0.00     0.000 A 
ATOM     28  C   UNL d   1     -53.157  23.992  33.387  0.00  0.00     0.000 A 
ATOM     29  C   UNL d   1     -52.852  24.727  33.474  0.00  0.00     0.000 A 
ENDBRANCH   4  24
TORSDOF 5
ENDMDL
