MODEL 1
REMARK VINA RESULT:      -7.4      0.000      0.000
REMARK  5 active torsions:
REMARK  status: ('A' for Active; 'I' for Inactive)
REMARK       I    between atoms: N_2  and  C_1 
REMARK       I    between atoms: N_4  and  C_1 
REMARK    1  A    between atoms: C_8  and  N_2 
REMARK    2  A    between atoms: C_3  and  C_5 
REMARK    3  A    between atoms: O_11  and  C_3 
REMARK    4  A    between atoms: C_14  and  N_4 
REMARK    5  A    between atoms: C_15  and  N_4 
ROOT
ATOM      1  C   UNL d   1      50.517  34.206  52.646  0.00  0.00     0.063 A 
ATOM      2  C   UNL d   1      51.929  33.459  53.056  0.00  0.00     0.086 A 
ATOM      3  C   UNL d   1      51.237  34.491  52.355  0.00  0.00     0.007 A 
ATOM      4  C   UNL d   1      50.502  33.553  53.138  0.00  0.00     0.007 A 
ATOM      5  C   UNL d   1      51.944  34.112  52.564  0.00  0.00     0.019 A 
ATOM      6  C   UNL d   1      51.206  33.178  53.345  0.00  0.00     0.019 A 
ENDROOT
BRANCH   2   7
ATOM      7  N   UNL d   1      52.629  33.083  53.263  0.00  0.00    -0.192 NA
ATOM      8  C   UNL d   1      52.998  33.281  53.976  0.00  0.00     0.354 C 
ATOM      9  N   UNL d   1      53.695  32.913  54.192  0.00  0.00    -0.256 N 
ATOM     10  O   UNL d   1      52.662  33.853  54.476  0.00  0.00    -0.244 OA
BRANCH   9  11
ATOM     11  C   UNL d   1      54.026  32.344  53.690  0.00  0.00     0.085 C 
ATOM     12  C   UNL d   1      54.154  31.575  53.965  0.00  0.00     0.021 C 
ENDBRANCH   9  11
BRANCH   9  13
ATOM     13  C   UNL d   1      54.060  33.114  54.906  0.00  0.00     0.085 C 
ATOM     14  C   UNL d   1      54.823  33.431  54.897  0.00  0.00     0.021 C 
ENDBRANCH   9  13
ENDBRANCH   2   7
BRANCH   1  15
ATOM     15  C   UNL d   1      49.816  34.575  52.444  0.00  0.00     0.296 C 
ATOM     16  O   UNL d   1      49.440  35.071  52.977  0.00  0.00    -0.259 OA
BRANCH  15  17
ATOM     17  O   UNL d   1      49.486  34.446  51.697  0.00  0.00    -0.296 OA
ATOM     18  C   UNL d   1      48.768  34.792  51.510  0.00  0.00     0.185 C 
ENDBRANCH  15  17
ENDBRANCH   1  15
TORSDOF 5
ENDMDL
MODEL 2
REMARK VINA RESULT:      -7.0      2.177      4.219
REMARK  5 active torsions:
REMARK  status: ('A' for Active; 'I' for Inactive)
REMARK       I    between atoms: N_2  and  C_1 
REMARK       I    between atoms: N_4  and  C_1 
REMARK    1  A    between atoms: C_8  and  N_2 
REMARK    2  A    between atoms: C_3  and  C_5 
REMARK    3  A    between atoms: O_11  and  C_3 
REMARK    4  A    between atoms: C_14  and  N_4 
REMARK    5  A    between atoms: C_15  and  N_4 
ROOT
ATOM      1  C   UNL d   1      53.050  30.356  53.556  0.00  0.00     0.063 A 
ATOM      2  C   UNL d   1      52.851  31.948  53.171  0.00  0.00     0.086 A 
ATOM      3  C   UNL d   1      53.686  30.881  53.619  0.00  0.00     0.007 A 
ATOM      4  C   UNL d   1      52.320  30.624  53.303  0.00  0.00     0.007 A 
ATOM      5  C   UNL d   1      53.581  31.680  53.425  0.00  0.00     0.019 A 
ATOM      6  C   UNL d   1      52.218  31.419  53.110  0.00  0.00     0.019 A 
ENDROOT
BRANCH   2   7
ATOM      7  N   UNL d   1      52.747  32.739  52.979  0.00  0.00    -0.192 NA
ATOM      8  C   UNL d   1      52.716  33.301  53.584  0.00  0.00     0.354 C 
ATOM      9  N   UNL d   1      52.613  34.092  53.403  0.00  0.00    -0.256 N 
ATOM     10  O   UNL d   1      52.789  33.066  54.376  0.00  0.00    -0.244 OA
BRANCH   9  11
ATOM     11  C   UNL d   1      52.541  34.321  52.610  0.00  0.00     0.085 C 
ATOM     12  C   UNL d   1      51.854  34.699  52.350  0.00  0.00     0.021 C 
ENDBRANCH   9  11
BRANCH   9  13
ATOM     13  C   UNL d   1      52.582  34.651  54.012  0.00  0.00     0.085 C 
ATOM     14  C   UNL d   1      53.121  35.277  54.015  0.00  0.00     0.021 C 
ENDBRANCH   9  13
ENDBRANCH   2   7
BRANCH   1  15
ATOM     15  C   UNL d   1      53.146  29.567  53.746  0.00  0.00     0.296 C 
ATOM     16  O   UNL d   1      52.890  28.983  53.233  0.00  0.00    -0.259 OA
BRANCH  15  17
ATOM     17  O   UNL d   1      53.504  29.359  54.462  0.00  0.00    -0.296 OA
ATOM     18  C   UNL d   1      53.471  28.583  54.717  0.00  0.00     0.185 C 
ENDBRANCH  15  17
ENDBRANCH   1  15
TORSDOF 5
ENDMDL
MODEL 3
REMARK VINA RESULT:      -6.2      2.106      3.040
REMARK  5 active torsions:
REMARK  status: ('A' for Active; 'I' for Inactive)
REMARK       I    between atoms: N_2  and  C_1 
REMARK       I    between atoms: N_4  and  C_1 
REMARK    1  A    between atoms: C_8  and  N_2 
REMARK    2  A    between atoms: C_3  and  C_5 
REMARK    3  A    between atoms: O_11  and  C_3 
REMARK    4  A    between atoms: C_14  and  N_4 
REMARK    5  A    between atoms: C_15  and  N_4 
ROOT
ATOM      1  C   UNL d   1      52.852  34.173  53.697  0.00  0.00     0.063 A 
ATOM      2  C   UNL d   1      52.799  32.563  53.342  0.00  0.00     0.086 A 
ATOM      3  C   UNL d   1      53.531  33.785  53.428  0.00  0.00     0.007 A 
ATOM      4  C   UNL d   1      52.151  33.761  53.788  0.00  0.00     0.007 A 
ATOM      5  C   UNL d   1      53.499  32.975  53.251  0.00  0.00     0.019 A 
ATOM      6  C   UNL d   1      52.122  32.956  53.611  0.00  0.00     0.019 A 
ENDROOT
BRANCH   2   7
ATOM      7  N   UNL d   1      52.767  31.762  53.167  0.00  0.00    -0.192 NA
ATOM      8  C   UNL d   1      53.199  31.230  53.630  0.00  0.00     0.354 C 
ATOM      9  N   UNL d   1      53.175  30.430  53.464  0.00  0.00    -0.256 N 
ATOM     10  O   UNL d   1      53.658  31.505  54.264  0.00  0.00    -0.244 OA
BRANCH   9  11
ATOM     11  C   UNL d   1      52.715  30.160  52.830  0.00  0.00     0.085 C 
ATOM     12  C   UNL d   1      52.945  29.486  52.410  0.00  0.00     0.021 C 
ENDBRANCH   9  11
BRANCH   9  13
ATOM     13  C   UNL d   1      53.608  29.901  53.930  0.00  0.00     0.085 C 
ATOM     14  C   UNL d   1      53.215  29.292  54.324  0.00  0.00     0.021 C 
ENDBRANCH   9  13
ENDBRANCH   2   7
BRANCH   1  15
ATOM     15  C   UNL d   1      52.876  34.971  53.873  0.00  0.00     0.296 C 
ATOM     16  O   UNL d   1      52.544  35.518  53.362  0.00  0.00    -0.259 OA
BRANCH  15  17
ATOM     17  O   UNL d   1      53.237  35.225  54.571  0.00  0.00    -0.296 OA
ATOM     18  C   UNL d   1      53.188  36.013  54.785  0.00  0.00     0.185 C 
ENDBRANCH  15  17
ENDBRANCH   1  15
TORSDOF 5
ENDMDL
MODEL 4
REMARK VINA RESULT:      -6.1      1.340      4.343
REMARK  5 active torsions:
REMARK  status: ('A' for Active; 'I' for Inactive)
REMARK       I    between atoms: N_2  and  C_1 
REMARK       I    between atoms: N_4  and  C_1 
REMARK    1  A    between atoms: C_8  and  N_2 
REMARK    2  A    between atoms: C_3  and  C_5 
REMARK    3  A    between atoms: O_11  and  C_3 
REMARK    4  A    between atoms: C_14  and  N_4 
REMARK    5  A    between atoms: C_15  and  N_4 
ROOT
ATOM      1  C   UNL d   1      53.022  33.468  53.520  0.00  0.00     0.063 A 
ATOM      2  C   UNL d   1      51.664  33.930  52.705  0.00  0.00     0.086 A 
ATOM      3  C   UNL d   1      52.896  34.266  53.343  0.00  0.00     0.007 A 
ATOM      4  C   UNL d   1      52.475  32.905  53.293  0.00  0.00     0.007 A 
ATOM      5  C   UNL d   1      52.211  34.493  52.933  0.00  0.00     0.019 A 
ATOM      6  C   UNL d   1      51.795  33.133  52.885  0.00  0.00     0.019 A 
ENDROOT
BRANCH   2   7
ATOM      7  N   UNL d   1      50.987  34.155  52.300  0.00  0.00    -0.192 NA
ATOM      8  C   UNL d   1      50.312  34.367  52.728  0.00  0.00     0.354 C 
ATOM      9  N   UNL d   1      49.632  34.593  52.333  0.00  0.00    -0.256 N 
ATOM     10  O   UNL d   1      50.322  34.353  53.557  0.00  0.00    -0.244 OA
BRANCH   9  11
ATOM     11  C   UNL d   1      49.628  34.606  51.505  0.00  0.00     0.085 C 
ATOM     12  C   UNL d   1      48.915  34.526  51.095  0.00  0.00     0.021 C 
ENDBRANCH   9  11
BRANCH   9  13
ATOM     13  C   UNL d   1      48.960  34.805  52.766  0.00  0.00     0.085 C 
ATOM     14  C   UNL d   1      48.681  35.581  52.726  0.00  0.00     0.021 C 
ENDBRANCH   9  13
ENDBRANCH   2   7
BRANCH   1  15
ATOM     15  C   UNL d   1      53.695  33.237  53.924  0.00  0.00     0.296 C 
ATOM     16  O   UNL d   1      54.362  32.998  53.514  0.00  0.00    -0.259 OA
BRANCH  15  17
ATOM     17  O   UNL d   1      53.699  33.246  54.750  0.00  0.00    -0.296 OA
ATOM     18  C   UNL d   1      54.383  33.042  55.150  0.00  0.00     0.185 C 
ENDBRANCH  15  17
ENDBRANCH   1  15
TORSDOF 5
ENDMDL
