MODEL 1
REMARK VINA RESULT:      25.1      0.000      0.000
REMARK  5 active torsions:
REMARK  status: ('A' for Active; 'I' for Inactive)
REMARK    1  A    between atoms: N_2  and  S_1 
REMARK    2  A    between atoms: C_3  and  S_1 
REMARK    3  A    between atoms: C_6  and  C_4 
REMARK    4  A    between atoms: O_15  and  C_6 
REMARK    5  A    between atoms: C_18  and  O_15 
ROOT
ATOM      1  N   UNL d   1     -57.673 -98.841 -44.498  0.00  0.00    -0.229 N 
ATOM      2  C   UNL d   1     -58.818 -98.783 -45.337  0.00  0.00     0.082 A 
ATOM      3  C   UNL d   1     -58.000 -98.826 -45.246  0.00  0.00     0.097 A 
ATOM      4  C   UNL d   1     -58.157 -98.814 -43.831  0.00  0.00     0.092 A 
ATOM      5  C   UNL d   1     -59.309 -98.756 -44.680  0.00  0.00     0.008 A 
ATOM      6  C   UNL d   1     -58.978 -98.772 -43.925  0.00  0.00     0.020 A 
ENDROOT
BRANCH   1   7
ATOM      7  S   UNL d   1     -56.855 -98.883 -44.407  0.00  0.00     0.277 S 
ATOM      8  O   UNL d   1     -56.951 -98.988 -43.596  0.00  0.00    -0.199 OA
ATOM      9  O   UNL d   1     -56.759 -98.778 -45.221  0.00  0.00    -0.199 OA
BRANCH   7  10
ATOM     10  C   UNL d   1     -56.035 -98.926 -44.316  0.00  0.00     0.133 A 
ATOM     11  S   UNL d   1     -55.428 -98.874 -43.772  0.00  0.00    -0.074 SA
ATOM     12  C   UNL d   1     -54.712 -98.994 -44.169  0.00  0.00     0.036 A 
ATOM     13  C   UNL d   1     -54.894 -99.121 -44.968  0.00  0.00     0.008 A 
ATOM     14  C   UNL d   1     -55.712 -99.079 -45.059  0.00  0.00     0.020 A 
ENDBRANCH   7  10
ENDBRANCH   1   7
BRANCH   2  15
ATOM     15  C   UNL d   1     -59.145 -98.768 -46.099  0.00  0.00     0.302 C 
ATOM     16  O   UNL d   1     -59.961 -98.763 -46.205  0.00  0.00    -0.259 OA
BRANCH  15  17
ATOM     17  O   UNL d   1     -58.645 -98.758 -46.756  0.00  0.00    -0.271 OA
BRANCH  17  18
ATOM     18  C   UNL d   1     -58.961 -98.759 -47.512  0.00  0.00     0.126 C 
ATOM     19  C   UNL d   1     -59.757 -98.944 -47.629  0.00  0.00     0.029 C 
ENDBRANCH  17  18
ENDBRANCH  15  17
ENDBRANCH   2  15
TORSDOF 5
ENDMDL
MODEL 2
REMARK VINA RESULT:      26.9      2.169      3.287
REMARK  5 active torsions:
REMARK  status: ('A' for Active; 'I' for Inactive)
REMARK    1  A    between atoms: N_2  and  S_1 
REMARK    2  A    between atoms: C_3  and  S_1 
REMARK    3  A    between atoms: C_6  and  C_4 
REMARK    4  A    between atoms: O_15  and  C_6 
REMARK    5  A    between atoms: C_18  and  O_15 
ROOT
ATOM      1  N   UNL d   1     -55.320-100.167 -44.291  0.00  0.00    -0.229 N 
ATOM      2  C   UNL d   1     -56.254 -99.179 -44.703  0.00  0.00     0.082 A 
ATOM      3  C   UNL d   1     -56.086 -99.884 -44.312  0.00  0.00     0.097 A 
ATOM      4  C   UNL d   1     -54.711 -99.749 -44.660  0.00  0.00     0.092 A 
ATOM      5  C   UNL d   1     -55.656 -98.756 -45.073  0.00  0.00     0.008 A 
ATOM      6  C   UNL d   1     -54.883 -99.041 -45.051  0.00  0.00     0.020 A 
ENDROOT
BRANCH   1   7
ATOM      7  S   UNL d   1     -55.152-100.872 -43.900  0.00  0.00     0.277 S 
ATOM      8  O   UNL d   1     -55.150-100.472 -43.180  0.00  0.00    -0.199 OA
ATOM      9  O   UNL d   1     -55.154-101.273 -44.622  0.00  0.00    -0.199 OA
BRANCH   7  10
ATOM     10  C   UNL d   1     -54.983-101.579 -43.508  0.00  0.00     0.133 A 
ATOM     11  S   UNL d   1     -54.875-101.917 -42.772  0.00  0.00    -0.074 SA
ATOM     12  C   UNL d   1     -54.711-102.721 -42.876  0.00  0.00     0.036 A 
ATOM     13  C   UNL d   1     -54.721-102.869 -43.692  0.00  0.00     0.008 A 
ATOM     14  C   UNL d   1     -54.889-102.164 -44.083  0.00  0.00     0.020 A 
ENDBRANCH   7  10
ENDBRANCH   1   7
BRANCH   2  15
ATOM     15  C   UNL d   1     -57.033 -98.897 -44.722  0.00  0.00     0.302 C 
ATOM     16  O   UNL d   1     -57.411 -98.757 -45.439  0.00  0.00    -0.259 OA
BRANCH  15  17
ATOM     17  O   UNL d   1     -57.432 -98.756 -44.012  0.00  0.00    -0.271 OA
BRANCH  17  18
ATOM     18  C   UNL d   1     -58.216 -98.983 -43.930  0.00  0.00     0.126 C 
ATOM     19  C   UNL d   1     -58.633 -98.789 -43.244  0.00  0.00     0.029 C 
ENDBRANCH  17  18
ENDBRANCH  15  17
ENDBRANCH   2  15
TORSDOF 5
ENDMDL
