MODEL 1
REMARK VINA RESULT:      25.7      0.000      0.000
REMARK  4 active torsions:
REMARK  status: ('A' for Active; 'I' for Inactive)
REMARK    1  A    between atoms: C_7  and  C_1 
REMARK    2  A    between atoms: N_5  and  C_2 
REMARK    3  A    between atoms: C_12  and  N_5 
REMARK    4  A    between atoms: O_21  and  C_14 
ROOT
ATOM      1  C   UNL d   1      46.141 -19.499  43.808  0.00  0.00     0.101 A 
ATOM      2  C   UNL d   1      46.262 -18.671  43.840  0.00  0.00     0.187 A 
ATOM      3  C   UNL d   1      46.148 -19.878  43.076  0.00  0.00     0.010 A 
ATOM      4  O   UNL d   1      46.386 -18.250  43.139  0.00  0.00    -0.289 OA
ATOM      5  C   UNL d   1      46.392 -18.635  42.409  0.00  0.00     0.104 A 
ATOM      6  C   UNL d   1      46.271 -19.463  42.378  0.00  0.00     0.023 A 
ATOM      7  C   UNL d   1      46.516 -18.214  41.708  0.00  0.00     0.049 A 
ATOM      8  C   UNL d   1      46.278 -19.843  41.646  0.00  0.00     0.004 A 
ATOM      9  C   UNL d   1      46.523 -18.600  40.976  0.00  0.00     0.096 A 
ATOM     10  C   UNL d   1      46.402 -19.427  40.944  0.00  0.00     0.024 A 
ENDROOT
BRANCH   2  11
ATOM     11  N   UNL d   1      46.256 -18.285  44.566  0.00  0.00    -0.222 NA
BRANCH  11  12
ATOM     12  C   UNL d   1      46.004 -17.488  44.611  0.00  0.00     0.084 A 
ATOM     13  C   UNL d   1      45.257 -17.309  44.909  0.00  0.00     0.019 A 
ATOM     14  C   UNL d   1      45.008 -16.521  44.953  0.00  0.00     0.002 A 
ATOM     15  C   UNL d   1      45.512 -15.930  44.699  0.00  0.00     0.000 A 
ATOM     16  C   UNL d   1      46.252 -16.097  44.403  0.00  0.00     0.002 A 
ATOM     17  C   UNL d   1      45.279 -15.139  44.736  0.00  0.00     0.000 C 
ATOM     18  C   UNL d   1      46.501 -16.885  44.359  0.00  0.00     0.019 A 
ENDBRANCH  11  12
ENDBRANCH   2  11
BRANCH   1  19
ATOM     19  C   UNL d   1      46.015 -19.932  44.503  0.00  0.00     0.300 C 
ATOM     20  O   UNL d   1      46.645 -20.276  44.898  0.00  0.00    -0.264 OA
ATOM     21  N   UNL d   1      45.246 -20.010  44.792  0.00  0.00    -0.102 N 
ENDBRANCH   1  19
BRANCH   9  22
ATOM     22  O   UNL d   1      46.645 -18.187  40.284  0.00  0.00    -0.328 OA
ATOM     23  C   UNL d   1      45.997 -17.981  39.817  0.00  0.00     0.181 C 
ENDBRANCH   9  22
TORSDOF 4
ENDMDL
