MODEL 1
REMARK VINA RESULT:      -2.9      0.000      0.000
REMARK  4 active torsions:
REMARK  status: ('A' for Active; 'I' for Inactive)
REMARK    1  A    between atoms: C_6  and  C_1 
REMARK    2  A    between atoms: C_13  and  C_2 
REMARK    3  A    between atoms: P_4  and  C_3 
REMARK    4  A    between atoms: C_17  and  C_13 
ROOT
ATOM      1  C   UNL d   1      31.448  16.382 -23.822  0.00  0.00     0.112 A 
ATOM      2  C   UNL d   1      31.966  17.018 -23.812  0.00  0.00     0.052 A 
ATOM      3  N   UNL d   1      31.856  15.716 -23.545  0.00  0.00    -0.217 NA
ATOM      4  C   UNL d   1      32.630  15.947 -23.365  0.00  0.00     0.215 A 
ATOM      5  S   UNL d   1      32.695  16.748 -23.529  0.00  0.00    -0.045 SA
ATOM      6  N   UNL d   1      33.240  15.453 -23.067  0.00  0.00    -0.120 N 
ENDROOT
BRANCH   1   7
ATOM      7  C   UNL d   1      30.661  16.434 -24.072  0.00  0.00     0.119 A 
ATOM      8  O   UNL d   1      30.023  16.480 -23.552  0.00  0.00    -0.297 OA
ATOM      9  C   UNL d   1      29.330  16.525 -23.999  0.00  0.00     0.191 A 
ATOM     10  C   UNL d   1      29.541  16.507 -24.795  0.00  0.00     0.036 A 
ATOM     11  C   UNL d   1      30.361  16.451 -24.839  0.00  0.00     0.029 A 
BRANCH   9  12
ATOM     12  P   UNL d   1      28.555  16.579 -23.705  0.00  0.00     0.321 P 
ATOM     13  O   UNL d   1      28.636  15.826 -23.365  0.00  0.00    -0.635 OA
ATOM     14  O   UNL d   1      28.479  17.330 -24.047  0.00  0.00    -0.635 OA
ATOM     15  O   UNL d   1      27.782  16.636 -23.415  0.00  0.00    -0.635 OA
ENDBRANCH   9  12
ENDBRANCH   1   7
BRANCH   2  16
ATOM     16  C   UNL d   1      31.788  17.791 -24.043  0.00  0.00     0.008 C 
BRANCH  16  17
ATOM     17  C   UNL d   1      32.374  18.371 -24.031  0.00  0.00     0.001 C 
ATOM     18  C   UNL d   1      32.806  18.544 -24.725  0.00  0.00     0.000 C 
ATOM     19  C   UNL d   1      32.534  18.780 -23.333  0.00  0.00     0.000 C 
ENDBRANCH  16  17
ENDBRANCH   2  16
TORSDOF 4
ENDMDL
MODEL 2
REMARK VINA RESULT:      -2.5      1.168      1.862
REMARK  4 active torsions:
REMARK  status: ('A' for Active; 'I' for Inactive)
REMARK    1  A    between atoms: C_6  and  C_1 
REMARK    2  A    between atoms: C_13  and  C_2 
REMARK    3  A    between atoms: P_4  and  C_3 
REMARK    4  A    between atoms: C_17  and  C_13 
ROOT
ATOM      1  C   UNL d   1      31.245  17.264 -24.476  0.00  0.00     0.112 A 
ATOM      2  C   UNL d   1      31.937  16.880 -24.265  0.00  0.00     0.052 A 
ATOM      3  N   UNL d   1      31.432  18.055 -24.640  0.00  0.00    -0.217 NA
ATOM      4  C   UNL d   1      32.245  18.153 -24.527  0.00  0.00     0.215 A 
ATOM      5  S   UNL d   1      32.554  17.429 -24.297  0.00  0.00    -0.045 SA
ATOM      6  N   UNL d   1      32.680  18.864 -24.630  0.00  0.00    -0.120 N 
ENDROOT
BRANCH   1   7
ATOM      7  C   UNL d   1      30.505  16.895 -24.509  0.00  0.00     0.119 A 
ATOM      8  O   UNL d   1      29.935  16.969 -23.918  0.00  0.00    -0.297 OA
ATOM      9  C   UNL d   1      29.274  16.527 -24.141  0.00  0.00     0.191 A 
ATOM     10  C   UNL d   1      29.437  16.180 -24.870  0.00  0.00     0.036 A 
ATOM     11  C   UNL d   1      30.195  16.407 -25.096  0.00  0.00     0.029 A 
BRANCH   9  12
ATOM     12  P   UNL d   1      28.568  16.443 -23.712  0.00  0.00     0.321 P 
ATOM     13  O   UNL d   1      28.356  17.219 -23.916  0.00  0.00    -0.635 OA
ATOM     14  O   UNL d   1      28.784  15.668 -23.511  0.00  0.00    -0.635 OA
ATOM     15  O   UNL d   1      27.865  16.355 -23.284  0.00  0.00    -0.635 OA
ENDBRANCH   9  12
ENDBRANCH   1   7
BRANCH   2  16
ATOM     16  C   UNL d   1      32.003  16.082 -24.056  0.00  0.00     0.008 C 
BRANCH  16  17
ATOM     17  C   UNL d   1      32.739  15.768 -23.857  0.00  0.00     0.001 C 
ATOM     18  C   UNL d   1      33.236  15.456 -24.452  0.00  0.00     0.000 C 
ATOM     19  C   UNL d   1      32.984  15.761 -23.069  0.00  0.00     0.000 C 
ENDBRANCH  16  17
ENDBRANCH   2  16
TORSDOF 4
ENDMDL
MODEL 3
REMARK VINA RESULT:      -2.1      2.480      3.825
REMARK  4 active torsions:
REMARK  status: ('A' for Active; 'I' for Inactive)
REMARK    1  A    between atoms: C_6  and  C_1 
REMARK    2  A    between atoms: C_13  and  C_2 
REMARK    3  A    between atoms: P_4  and  C_3 
REMARK    4  A    between atoms: C_17  and  C_13 
ROOT
ATOM      1  C   UNL d   1      30.014  17.000 -24.516  0.00  0.00     0.112 A 
ATOM      2  C   UNL d   1      29.301  16.697 -24.248  0.00  0.00     0.052 A 
ATOM      3  N   UNL d   1      29.864  17.743 -24.853  0.00  0.00    -0.217 NA
ATOM      4  C   UNL d   1      29.054  17.893 -24.789  0.00  0.00     0.215 A 
ATOM      5  S   UNL d   1      28.709  17.249 -24.417  0.00  0.00    -0.045 SA
ATOM      6  N   UNL d   1      28.653  18.581 -25.057  0.00  0.00    -0.120 N 
ENDROOT
BRANCH   1   7
ATOM      7  C   UNL d   1      30.738  16.606 -24.445  0.00  0.00     0.119 A 
ATOM      8  O   UNL d   1      31.258  16.722 -23.817  0.00  0.00    -0.297 OA
ATOM      9  C   UNL d   1      31.916  16.238 -23.934  0.00  0.00     0.191 A 
ATOM     10  C   UNL d   1      31.802  15.822 -24.636  0.00  0.00     0.036 A 
ATOM     11  C   UNL d   1      31.076  16.049 -24.950  0.00  0.00     0.029 A 
BRANCH   9  12
ATOM     12  P   UNL d   1      32.579  16.175 -23.438  0.00  0.00     0.321 P 
ATOM     13  O   UNL d   1      32.275  15.466 -23.129  0.00  0.00    -0.635 OA
ATOM     14  O   UNL d   1      32.878  16.882 -23.749  0.00  0.00    -0.635 OA
ATOM     15  O   UNL d   1      33.241  16.115 -22.945  0.00  0.00    -0.635 OA
ENDBRANCH   9  12
ENDBRANCH   1   7
BRANCH   2  16
ATOM     16  C   UNL d   1      29.196  15.967 -23.874  0.00  0.00     0.008 C 
BRANCH  16  17
ATOM     17  C   UNL d   1      28.471  15.781 -23.528  0.00  0.00     0.001 C 
ATOM     18  C   UNL d   1      27.858  15.453 -23.991  0.00  0.00     0.000 C 
ATOM     19  C   UNL d   1      28.351  15.920 -22.724  0.00  0.00     0.000 C 
ENDBRANCH  16  17
ENDBRANCH   2  16
TORSDOF 4
ENDMDL
MODEL 4
REMARK VINA RESULT:      -1.1      2.222      3.574
REMARK  4 active torsions:
REMARK  status: ('A' for Active; 'I' for Inactive)
REMARK    1  A    between atoms: C_6  and  C_1 
REMARK    2  A    between atoms: C_13  and  C_2 
REMARK    3  A    between atoms: P_4  and  C_3 
REMARK    4  A    between atoms: C_17  and  C_13 
ROOT
ATOM      1  C   UNL d   1      30.547  16.047 -23.522  0.00  0.00     0.112 A 
ATOM      2  C   UNL d   1      29.816  15.999 -23.888  0.00  0.00     0.052 A 
ATOM      3  N   UNL d   1      30.446  15.849 -22.723  0.00  0.00    -0.217 NA
ATOM      4  C   UNL d   1      29.646  15.680 -22.602  0.00  0.00     0.215 A 
ATOM      5  S   UNL d   1      29.260  15.772 -23.319  0.00  0.00    -0.045 SA
ATOM      6  N   UNL d   1      29.290  15.453 -21.876  0.00  0.00    -0.120 N 
ENDROOT
BRANCH   1   7
ATOM      7  C   UNL d   1      31.245  16.259 -23.913  0.00  0.00     0.119 A 
ATOM      8  O   UNL d   1      31.553  17.024 -23.907  0.00  0.00    -0.297 OA
ATOM      9  C   UNL d   1      32.248  17.025 -24.353  0.00  0.00     0.191 A 
ATOM     10  C   UNL d   1      32.368  16.260 -24.635  0.00  0.00     0.036 A 
ATOM     11  C   UNL d   1      31.750  15.789 -24.364  0.00  0.00     0.029 A 
BRANCH   9  12
ATOM     12  P   UNL d   1      32.742  17.676 -24.497  0.00  0.00     0.321 P 
ATOM     13  O   UNL d   1      33.148  17.235 -25.073  0.00  0.00    -0.635 OA
ATOM     14  O   UNL d   1      32.335  18.111 -23.922  0.00  0.00    -0.635 OA
ATOM     15  O   UNL d   1      33.234  18.327 -24.638  0.00  0.00    -0.635 OA
ENDBRANCH   9  12
ENDBRANCH   1   7
BRANCH   2  16
ATOM     16  C   UNL d   1      29.663  16.151 -24.686  0.00  0.00     0.008 C 
BRANCH  16  17
ATOM     17  C   UNL d   1      28.885  16.185 -24.959  0.00  0.00     0.001 C 
ATOM     18  C   UNL d   1      28.521  16.924 -25.095  0.00  0.00     0.000 C 
ATOM     19  C   UNL d   1      28.467  15.487 -25.096  0.00  0.00     0.000 C 
ENDBRANCH  16  17
ENDBRANCH   2  16
TORSDOF 4
ENDMDL
MODEL 5
REMARK VINA RESULT:      -0.7      2.106      2.890
REMARK  4 active torsions:
REMARK  status: ('A' for Active; 'I' for Inactive)
REMARK    1  A    between atoms: C_6  and  C_1 
REMARK    2  A    between atoms: C_13  and  C_2 
REMARK    3  A    between atoms: P_4  and  C_3 
REMARK    4  A    between atoms: C_17  and  C_13 
ROOT
ATOM      1  C   UNL d   1      32.775  18.507 -23.076  0.00  0.00     0.112 A 
ATOM      2  C   UNL d   1      32.879  19.125 -23.603  0.00  0.00     0.052 A 
ATOM      3  N   UNL d   1      32.887  18.803 -22.310  0.00  0.00    -0.217 NA
ATOM      4  C   UNL d   1      33.060  19.609 -22.371  0.00  0.00     0.215 A 
ATOM      5  S   UNL d   1      33.055  19.806 -23.167  0.00  0.00    -0.045 SA
ATOM      6  N   UNL d   1      33.214  20.135 -21.734  0.00  0.00    -0.120 N 
ENDROOT
BRANCH   1   7
ATOM      7  C   UNL d   1      32.591  17.733 -23.305  0.00  0.00     0.119 A 
ATOM      8  O   UNL d   1      31.819  17.453 -23.374  0.00  0.00    -0.297 OA
ATOM      9  C   UNL d   1      31.853  16.662 -23.612  0.00  0.00     0.191 A 
ATOM     10  C   UNL d   1      32.647  16.456 -23.690  0.00  0.00     0.036 A 
ATOM     11  C   UNL d   1      33.101  17.115 -23.500  0.00  0.00     0.029 A 
BRANCH   9  12
ATOM     12  P   UNL d   1      31.207  16.160 -23.751  0.00  0.00     0.321 P 
ATOM     13  O   UNL d   1      31.063  16.550 -24.469  0.00  0.00    -0.635 OA
ATOM     14  O   UNL d   1      31.356  15.773 -23.033  0.00  0.00    -0.635 OA
ATOM     15  O   UNL d   1      30.564  15.656 -23.886  0.00  0.00    -0.635 OA
ENDBRANCH   9  12
ENDBRANCH   1   7
BRANCH   2  16
ATOM     16  C   UNL d   1      32.818  19.076 -24.427  0.00  0.00     0.008 C 
BRANCH  16  17
ATOM     17  C   UNL d   1      32.636  19.748 -24.869  0.00  0.00     0.001 C 
ATOM     18  C   UNL d   1      33.241  20.282 -25.085  0.00  0.00     0.000 C 
ATOM     19  C   UNL d   1      31.857  19.892 -25.097  0.00  0.00     0.000 C 
ENDBRANCH  16  17
ENDBRANCH   2  16
TORSDOF 4
ENDMDL
MODEL 6
REMARK VINA RESULT:      -0.0      2.563      3.480
REMARK  4 active torsions:
REMARK  status: ('A' for Active; 'I' for Inactive)
REMARK    1  A    between atoms: C_6  and  C_1 
REMARK    2  A    between atoms: C_13  and  C_2 
REMARK    3  A    between atoms: P_4  and  C_3 
REMARK    4  A    between atoms: C_17  and  C_13 
ROOT
ATOM      1  C   UNL d   1      29.592  15.937 -24.093  0.00  0.00     0.112 A 
ATOM      2  C   UNL d   1      29.193  16.615 -24.323  0.00  0.00     0.052 A 
ATOM      3  N   UNL d   1      29.066  15.466 -23.658  0.00  0.00    -0.217 NA
ATOM      4  C   UNL d   1      28.341  15.861 -23.623  0.00  0.00     0.215 A 
ATOM      5  S   UNL d   1      28.420  16.567 -24.032  0.00  0.00    -0.045 SA
ATOM      6  N   UNL d   1      27.645  15.590 -23.237  0.00  0.00    -0.120 N 
ENDROOT
BRANCH   1   7
ATOM      7  C   UNL d   1      30.383  15.783 -24.281  0.00  0.00     0.119 A 
ATOM      8  O   UNL d   1      31.001  15.867 -23.743  0.00  0.00    -0.297 OA
ATOM      9  C   UNL d   1      31.705  15.665 -24.126  0.00  0.00     0.191 A 
ATOM     10  C   UNL d   1      31.520  15.456 -24.901  0.00  0.00     0.036 A 
ATOM     11  C   UNL d   1      30.706  15.529 -24.996  0.00  0.00     0.029 A 
BRANCH   9  12
ATOM     12  P   UNL d   1      32.466  15.670 -23.795  0.00  0.00     0.321 P 
ATOM     13  O   UNL d   1      32.793  15.650 -24.558  0.00  0.00    -0.635 OA
ATOM     14  O   UNL d   1      32.136  15.689 -23.035  0.00  0.00    -0.635 OA
ATOM     15  O   UNL d   1      33.224  15.674 -23.462  0.00  0.00    -0.635 OA
ENDBRANCH   9  12
ENDBRANCH   1   7
BRANCH   2  16
ATOM     16  C   UNL d   1      29.510  17.236 -24.768  0.00  0.00     0.008 C 
BRANCH  16  17
ATOM     17  C   UNL d   1      29.196  17.996 -24.698  0.00  0.00     0.001 C 
ATOM     18  C   UNL d   1      28.491  18.195 -25.097  0.00  0.00     0.000 C 
ATOM     19  C   UNL d   1      29.581  18.558 -24.233  0.00  0.00     0.000 C 
ENDBRANCH  16  17
ENDBRANCH   2  16
TORSDOF 4
ENDMDL
