MODEL 1
REMARK VINA RESULT:      76.5      0.000      0.000
REMARK  5 active torsions:
REMARK  status: ('A' for Active; 'I' for Inactive)
REMARK    1  A    between atoms: C_8  and  C_1 
REMARK    2  A    between atoms: N_9  and  C_8 
REMARK    3  A    between atoms: C_15  and  C_8 
REMARK    4  A    between atoms: C_16  and  N_11 
REMARK    5  A    between atoms: C_19  and  C_16 
ROOT
ATOM      1  C   UNL d   1      58.382  49.364  51.424  0.00  0.00     0.075 C 
ENDROOT
BRANCH   1   2
ATOM      2  C   UNL d   1      59.198  49.448  51.536  0.00  0.00     0.106 A 
ATOM      3  C   UNL d   1      59.769  49.534  50.934  0.00  0.00     0.290 A 
ATOM      4  N   UNL d   1      60.509  49.600  51.292  0.00  0.00    -0.169 N 
ATOM      5  O   UNL d   1      59.617  49.549  50.119  0.00  0.00    -0.265 OA
ATOM      6  N   UNL d   1      61.314  49.693  51.150  0.00  0.00    -0.138 NA
ATOM      7  C   UNL d   1      60.401  49.556  52.112  0.00  0.00     0.200 A 
ATOM      8  C   UNL d   1      61.708  49.707  51.875  0.00  0.00     0.222 A 
ATOM      9  N   UNL d   1      61.142  49.622  52.470  0.00  0.00    -0.197 NA
ATOM     10  S   UNL d   1      59.596  49.463  52.263  0.00  0.00    -0.042 SA
ENDBRANCH   1   2
BRANCH   1  11
ATOM     11  N   UNL d   1      57.879  49.405  52.075  0.00  0.00    -0.301 N 
ATOM     12  C   UNL d   1      57.098  49.662  51.974  0.00  0.00     0.100 A 
ATOM     13  C   UNL d   1      56.587  49.705  52.624  0.00  0.00     0.100 A 
ATOM     14  N   UNL d   1      56.859  49.489  53.386  0.00  0.00    -0.300 N 
ATOM     15  C   UNL d   1      57.642  49.234  53.476  0.00  0.00     0.100 A 
ATOM     16  C   UNL d   1      58.145  49.193  52.824  0.00  0.00     0.100 A 
BRANCH  14  17
ATOM     17  C   UNL d   1      56.357  49.531  54.030  0.00  0.00     0.080 C 
BRANCH  17  18
ATOM     18  C   UNL d   1      56.657  49.447  54.792  0.00  0.00     0.018 A 
ATOM     19  C   UNL d   1      56.195  49.117  55.388  0.00  0.00     0.002 A 
ATOM     20  C   UNL d   1      56.489  49.033  56.145  0.00  0.00     0.000 A 
ATOM     21  C   UNL d   1      57.258  49.282  56.317  0.00  0.00     0.000 A 
ATOM     22  C   UNL d   1      57.729  49.615  55.723  0.00  0.00     0.000 A 
ATOM     23  C   UNL d   1      57.423  49.696  54.962  0.00  0.00     0.002 A 
ENDBRANCH  17  18
ENDBRANCH  14  17
ENDBRANCH   1  11
BRANCH   1  24
ATOM     24  C   UNL d   1      58.080  49.243  50.670  0.00  0.00     0.017 A 
ATOM     25  C   UNL d   1      57.428  48.742  50.575  0.00  0.00     0.002 A 
ATOM     26  C   UNL d   1      57.126  48.621  49.813  0.00  0.00     0.000 A 
ATOM     27  C   UNL d   1      57.461  48.983  49.174  0.00  0.00     0.000 A 
ATOM     28  C   UNL d   1      58.122  49.487  49.291  0.00  0.00     0.000 A 
ATOM     29  C   UNL d   1      58.424  49.613  50.029  0.00  0.00     0.002 A 
ENDBRANCH   1  24
TORSDOF 5
ENDMDL
