MODEL 1
REMARK VINA RESULT:      -7.6      0.000      0.000
REMARK  5 active torsions:
REMARK  status: ('A' for Active; 'I' for Inactive)
REMARK    1  A    between atoms: C_3  and  C_1 
REMARK    2  A    between atoms: C_7  and  C_2 
REMARK       I    between atoms: N_5  and  C_3 
REMARK    3  A    between atoms: C_6  and  N_5 
REMARK    4  A    between atoms: N_10  and  C_6 
REMARK    5  A    between atoms: C_14  and  N_10 
ROOT
ATOM      1  C   UNL d   1     -49.668  12.935  22.161  0.00  0.00     0.103 A 
ATOM      2  C   UNL d   1     -50.045  13.661  22.027  0.00  0.00     0.116 A 
ATOM      3  N   UNL d   1     -50.518  13.576  21.355  0.00  0.00    -0.126 NA
ATOM      4  O   UNL d   1     -50.434  12.801  21.075  0.00  0.00    -0.211 OA
ATOM      5  C   UNL d   1     -49.915  12.419  21.574  0.00  0.00     0.131 A 
ATOM      6  C   UNL d   1     -49.673  11.637  21.499  0.00  0.00     0.029 C 
ENDROOT
BRANCH   1   7
ATOM      7  C   UNL d   1     -49.148  12.784  22.776  0.00  0.00     0.285 C 
ATOM      8  N   UNL d   1     -48.347  12.671  22.648  0.00  0.00    -0.179 NA
ATOM      9  O   UNL d   1     -49.441  12.745  23.551  0.00  0.00    -0.265 OA
BRANCH   8  10
ATOM     10  C   UNL d   1     -47.827  12.520  23.263  0.00  0.00     0.223 C 
ATOM     11  S   UNL d   1     -47.910  11.819  23.697  0.00  0.00    -0.037 SA
BRANCH  10  12
ATOM     12  N   UNL d   1     -47.226  13.050  23.456  0.00  0.00    -0.217 NA
BRANCH  12  13
ATOM     13  C   UNL d   1     -46.517  13.019  23.054  0.00  0.00     0.084 A 
ATOM     14  C   UNL d   1     -46.062  12.323  23.083  0.00  0.00     0.019 A 
ATOM     15  C   UNL d   1     -45.346  12.292  22.678  0.00  0.00     0.002 A 
ATOM     16  C   UNL d   1     -45.081  12.948  22.244  0.00  0.00     0.000 A 
ATOM     17  C   UNL d   1     -45.541  13.644  22.218  0.00  0.00     0.002 A 
ATOM     18  C   UNL d   1     -44.359  12.916  21.835  0.00  0.00     0.000 C 
ATOM     19  C   UNL d   1     -46.262  13.675  22.626  0.00  0.00     0.019 A 
ENDBRANCH  12  13
ENDBRANCH  10  12
ENDBRANCH   8  10
ENDBRANCH   1   7
BRANCH   2  20
ATOM     20  C   UNL d   1     -49.964  14.345  22.480  0.00  0.00     0.031 A 
ATOM     21  C   UNL d   1     -49.576  15.001  22.170  0.00  0.00     0.059 A 
ATOM     22 CL   UNL d   1     -49.270  14.972  21.408  0.00  0.00    -0.082 Cl
ATOM     23  C   UNL d   1     -49.498  15.677  22.625  0.00  0.00     0.011 A 
ATOM     24  C   UNL d   1     -49.807  15.708  23.396  0.00  0.00     0.001 A 
ATOM     25  C   UNL d   1     -50.194  15.046  23.698  0.00  0.00     0.000 A 
ATOM     26  C   UNL d   1     -50.279  14.355  23.247  0.00  0.00     0.002 A 
ENDBRANCH   2  20
TORSDOF 5
ENDMDL
MODEL 2
REMARK VINA RESULT:      -5.8      1.250      2.181
REMARK  5 active torsions:
REMARK  status: ('A' for Active; 'I' for Inactive)
REMARK    1  A    between atoms: C_3  and  C_1 
REMARK    2  A    between atoms: C_7  and  C_2 
REMARK       I    between atoms: N_5  and  C_3 
REMARK    3  A    between atoms: C_6  and  N_5 
REMARK    4  A    between atoms: N_10  and  C_6 
REMARK    5  A    between atoms: C_14  and  N_10 
ROOT
ATOM      1  C   UNL d   1     -49.036  14.358  22.524  0.00  0.00     0.103 A 
ATOM      2  C   UNL d   1     -49.734  13.922  22.422  0.00  0.00     0.116 A 
ATOM      3  N   UNL d   1     -50.280  14.411  22.043  0.00  0.00    -0.126 NA
ATOM      4  O   UNL d   1     -49.923  15.145  21.909  0.00  0.00    -0.211 OA
ATOM      5  C   UNL d   1     -49.165  15.103  22.206  0.00  0.00     0.131 A 
ATOM      6  C   UNL d   1     -48.614  15.712  22.191  0.00  0.00     0.029 C 
ENDROOT
BRANCH   1   7
ATOM      7  C   UNL d   1     -48.354  14.075  22.879  0.00  0.00     0.285 C 
ATOM      8  N   UNL d   1     -47.675  13.918  22.449  0.00  0.00    -0.179 NA
ATOM      9  O   UNL d   1     -48.352  13.943  23.698  0.00  0.00    -0.265 OA
BRANCH   8  10
ATOM     10  C   UNL d   1     -46.993  13.634  22.805  0.00  0.00     0.223 C 
ATOM     11  S   UNL d   1     -46.588  14.119  23.342  0.00  0.00    -0.037 SA
BRANCH  10  12
ATOM     12  N   UNL d   1     -46.704  12.881  22.638  0.00  0.00    -0.217 NA
BRANCH  12  13
ATOM     13  C   UNL d   1     -45.922  12.787  22.424  0.00  0.00     0.084 A 
ATOM     14  C   UNL d   1     -45.600  13.277  21.834  0.00  0.00     0.019 A 
ATOM     15  C   UNL d   1     -44.811  13.182  21.618  0.00  0.00     0.002 A 
ATOM     16  C   UNL d   1     -44.342  12.604  21.985  0.00  0.00     0.000 A 
ATOM     17  C   UNL d   1     -44.671  12.116  22.577  0.00  0.00     0.002 A 
ATOM     18  C   UNL d   1     -43.547  12.508  21.767  0.00  0.00     0.000 C 
ATOM     19  C   UNL d   1     -45.465  12.211  22.795  0.00  0.00     0.019 A 
ENDBRANCH  12  13
ENDBRANCH  10  12
ENDBRANCH   8  10
ENDBRANCH   1   7
BRANCH   2  20
ATOM     20  C   UNL d   1     -49.861  13.142  22.658  0.00  0.00     0.031 A 
ATOM     21  C   UNL d   1     -49.945  12.550  22.093  0.00  0.00     0.059 A 
ATOM     22 CL   UNL d   1     -49.903  12.738  21.293  0.00  0.00    -0.082 Cl
ATOM     23  C   UNL d   1     -50.071  11.777  22.331  0.00  0.00     0.011 A 
ATOM     24  C   UNL d   1     -50.114  11.585  23.139  0.00  0.00     0.001 A 
ATOM     25  C   UNL d   1     -50.029  12.184  23.698  0.00  0.00     0.000 A 
ATOM     26  C   UNL d   1     -49.901  12.971  23.468  0.00  0.00     0.002 A 
ENDBRANCH   2  20
TORSDOF 5
ENDMDL
MODEL 3
REMARK VINA RESULT:      -5.5      9.358     10.160
REMARK  5 active torsions:
REMARK  status: ('A' for Active; 'I' for Inactive)
REMARK    1  A    between atoms: C_3  and  C_1 
REMARK    2  A    between atoms: C_7  and  C_2 
REMARK       I    between atoms: N_5  and  C_3 
REMARK    3  A    between atoms: C_6  and  N_5 
REMARK    4  A    between atoms: N_10  and  C_6 
REMARK    5  A    between atoms: C_14  and  N_10 
ROOT
ATOM      1  C   UNL d   1     -38.939  13.886  18.158  0.00  0.00     0.103 A 
ATOM      2  C   UNL d   1     -39.559  13.975  17.614  0.00  0.00     0.116 A 
ATOM      3  N   UNL d   1     -39.570  13.302  17.137  0.00  0.00    -0.126 NA
ATOM      4  O   UNL d   1     -38.961  12.798  17.383  0.00  0.00    -0.211 OA
ATOM      5  C   UNL d   1     -38.582  13.164  18.006  0.00  0.00     0.131 A 
ATOM      6  C   UNL d   1     -37.942  12.856  18.419  0.00  0.00     0.029 C 
ENDROOT
BRANCH   1   7
ATOM      7  C   UNL d   1     -38.739  14.434  18.733  0.00  0.00     0.285 C 
ATOM      8  N   UNL d   1     -38.853  14.285  19.531  0.00  0.00    -0.179 NA
ATOM      9  O   UNL d   1     -38.411  15.159  18.502  0.00  0.00    -0.265 OA
BRANCH   8  10
ATOM     10  C   UNL d   1     -38.653  14.833  20.107  0.00  0.00     0.223 C 
ATOM     11  S   UNL d   1     -37.940  15.249  20.035  0.00  0.00    -0.037 SA
BRANCH  10  12
ATOM     12  N   UNL d   1     -39.145  14.975  20.752  0.00  0.00    -0.217 NA
BRANCH  12  13
ATOM     13  C   UNL d   1     -39.015  14.579  21.453  0.00  0.00     0.084 A 
ATOM     14  C   UNL d   1     -38.436  14.860  21.979  0.00  0.00     0.019 A 
ATOM     15  C   UNL d   1     -38.306  14.460  22.688  0.00  0.00     0.002 A 
ATOM     16  C   UNL d   1     -38.747  13.782  22.873  0.00  0.00     0.000 A 
ATOM     17  C   UNL d   1     -39.327  13.504  22.341  0.00  0.00     0.002 A 
ATOM     18  C   UNL d   1     -38.616  13.379  23.587  0.00  0.00     0.000 C 
ATOM     19  C   UNL d   1     -39.459  13.907  21.629  0.00  0.00     0.019 A 
ENDBRANCH  12  13
ENDBRANCH  10  12
ENDBRANCH   8  10
ENDBRANCH   1   7
BRANCH   2  20
ATOM     20  C   UNL d   1     -40.072  14.619  17.559  0.00  0.00     0.031 A 
ATOM     21  C   UNL d   1     -39.985  15.163  16.949  0.00  0.00     0.059 A 
ATOM     22 CL   UNL d   1     -39.387  15.063  16.394  0.00  0.00    -0.082 Cl
ATOM     23  C   UNL d   1     -40.497  15.800  16.898  0.00  0.00     0.011 A 
ATOM     24  C   UNL d   1     -41.102  15.902  17.459  0.00  0.00     0.001 A 
ATOM     25  C   UNL d   1     -41.181  15.351  18.067  0.00  0.00     0.000 A 
ATOM     26  C   UNL d   1     -40.669  14.702  18.128  0.00  0.00     0.002 A 
ENDBRANCH   2  20
TORSDOF 5
ENDMDL
MODEL 4
REMARK VINA RESULT:      -5.4      1.357      1.514
REMARK  5 active torsions:
REMARK  status: ('A' for Active; 'I' for Inactive)
REMARK    1  A    between atoms: C_3  and  C_1 
REMARK    2  A    between atoms: C_7  and  C_2 
REMARK       I    between atoms: N_5  and  C_3 
REMARK    3  A    between atoms: C_6  and  N_5 
REMARK    4  A    between atoms: N_10  and  C_6 
REMARK    5  A    between atoms: C_14  and  N_10 
ROOT
ATOM      1  C   UNL d   1     -49.412  12.532  23.247  0.00  0.00     0.103 A 
ATOM      2  C   UNL d   1     -50.196  12.711  23.044  0.00  0.00     0.116 A 
ATOM      3  N   UNL d   1     -50.641  12.022  23.134  0.00  0.00    -0.126 NA
ATOM      4  O   UNL d   1     -50.137  11.418  23.392  0.00  0.00    -0.211 OA
ATOM      5  C   UNL d   1     -49.390  11.739  23.458  0.00  0.00     0.131 A 
ATOM      6  C   UNL d   1     -48.718  11.333  23.698  0.00  0.00     0.029 C 
ENDROOT
BRANCH   1   7
ATOM      7  C   UNL d   1     -48.791  13.065  23.233  0.00  0.00     0.285 C 
ATOM      8  N   UNL d   1     -48.125  12.941  22.772  0.00  0.00    -0.179 NA
ATOM      9  O   UNL d   1     -48.837  13.750  23.698  0.00  0.00    -0.265 OA
BRANCH   8  10
ATOM     10  C   UNL d   1     -47.503  13.475  22.757  0.00  0.00     0.223 C 
ATOM     11  S   UNL d   1     -47.565  14.152  22.283  0.00  0.00    -0.037 SA
BRANCH  10  12
ATOM     12  N   UNL d   1     -46.821  13.350  23.202  0.00  0.00    -0.217 NA
BRANCH  12  13
ATOM     13  C   UNL d   1     -46.119  13.177  22.824  0.00  0.00     0.084 A 
ATOM     14  C   UNL d   1     -45.723  12.469  23.006  0.00  0.00     0.019 A 
ATOM     15  C   UNL d   1     -45.014  12.293  22.624  0.00  0.00     0.002 A 
ATOM     16  C   UNL d   1     -44.699  12.818  22.065  0.00  0.00     0.000 A 
ATOM     17  C   UNL d   1     -45.100  13.528  21.886  0.00  0.00     0.002 A 
ATOM     18  C   UNL d   1     -43.984  12.642  21.680  0.00  0.00     0.000 C 
ATOM     19  C   UNL d   1     -45.814  13.704  22.270  0.00  0.00     0.019 A 
ENDBRANCH  12  13
ENDBRANCH  10  12
ENDBRANCH   8  10
ENDBRANCH   1   7
BRANCH   2  20
ATOM     20  C   UNL d   1     -50.480  13.445  22.796  0.00  0.00     0.031 A 
ATOM     21  C   UNL d   1     -50.754  13.541  22.027  0.00  0.00     0.059 A 
ATOM     22 CL   UNL d   1     -50.743  12.906  21.506  0.00  0.00    -0.082 Cl
ATOM     23  C   UNL d   1     -51.035  14.272  21.786  0.00  0.00     0.011 A 
ATOM     24  C   UNL d   1     -51.047  14.915  22.312  0.00  0.00     0.001 A 
ATOM     25  C   UNL d   1     -50.771  14.809  23.081  0.00  0.00     0.000 A 
ATOM     26  C   UNL d   1     -50.483  14.074  23.336  0.00  0.00     0.002 A 
ENDBRANCH   2  20
TORSDOF 5
ENDMDL
MODEL 5
REMARK VINA RESULT:      -5.0      7.801      9.909
REMARK  5 active torsions:
REMARK  status: ('A' for Active; 'I' for Inactive)
REMARK    1  A    between atoms: C_3  and  C_1 
REMARK    2  A    between atoms: C_7  and  C_2 
REMARK       I    between atoms: N_5  and  C_3 
REMARK    3  A    between atoms: C_6  and  N_5 
REMARK    4  A    between atoms: N_10  and  C_6 
REMARK    5  A    between atoms: C_14  and  N_10 
ROOT
ATOM      1  C   UNL d   1     -40.531  14.556  20.706  0.00  0.00     0.103 A 
ATOM      2  C   UNL d   1     -40.077  14.400  21.382  0.00  0.00     0.116 A 
ATOM      3  N   UNL d   1     -40.470  13.820  21.818  0.00  0.00    -0.126 NA
ATOM      4  O   UNL d   1     -41.164  13.616  21.415  0.00  0.00    -0.211 OA
ATOM      5  C   UNL d   1     -41.191  14.071  20.738  0.00  0.00     0.131 A 
ATOM      6  C   UNL d   1     -41.788  14.047  20.174  0.00  0.00     0.029 C 
ENDROOT
BRANCH   1   7
ATOM      7  C   UNL d   1     -40.335  15.099  20.125  0.00  0.00     0.285 C 
ATOM      8  N   UNL d   1     -40.067  14.865  19.387  0.00  0.00    -0.179 NA
ATOM      9  O   UNL d   1     -40.409  15.908  20.289  0.00  0.00    -0.265 OA
BRANCH   8  10
ATOM     10  C   UNL d   1     -39.871  15.409  18.805  0.00  0.00     0.223 C 
ATOM     11  S   UNL d   1     -40.457  15.922  18.519  0.00  0.00    -0.037 SA
BRANCH  10  12
ATOM     12  N   UNL d   1     -39.107  15.454  18.501  0.00  0.00    -0.217 NA
BRANCH  12  13
ATOM     13  C   UNL d   1     -38.909  15.016  17.842  0.00  0.00     0.084 A 
ATOM     14  C   UNL d   1     -39.195  15.250  17.097  0.00  0.00     0.019 A 
ATOM     15  C   UNL d   1     -38.994  14.808  16.431  0.00  0.00     0.002 A 
ATOM     16  C   UNL d   1     -38.512  14.136  16.504  0.00  0.00     0.000 A 
ATOM     17  C   UNL d   1     -38.228  13.907  17.254  0.00  0.00     0.002 A 
ATOM     18  C   UNL d   1     -38.310  13.691  15.833  0.00  0.00     0.000 C 
ATOM     19  C   UNL d   1     -38.429  14.352  17.924  0.00  0.00     0.019 A 
ENDBRANCH  12  13
ENDBRANCH  10  12
ENDBRANCH   8  10
ENDBRANCH   1   7
BRANCH   2  20
ATOM     20  C   UNL d   1     -39.362  14.759  21.584  0.00  0.00     0.031 A 
ATOM     21  C   UNL d   1     -38.669  14.318  21.595  0.00  0.00     0.059 A 
ATOM     22 CL   UNL d   1     -38.689  13.519  21.404  0.00  0.00    -0.082 Cl
ATOM     23  C   UNL d   1     -37.962  14.680  21.796  0.00  0.00     0.011 A 
ATOM     24  C   UNL d   1     -37.940  15.488  21.989  0.00  0.00     0.001 A 
ATOM     25  C   UNL d   1     -38.640  15.922  21.975  0.00  0.00     0.000 A 
ATOM     26  C   UNL d   1     -39.362  15.566  21.773  0.00  0.00     0.002 A 
ENDBRANCH   2  20
TORSDOF 5
ENDMDL
