MODEL 1
REMARK VINA RESULT:      -3.1      0.000      0.000
REMARK  3 active torsions:
REMARK  status: ('A' for Active; 'I' for Inactive)
REMARK    1  A    between atoms: N_3  and  C_1 
REMARK       I    between atoms: C_5  and  N_3 
REMARK    2  A    between atoms: C_6  and  C_5 
REMARK    3  A    between atoms: O_19  and  C_17 
ROOT
ATOM      1  N   UNL d   1      33.240  21.064 -21.249  0.00  0.00    -0.181 NA
ATOM      2  C   UNL d   1      32.571  21.316 -20.839  0.00  0.00     0.306 C 
ATOM      3  O   UNL d   1      31.827  20.955 -20.999  0.00  0.00    -0.263 OA
ENDROOT
BRANCH   1   4
ATOM      4  C   UNL d   1      33.191  20.466 -21.812  0.00  0.00     0.197 A 
ATOM      5  N   UNL d   1      33.152  20.589 -22.630  0.00  0.00    -0.221 NA
ATOM      6  C   UNL d   1      33.109  19.839 -22.984  0.00  0.00     0.090 A 
ATOM      7  C   UNL d   1      33.061  19.615 -23.775  0.00  0.00     0.022 A 
ATOM      8  C   UNL d   1      33.123  19.275 -22.384  0.00  0.00     0.052 A 
ATOM      9  C   UNL d   1      33.025  18.807 -23.958  0.00  0.00     0.026 A 
ATOM     10  C   UNL d   1      33.038  18.249 -23.365  0.00  0.00     0.095 A 
ATOM     11  C   UNL d   1      33.087  18.467 -22.568  0.00  0.00     0.032 A 
ATOM     12  S   UNL d   1      33.173  19.669 -21.673  0.00  0.00    -0.047 SA
BRANCH  10  13
ATOM     13  O   UNL d   1      33.002  17.413 -23.546  0.00  0.00    -0.328 OA
ATOM     14  C   UNL d   1      32.385  17.133 -24.042  0.00  0.00     0.181 C 
ENDBRANCH  10  13
ENDBRANCH   1   4
BRANCH   2  15
ATOM     15  C   UNL d   1      32.620  21.915 -20.277  0.00  0.00     0.182 A 
ATOM     16  O   UNL d   1      32.876  21.728 -19.519  0.00  0.00    -0.298 OA
ATOM     17  C   UNL d   1      32.927  22.334 -18.946  0.00  0.00     0.123 A 
ATOM     18  C   UNL d   1      33.184  22.154 -18.179  0.00  0.00     0.027 A 
ATOM     19  C   UNL d   1      32.722  23.099 -19.146  0.00  0.00     0.123 A 
ATOM     20  C   UNL d   1      33.231  22.757 -17.619  0.00  0.00     0.002 A 
ATOM     21  C   UNL d   1      33.030  23.520 -17.807  0.00  0.00     0.002 A 
ATOM     22  C   UNL d   1      32.773  23.700 -18.574  0.00  0.00     0.027 A 
ATOM     23  O   UNL d   1      32.464  23.279 -19.914  0.00  0.00    -0.301 OA
ATOM     24  C   UNL d   1      32.418  22.677 -20.469  0.00  0.00     0.152 A 
ENDBRANCH   2  15
TORSDOF 3
ENDMDL
MODEL 2
REMARK VINA RESULT:      -3.0      1.016      5.516
REMARK  3 active torsions:
REMARK  status: ('A' for Active; 'I' for Inactive)
REMARK    1  A    between atoms: N_3  and  C_1 
REMARK       I    between atoms: C_5  and  N_3 
REMARK    2  A    between atoms: C_6  and  C_5 
REMARK    3  A    between atoms: O_19  and  C_17 
ROOT
ATOM      1  N   UNL d   1      32.747  20.124 -21.823  0.00  0.00    -0.181 NA
ATOM      2  C   UNL d   1      33.002  20.157 -22.606  0.00  0.00     0.306 C 
ATOM      3  O   UNL d   1      33.241  20.894 -22.934  0.00  0.00    -0.263 OA
ENDROOT
BRANCH   1   4
ATOM      4  C   UNL d   1      32.723  20.802 -21.358  0.00  0.00     0.197 A 
ATOM      5  N   UNL d   1      32.229  21.453 -21.497  0.00  0.00    -0.221 NA
ATOM      6  C   UNL d   1      32.387  22.006 -20.897  0.00  0.00     0.090 A 
ATOM      7  C   UNL d   1      32.068  22.751 -20.750  0.00  0.00     0.022 A 
ATOM      8  C   UNL d   1      32.966  21.689 -20.406  0.00  0.00     0.052 A 
ATOM      9  C   UNL d   1      32.343  23.178 -20.095  0.00  0.00     0.026 A 
ATOM     10  C   UNL d   1      32.916  22.865 -19.609  0.00  0.00     0.095 A 
ATOM     11  C   UNL d   1      33.241  22.117 -19.751  0.00  0.00     0.032 A 
ATOM     12  S   UNL d   1      33.164  20.954 -20.698  0.00  0.00    -0.047 SA
BRANCH  10  13
ATOM     13  O   UNL d   1      33.205  23.300 -18.931  0.00  0.00    -0.328 OA
ATOM     14  C   UNL d   1      32.873  23.142 -18.177  0.00  0.00     0.181 C 
ENDBRANCH  10  13
ENDBRANCH   1   4
BRANCH   2  15
ATOM     15  C   UNL d   1      33.026  19.479 -23.072  0.00  0.00     0.182 A 
ATOM     16  O   UNL d   1      32.865  18.752 -22.724  0.00  0.00    -0.298 OA
ATOM     17  C   UNL d   1      32.889  18.062 -23.194  0.00  0.00     0.123 A 
ATOM     18  C   UNL d   1      32.729  17.325 -22.851  0.00  0.00     0.027 A 
ATOM     19  C   UNL d   1      33.070  18.119 -23.989  0.00  0.00     0.123 A 
ATOM     20  C   UNL d   1      32.754  16.648 -23.322  0.00  0.00     0.002 A 
ATOM     21  C   UNL d   1      32.932  16.694 -24.112  0.00  0.00     0.002 A 
ATOM     22  C   UNL d   1      33.093  17.431 -24.455  0.00  0.00     0.027 A 
ATOM     23  O   UNL d   1      33.230  18.857 -24.332  0.00  0.00    -0.301 OA
ATOM     24  C   UNL d   1      33.205  19.528 -23.862  0.00  0.00     0.152 A 
ENDBRANCH   2  15
TORSDOF 3
ENDMDL
MODEL 3
REMARK VINA RESULT:      -2.5      1.255      5.825
REMARK  3 active torsions:
REMARK  status: ('A' for Active; 'I' for Inactive)
REMARK    1  A    between atoms: N_3  and  C_1 
REMARK       I    between atoms: C_5  and  N_3 
REMARK    2  A    between atoms: C_6  and  C_5 
REMARK    3  A    between atoms: O_19  and  C_17 
ROOT
ATOM      1  N   UNL d   1      33.224  19.229 -22.616  0.00  0.00    -0.181 NA
ATOM      2  C   UNL d   1      32.699  19.034 -23.221  0.00  0.00     0.306 C 
ATOM      3  O   UNL d   1      32.122  19.595 -23.466  0.00  0.00    -0.263 OA
ENDROOT
BRANCH   1   4
ATOM      4  C   UNL d   1      33.190  19.965 -22.248  0.00  0.00     0.197 A 
ATOM      5  N   UNL d   1      33.241  20.692 -22.642  0.00  0.00    -0.221 NA
ATOM      6  C   UNL d   1      33.183  21.283 -22.062  0.00  0.00     0.090 A 
ATOM      7  C   UNL d   1      33.197  22.105 -22.123  0.00  0.00     0.022 A 
ATOM      8  C   UNL d   1      33.099  20.914 -21.331  0.00  0.00     0.052 A 
ATOM      9  C   UNL d   1      33.126  22.555 -21.431  0.00  0.00     0.026 A 
ATOM     10  C   UNL d   1      33.043  22.191 -20.707  0.00  0.00     0.095 A 
ATOM     11  C   UNL d   1      33.027  21.366 -20.640  0.00  0.00     0.032 A 
ATOM     12  S   UNL d   1      33.105  20.109 -21.457  0.00  0.00    -0.047 SA
BRANCH  10  13
ATOM     13  O   UNL d   1      32.968  22.649 -19.989  0.00  0.00    -0.328 OA
ATOM     14  C   UNL d   1      32.987  23.487 -20.040  0.00  0.00     0.181 C 
ENDBRANCH  10  13
ENDBRANCH   1   4
BRANCH   2  15
ATOM     15  C   UNL d   1      32.733  18.298 -23.588  0.00  0.00     0.182 A 
ATOM     16  O   UNL d   1      32.283  17.682 -23.285  0.00  0.00    -0.298 OA
ATOM     17  C   UNL d   1      32.314  16.934 -23.655  0.00  0.00     0.123 A 
ATOM     18  C   UNL d   1      31.863  16.306 -23.355  0.00  0.00     0.027 A 
ATOM     19  C   UNL d   1      32.790  16.827 -24.311  0.00  0.00     0.123 A 
ATOM     20  C   UNL d   1      31.900  15.571 -23.727  0.00  0.00     0.002 A 
ATOM     21  C   UNL d   1      32.368  15.454 -24.378  0.00  0.00     0.002 A 
ATOM     22  C   UNL d   1      32.819  16.082 -24.678  0.00  0.00     0.027 A 
ATOM     23  O   UNL d   1      33.241  17.454 -24.611  0.00  0.00    -0.301 OA
ATOM     24  C   UNL d   1      33.203  18.184 -24.240  0.00  0.00     0.152 A 
ENDBRANCH   2  15
TORSDOF 3
ENDMDL
MODEL 4
REMARK VINA RESULT:      -2.2      1.666      2.641
REMARK  3 active torsions:
REMARK  status: ('A' for Active; 'I' for Inactive)
REMARK    1  A    between atoms: N_3  and  C_1 
REMARK       I    between atoms: C_5  and  N_3 
REMARK    2  A    between atoms: C_6  and  C_5 
REMARK    3  A    between atoms: O_19  and  C_17 
ROOT
ATOM      1  N   UNL d   1      32.632  19.519 -22.961  0.00  0.00    -0.181 NA
ATOM      2  C   UNL d   1      32.933  19.567 -22.195  0.00  0.00     0.306 C 
ATOM      3  O   UNL d   1      33.241  18.876 -21.826  0.00  0.00    -0.263 OA
ENDROOT
BRANCH   1   4
ATOM      4  C   UNL d   1      32.630  18.805 -23.370  0.00  0.00     0.197 A 
ATOM      5  N   UNL d   1      33.118  18.629 -24.015  0.00  0.00    -0.221 NA
ATOM      6  C   UNL d   1      32.931  17.856 -24.253  0.00  0.00     0.090 A 
ATOM      7  C   UNL d   1      33.234  17.388 -24.860  0.00  0.00     0.022 A 
ATOM      8  C   UNL d   1      32.338  17.574 -23.757  0.00  0.00     0.052 A 
ATOM      9  C   UNL d   1      32.929  16.624 -24.962  0.00  0.00     0.026 A 
ATOM     10  C   UNL d   1      32.342  16.344 -24.471  0.00  0.00     0.095 A 
ATOM     11  C   UNL d   1      32.034  16.810 -23.860  0.00  0.00     0.032 A 
ATOM     12  S   UNL d   1      32.162  18.163 -23.221  0.00  0.00    -0.047 SA
BRANCH  10  13
ATOM     13  O   UNL d   1      32.023  15.557 -24.571  0.00  0.00    -0.328 OA
ATOM     14  C   UNL d   1      31.260  15.470 -24.911  0.00  0.00     0.181 C 
ENDBRANCH  10  13
ENDBRANCH   1   4
BRANCH   2  15
ATOM     15  C   UNL d   1      32.936  20.282 -21.786  0.00  0.00     0.182 A 
ATOM     16  O   UNL d   1      32.983  20.983 -22.211  0.00  0.00    -0.298 OA
ATOM     17  C   UNL d   1      32.986  21.709 -21.798  0.00  0.00     0.123 A 
ATOM     18  C   UNL d   1      33.034  22.421 -22.219  0.00  0.00     0.027 A 
ATOM     19  C   UNL d   1      32.942  21.712 -20.982  0.00  0.00     0.123 A 
ATOM     20  C   UNL d   1      33.037  23.134 -21.805  0.00  0.00     0.002 A 
ATOM     21  C   UNL d   1      32.993  23.148 -20.995  0.00  0.00     0.002 A 
ATOM     22  C   UNL d   1      32.945  22.435 -20.574  0.00  0.00     0.027 A 
ATOM     23  O   UNL d   1      32.894  20.999 -20.561  0.00  0.00    -0.301 OA
ATOM     24  C   UNL d   1      32.892  20.291 -20.975  0.00  0.00     0.152 A 
ENDBRANCH   2  15
TORSDOF 3
ENDMDL
MODEL 5
REMARK VINA RESULT:      -0.6      1.942      5.515
REMARK  3 active torsions:
REMARK  status: ('A' for Active; 'I' for Inactive)
REMARK    1  A    between atoms: N_3  and  C_1 
REMARK       I    between atoms: C_5  and  N_3 
REMARK    2  A    between atoms: C_6  and  C_5 
REMARK    3  A    between atoms: O_19  and  C_17 
ROOT
ATOM      1  N   UNL d   1      32.838  22.301 -20.802  0.00  0.00    -0.181 NA
ATOM      2  C   UNL d   1      32.919  22.837 -21.422  0.00  0.00     0.306 C 
ATOM      3  O   UNL d   1      32.940  23.662 -21.258  0.00  0.00    -0.263 OA
ENDROOT
BRANCH   1   4
ATOM      4  C   UNL d   1      32.776  22.561 -20.023  0.00  0.00     0.197 A 
ATOM      5  N   UNL d   1      32.233  23.126 -19.756  0.00  0.00    -0.221 NA
ATOM      6  C   UNL d   1      32.365  23.220 -18.942  0.00  0.00     0.090 A 
ATOM      7  C   UNL d   1      31.996  23.702 -18.385  0.00  0.00     0.022 A 
ATOM      8  C   UNL d   1      32.980  22.718 -18.725  0.00  0.00     0.052 A 
ATOM      9  C   UNL d   1      32.256  23.672 -17.598  0.00  0.00     0.026 A 
ATOM     10  C   UNL d   1      32.865  23.175 -17.384  0.00  0.00     0.095 A 
ATOM     11  C   UNL d   1      33.240  22.688 -17.938  0.00  0.00     0.032 A 
ATOM     12  S   UNL d   1      33.223  22.320 -19.394  0.00  0.00    -0.047 SA
BRANCH  10  13
ATOM     13  O   UNL d   1      33.139  23.139 -16.574  0.00  0.00    -0.328 OA
ATOM     14  C   UNL d   1      32.793  22.577 -16.055  0.00  0.00     0.181 C 
ENDBRANCH  10  13
ENDBRANCH   1   4
BRANCH   2  15
ATOM     15  C   UNL d   1      32.981  22.576 -22.201  0.00  0.00     0.182 A 
ATOM     16  O   UNL d   1      33.047  21.771 -22.346  0.00  0.00    -0.298 OA
ATOM     17  C   UNL d   1      33.109  21.503 -23.135  0.00  0.00     0.123 A 
ATOM     18  C   UNL d   1      33.177  20.692 -23.290  0.00  0.00     0.027 A 
ATOM     19  C   UNL d   1      33.104  22.044 -23.747  0.00  0.00     0.123 A 
ATOM     20  C   UNL d   1      33.238  20.436 -24.072  0.00  0.00     0.002 A 
ATOM     21  C   UNL d   1      33.233  20.964 -24.687  0.00  0.00     0.002 A 
ATOM     22  C   UNL d   1      33.166  21.776 -24.531  0.00  0.00     0.027 A 
ATOM     23  O   UNL d   1      33.036  22.856 -23.592  0.00  0.00    -0.301 OA
ATOM     24  C   UNL d   1      32.975  23.108 -22.814  0.00  0.00     0.152 A 
ENDBRANCH   2  15
TORSDOF 3
ENDMDL
