MODEL 1
REMARK VINA RESULT:      -9.6      0.000      0.000
REMARK  4 active torsions:
REMARK  status: ('A' for Active; 'I' for Inactive)
REMARK    1  A    between atoms: C_6  and  C_1 
REMARK    2  A    between atoms: C_16  and  C_6 
REMARK    3  A    between atoms: C_9  and  O_12 
REMARK    4  A    between atoms: O_12  and  C_10 
ROOT
ATOM      1  C   UNL d   1      52.574  33.510  53.101  0.00  0.00     0.139 A 
ATOM      2  C   UNL d   1      53.319  32.570  53.688  0.00  0.00     0.064 A 
ATOM      3  C   UNL d   1      53.137  33.379  53.692  0.00  0.00     0.220 A 
ATOM      4  C   UNL d   1      52.873  32.206  53.100  0.00  0.00     0.105 A 
ATOM      5  O   UNL d   1      52.409  32.784  52.733  0.00  0.00    -0.304 OA
ATOM      6  C   UNL d   1      52.946  31.394  52.973  0.00  0.00     0.050 A 
ATOM      7  C   UNL d   1      53.838  32.123  54.148  0.00  0.00     0.007 A 
ATOM      8  C   UNL d   1      53.463  30.956  53.433  0.00  0.00     0.105 A 
ATOM      9  O   UNL d   1      53.460  33.946  54.195  0.00  0.00    -0.284 OA
ATOM     10  C   UNL d   1      53.912  31.308  54.021  0.00  0.00     0.025 A 
ENDROOT
BRANCH   1  11
ATOM     11  C   UNL d   1      52.234  34.235  52.910  0.00  0.00     0.028 C 
BRANCH  11  12
ATOM     12  C   UNL d   1      51.441  34.280  52.663  0.00  0.00     0.005 A 
ATOM     13  C   UNL d   1      51.274  34.248  51.861  0.00  0.00     0.021 A 
ATOM     14  C   UNL d   1      50.491  34.292  51.605  0.00  0.00     0.099 A 
ATOM     15  N   UNL d   1      49.880  34.367  52.158  0.00  0.00    -0.242 NA
ATOM     16  C   UNL d   1      50.056  34.398  52.963  0.00  0.00     0.099 A 
ATOM     17  C   UNL d   1      50.836  34.355  53.216  0.00  0.00     0.021 A 
ENDBRANCH  11  12
ENDBRANCH   1  11
BRANCH   8  18
ATOM     18  O   UNL d   1      53.533  30.142  53.303  0.00  0.00    -0.273 OA
BRANCH  18  19
ATOM     19  C   UNL d   1      53.055  29.608  53.725  0.00  0.00     0.300 C 
ATOM     20  O   UNL d   1      52.274  29.491  53.493  0.00  0.00    -0.259 OA
ATOM     21  C   UNL d   1      53.367  29.199  54.371  0.00  0.00     0.074 C 
ENDBRANCH  18  19
ENDBRANCH   8  18
TORSDOF 4
ENDMDL
MODEL 2
REMARK VINA RESULT:      -9.1      2.220      2.888
REMARK  4 active torsions:
REMARK  status: ('A' for Active; 'I' for Inactive)
REMARK    1  A    between atoms: C_6  and  C_1 
REMARK    2  A    between atoms: C_16  and  C_6 
REMARK    3  A    between atoms: C_9  and  O_12 
REMARK    4  A    between atoms: O_12  and  C_10 
ROOT
ATOM      1  C   UNL d   1      53.687  32.409  53.402  0.00  0.00     0.139 A 
ATOM      2  C   UNL d   1      52.984  31.311  53.110  0.00  0.00     0.064 A 
ATOM      3  C   UNL d   1      53.050  32.123  52.958  0.00  0.00     0.220 A 
ATOM      4  C   UNL d   1      53.574  31.097  53.643  0.00  0.00     0.105 A 
ATOM      5  O   UNL d   1      54.012  31.774  53.828  0.00  0.00    -0.304 OA
ATOM      6  C   UNL d   1      53.637  30.314  53.893  0.00  0.00     0.050 A 
ATOM      7  C   UNL d   1      52.458  30.742  52.827  0.00  0.00     0.007 A 
ATOM      8  C   UNL d   1      53.112  29.753  53.608  0.00  0.00     0.105 A 
ATOM      9  O   UNL d   1      52.568  32.563  52.455  0.00  0.00    -0.284 OA
ATOM     10  C   UNL d   1      52.521  29.954  53.078  0.00  0.00     0.025 A 
ENDROOT
BRANCH   1  11
ATOM     11  C   UNL d   1      53.952  33.188  53.421  0.00  0.00     0.028 C 
BRANCH  11  12
ATOM     12  C   UNL d   1      54.155  33.549  54.141  0.00  0.00     0.005 A 
ATOM     13  C   UNL d   1      53.595  34.009  54.526  0.00  0.00     0.021 A 
ATOM     14  C   UNL d   1      53.786  34.372  55.241  0.00  0.00     0.099 A 
ATOM     15  N   UNL d   1      54.540  34.271  55.566  0.00  0.00    -0.242 NA
ATOM     16  C   UNL d   1      55.099  33.808  55.174  0.00  0.00     0.099 A 
ATOM     17  C   UNL d   1      54.906  33.447  54.462  0.00  0.00     0.021 A 
ENDBRANCH  11  12
ENDBRANCH   1  11
BRANCH   8  18
ATOM     18  O   UNL d   1      53.178  28.969  53.861  0.00  0.00    -0.273 OA
BRANCH  18  19
ATOM     19  C   UNL d   1      53.160  28.787  54.672  0.00  0.00     0.300 C 
ATOM     20  O   UNL d   1      52.494  28.977  55.117  0.00  0.00    -0.259 OA
ATOM     21  C   UNL d   1      53.809  28.418  55.025  0.00  0.00     0.074 C 
ENDBRANCH  18  19
ENDBRANCH   8  18
TORSDOF 4
ENDMDL
MODEL 3
REMARK VINA RESULT:      -8.8      1.685      4.104
REMARK  4 active torsions:
REMARK  status: ('A' for Active; 'I' for Inactive)
REMARK    1  A    between atoms: C_6  and  C_1 
REMARK    2  A    between atoms: C_16  and  C_6 
REMARK    3  A    between atoms: C_9  and  O_12 
REMARK    4  A    between atoms: O_12  and  C_10 
ROOT
ATOM      1  C   UNL d   1      53.576  32.002  53.479  0.00  0.00     0.139 A 
ATOM      2  C   UNL d   1      53.342  33.317  53.485  0.00  0.00     0.064 A 
ATOM      3  C   UNL d   1      53.932  32.742  53.576  0.00  0.00     0.220 A 
ATOM      4  C   UNL d   1      52.628  32.936  53.333  0.00  0.00     0.105 A 
ATOM      5  O   UNL d   1      52.768  32.120  53.328  0.00  0.00    -0.304 OA
ATOM      6  C   UNL d   1      51.942  33.378  53.219  0.00  0.00     0.050 A 
ATOM      7  C   UNL d   1      53.369  34.141  53.522  0.00  0.00     0.007 A 
ATOM      8  C   UNL d   1      51.975  34.197  53.257  0.00  0.00     0.105 A 
ATOM      9  O   UNL d   1      54.728  32.886  53.735  0.00  0.00    -0.284 OA
ATOM     10  C   UNL d   1      52.680  34.587  53.407  0.00  0.00     0.025 A 
ENDROOT
BRANCH   1  11
ATOM     11  C   UNL d   1      53.956  31.274  53.524  0.00  0.00     0.028 C 
BRANCH  11  12
ATOM     12  C   UNL d   1      53.518  30.569  53.572  0.00  0.00     0.005 A 
ATOM     13  C   UNL d   1      53.465  30.184  54.294  0.00  0.00     0.021 A 
ATOM     14  C   UNL d   1      53.032  29.484  54.352  0.00  0.00     0.099 A 
ATOM     15  N   UNL d   1      52.655  29.175  53.684  0.00  0.00    -0.242 NA
ATOM     16  C   UNL d   1      52.712  29.568  52.961  0.00  0.00     0.099 A 
ATOM     17  C   UNL d   1      53.144  30.265  52.905  0.00  0.00     0.021 A 
ENDBRANCH  11  12
ENDBRANCH   1  11
BRANCH   8  18
ATOM     18  O   UNL d   1      51.286  34.637  53.141  0.00  0.00    -0.273 OA
BRANCH  18  19
ATOM     19  C   UNL d   1      50.759  34.438  52.530  0.00  0.00     0.300 C 
ATOM     20  O   UNL d   1      51.025  34.427  51.751  0.00  0.00    -0.259 OA
ATOM     21  C   UNL d   1      49.974  34.254  52.708  0.00  0.00     0.074 C 
ENDBRANCH  18  19
ENDBRANCH   8  18
TORSDOF 4
ENDMDL
MODEL 4
REMARK VINA RESULT:      -8.1      2.052      4.292
REMARK  4 active torsions:
REMARK  status: ('A' for Active; 'I' for Inactive)
REMARK    1  A    between atoms: C_6  and  C_1 
REMARK    2  A    between atoms: C_16  and  C_6 
REMARK    3  A    between atoms: C_9  and  O_12 
REMARK    4  A    between atoms: O_12  and  C_10 
ROOT
ATOM      1  C   UNL d   1      53.346  32.863  53.490  0.00  0.00     0.139 A 
ATOM      2  C   UNL d   1      52.096  32.890  53.020  0.00  0.00     0.064 A 
ATOM      3  C   UNL d   1      52.704  32.388  53.274  0.00  0.00     0.220 A 
ATOM      4  C   UNL d   1      52.358  33.668  53.078  0.00  0.00     0.105 A 
ATOM      5  O   UNL d   1      53.133  33.657  53.369  0.00  0.00    -0.304 OA
ATOM      6  C   UNL d   1      51.860  34.287  52.859  0.00  0.00     0.050 A 
ATOM      7  C   UNL d   1      51.335  32.732  52.743  0.00  0.00     0.007 A 
ATOM      8  C   UNL d   1      51.105  34.123  52.585  0.00  0.00     0.105 A 
ATOM      9  O   UNL d   1      52.673  31.565  53.305  0.00  0.00    -0.284 OA
ATOM     10  C   UNL d   1      50.833  33.353  52.523  0.00  0.00     0.025 A 
ENDROOT
BRANCH   1  11
ATOM     11  C   UNL d   1      54.070  32.597  53.775  0.00  0.00     0.028 C 
BRANCH  11  12
ATOM     12  C   UNL d   1      54.479  33.025  54.359  0.00  0.00     0.005 A 
ATOM     13  C   UNL d   1      55.114  33.494  54.136  0.00  0.00     0.021 A 
ATOM     14  C   UNL d   1      55.526  33.923  54.707  0.00  0.00     0.099 A 
ATOM     15  N   UNL d   1      55.298  33.878  55.500  0.00  0.00    -0.242 NA
ATOM     16  C   UNL d   1      54.658  33.404  55.719  0.00  0.00     0.099 A 
ATOM     17  C   UNL d   1      54.249  32.978  55.148  0.00  0.00     0.021 A 
ENDBRANCH  11  12
ENDBRANCH   1  11
BRANCH   8  18
ATOM     18  O   UNL d   1      50.608  34.747  52.366  0.00  0.00    -0.273 OA
BRANCH  18  19
ATOM     19  C   UNL d   1      49.809  34.747  52.599  0.00  0.00     0.300 C 
ATOM     20  O   UNL d   1      49.613  34.924  53.379  0.00  0.00    -0.259 OA
ATOM     21  C   UNL d   1      49.221  34.571  52.048  0.00  0.00     0.074 C 
ENDBRANCH  18  19
ENDBRANCH   8  18
TORSDOF 4
ENDMDL
MODEL 5
REMARK VINA RESULT:      -7.8      2.172      4.217
REMARK  4 active torsions:
REMARK  status: ('A' for Active; 'I' for Inactive)
REMARK    1  A    between atoms: C_6  and  C_1 
REMARK    2  A    between atoms: C_16  and  C_6 
REMARK    3  A    between atoms: C_9  and  O_12 
REMARK    4  A    between atoms: O_12  and  C_10 
ROOT
ATOM      1  C   UNL d   1      53.831  31.955  53.400  0.00  0.00     0.139 A 
ATOM      2  C   UNL d   1      54.259  33.070  53.997  0.00  0.00     0.064 A 
ATOM      3  C   UNL d   1      54.506  32.396  53.584  0.00  0.00     0.220 A 
ATOM      4  C   UNL d   1      53.439  33.046  54.068  0.00  0.00     0.105 A 
ATOM      5  O   UNL d   1      53.168  32.357  53.699  0.00  0.00    -0.304 OA
ATOM      6  C   UNL d   1      53.042  33.654  54.459  0.00  0.00     0.050 A 
ATOM      7  C   UNL d   1      54.682  33.702  54.317  0.00  0.00     0.007 A 
ATOM      8  C   UNL d   1      53.468  34.280  54.775  0.00  0.00     0.105 A 
ATOM      9  O   UNL d   1      55.284  32.203  53.392  0.00  0.00    -0.284 OA
ATOM     10  C   UNL d   1      54.284  34.314  54.710  0.00  0.00     0.025 A 
ENDROOT
BRANCH   1  11
ATOM     11  C   UNL d   1      53.817  31.241  52.990  0.00  0.00     0.028 C 
BRANCH  11  12
ATOM     12  C   UNL d   1      53.377  30.597  53.277  0.00  0.00     0.005 A 
ATOM     13  C   UNL d   1      52.631  30.456  52.968  0.00  0.00     0.021 A 
ATOM     14  C   UNL d   1      52.187  29.819  53.246  0.00  0.00     0.099 A 
ATOM     15  N   UNL d   1      52.496  29.327  53.834  0.00  0.00    -0.242 NA
ATOM     16  C   UNL d   1      53.247  29.473  54.141  0.00  0.00     0.099 A 
ATOM     17  C   UNL d   1      53.688  30.109  53.863  0.00  0.00     0.021 A 
ENDBRANCH  11  12
ENDBRANCH   1  11
BRANCH   8  18
ATOM     18  O   UNL d   1      53.067  34.888  55.167  0.00  0.00    -0.273 OA
BRANCH  18  19
ATOM     19  C   UNL d   1      52.785  35.544  54.742  0.00  0.00     0.300 C 
ATOM     20  O   UNL d   1      53.247  36.223  54.686  0.00  0.00    -0.259 OA
ATOM     21  C   UNL d   1      52.043  35.511  54.380  0.00  0.00     0.074 C 
ENDBRANCH  18  19
ENDBRANCH   8  18
TORSDOF 4
ENDMDL
MODEL 6
REMARK VINA RESULT:      -7.3      1.357      2.589
REMARK  4 active torsions:
REMARK  status: ('A' for Active; 'I' for Inactive)
REMARK    1  A    between atoms: C_6  and  C_1 
REMARK    2  A    between atoms: C_16  and  C_6 
REMARK    3  A    between atoms: C_9  and  O_12 
REMARK    4  A    between atoms: O_12  and  C_10 
ROOT
ATOM      1  C   UNL d   1      52.026  32.686  53.197  0.00  0.00     0.139 A 
ATOM      2  C   UNL d   1      53.282  32.349  53.500  0.00  0.00     0.064 A 
ATOM      3  C   UNL d   1      52.651  32.187  52.989  0.00  0.00     0.220 A 
ATOM      4  C   UNL d   1      53.050  32.943  54.020  0.00  0.00     0.105 A 
ATOM      5  O   UNL d   1      52.271  33.156  53.837  0.00  0.00    -0.304 OA
ATOM      6  C   UNL d   1      53.575  33.216  54.594  0.00  0.00     0.050 A 
ATOM      7  C   UNL d   1      54.040  32.028  53.555  0.00  0.00     0.007 A 
ATOM      8  C   UNL d   1      54.327  32.893  54.644  0.00  0.00     0.105 A 
ATOM      9  O   UNL d   1      52.650  31.628  52.383  0.00  0.00    -0.284 OA
ATOM     10  C   UNL d   1      54.569  32.301  54.132  0.00  0.00     0.025 A 
ENDROOT
BRANCH   1  11
ATOM     11  C   UNL d   1      51.288  32.714  52.835  0.00  0.00     0.028 C 
BRANCH  11  12
ATOM     12  C   UNL d   1      50.903  33.440  52.711  0.00  0.00     0.005 A 
ATOM     13  C   UNL d   1      51.047  33.852  52.017  0.00  0.00     0.021 A 
ATOM     14  C   UNL d   1      50.671  34.574  51.885  0.00  0.00     0.099 A 
ATOM     15  N   UNL d   1      50.151  34.878  52.452  0.00  0.00    -0.242 NA
ATOM     16  C   UNL d   1      50.010  34.458  53.148  0.00  0.00     0.099 A 
ATOM     17  C   UNL d   1      50.386  33.739  53.278  0.00  0.00     0.021 A 
ENDBRANCH  11  12
ENDBRANCH   1  11
BRANCH   8  18
ATOM     18  O   UNL d   1      54.851  33.168  55.220  0.00  0.00    -0.273 OA
BRANCH  18  19
ATOM     19  C   UNL d   1      55.202  33.918  55.144  0.00  0.00     0.300 C 
ATOM     20  O   UNL d   1      54.812  34.582  55.435  0.00  0.00    -0.259 OA
ATOM     21  C   UNL d   1      55.938  33.991  54.776  0.00  0.00     0.074 C 
ENDBRANCH  18  19
ENDBRANCH   8  18
TORSDOF 4
ENDMDL
