MODEL 1
REMARK VINA RESULT:      44.5      0.000      0.000
REMARK  2 active torsions:
REMARK  status: ('A' for Active; 'I' for Inactive)
REMARK    1  A    between atoms: N_7  and  C_3 
REMARK       I    between atoms: C_8  and  N_7 
REMARK    2  A    between atoms: C_10  and  C_8 
ROOT
ATOM      1  C   UNL d   1     -51.985  23.976  33.405  0.00  0.00     0.343 A 
ATOM      2  N   UNL d   1     -51.433  24.580  33.380  0.00  0.00    -0.241 N 
ATOM      3  C   UNL d   1     -51.679  25.363  33.331  0.00  0.00     0.159 A 
ATOM      4  N   UNL d   1     -52.792  24.153  33.380  0.00  0.00    -0.224 N 
ATOM      5  C   UNL d   1     -52.486  25.539  33.306  0.00  0.00     0.099 A 
ATOM      6  C   UNL d   1     -53.054  24.935  33.330  0.00  0.00     0.271 A 
ATOM      7  O   UNL d   1     -51.736  23.189  33.455  0.00  0.00    -0.245 OA
ATOM      8  O   UNL d   1     -53.853  25.110  33.306  0.00  0.00    -0.266 OA
ATOM      9  C   UNL d   1     -50.627  24.404  33.405  0.00  0.00     0.105 C 
ATOM     10  C   UNL d   1     -53.349  23.542  33.405  0.00  0.00     0.107 C 
ENDROOT
BRANCH   3  11
ATOM     11  N   UNL d   1     -51.122  25.975  33.305  0.00  0.00    -0.190 NA
ATOM     12  C   UNL d   1     -51.324  26.728  33.572  0.00  0.00     0.280 C 
ATOM     13  O   UNL d   1     -52.083  26.874  33.864  0.00  0.00    -0.265 OA
BRANCH  12  14
ATOM     14  C   UNL d   1     -50.768  27.335  33.546  0.00  0.00     0.058 A 
ATOM     15  C   UNL d   1     -51.005  28.080  33.337  0.00  0.00     0.006 A 
ATOM     16  C   UNL d   1     -50.460  28.683  33.310  0.00  0.00     0.012 A 
ATOM     17  C   UNL d   1     -49.668  28.553  33.490  0.00  0.00     0.058 A 
ATOM     18  C   UNL d   1     -49.432  27.769  33.708  0.00  0.00     0.012 A 
ATOM     19 CL   UNL d   1     -49.112  29.164  33.464  0.00  0.00    -0.082 Cl
ATOM     20  C   UNL d   1     -49.976  27.166  33.735  0.00  0.00     0.006 A 
ENDBRANCH  12  14
ENDBRANCH   3  11
TORSDOF 2
ENDMDL
MODEL 2
REMARK VINA RESULT:      46.4      0.714      1.423
REMARK  2 active torsions:
REMARK  status: ('A' for Active; 'I' for Inactive)
REMARK    1  A    between atoms: N_7  and  C_3 
REMARK       I    between atoms: C_8  and  N_7 
REMARK    2  A    between atoms: C_10  and  C_8 
ROOT
ATOM      1  C   UNL d   1     -52.993  24.850  33.309  0.00  0.00     0.343 A 
ATOM      2  N   UNL d   1     -52.606  25.571  33.309  0.00  0.00    -0.241 N 
ATOM      3  C   UNL d   1     -51.785  25.600  33.308  0.00  0.00     0.159 A 
ATOM      4  N   UNL d   1     -52.557  24.148  33.308  0.00  0.00    -0.224 N 
ATOM      5  C   UNL d   1     -51.349  24.899  33.307  0.00  0.00     0.099 A 
ATOM      6  C   UNL d   1     -51.730  24.161  33.307  0.00  0.00     0.271 A 
ATOM      7  O   UNL d   1     -53.820  24.822  33.309  0.00  0.00    -0.245 OA
ATOM      8  O   UNL d   1     -51.299  23.466  33.307  0.00  0.00    -0.266 OA
ATOM      9  C   UNL d   1     -53.042  26.273  33.309  0.00  0.00     0.105 C 
ATOM     10  C   UNL d   1     -52.948  23.419  33.308  0.00  0.00     0.107 C 
ENDROOT
BRANCH   3  11
ATOM     11  N   UNL d   1     -51.393  26.330  33.308  0.00  0.00    -0.190 NA
ATOM     12  C   UNL d   1     -50.656  26.402  33.670  0.00  0.00     0.280 C 
ATOM     13  O   UNL d   1     -50.307  25.747  34.034  0.00  0.00    -0.265 OA
BRANCH  12  14
ATOM     14  C   UNL d   1     -50.268  27.129  33.669  0.00  0.00     0.058 A 
ATOM     15  C   UNL d   1     -50.696  27.805  33.551  0.00  0.00     0.006 A 
ATOM     16  C   UNL d   1     -50.318  28.526  33.548  0.00  0.00     0.012 A 
ATOM     17  C   UNL d   1     -49.506  28.583  33.665  0.00  0.00     0.058 A 
ATOM     18  C   UNL d   1     -49.069  27.868  33.788  0.00  0.00     0.012 A 
ATOM     19 CL   UNL d   1     -49.119  29.314  33.663  0.00  0.00    -0.082 Cl
ATOM     20  C   UNL d   1     -49.446  27.148  33.791  0.00  0.00     0.006 A 
ENDBRANCH  12  14
ENDBRANCH   3  11
TORSDOF 2
ENDMDL
