MODEL 1
REMARK VINA RESULT:       9.8      0.000      0.000
REMARK  1 active torsions:
REMARK  status: ('A' for Active; 'I' for Inactive)
REMARK    1  A    between atoms: C_6  and  C_1 
ROOT
ATOM      1  C   UNL d   1      57.764  49.692  50.655  0.00  0.00     0.168 A 
ATOM      2  N   UNL d   1      57.246  49.692  51.321  0.00  0.00    -0.142 NA
ATOM      3  C   UNL d   1      57.311  49.690  49.974  0.00  0.00     0.045 A 
ATOM      4  N   UNL d   1      56.460  49.690  51.025  0.00  0.00    -0.148 NA
ATOM      5  C   UNL d   1      56.497  49.689  50.193  0.00  0.00     0.105 A 
ATOM      6  C   UNL d   1      57.343  49.689  49.153  0.00  0.00     0.003 A 
ATOM      7  C   UNL d   1      56.036  49.687  49.499  0.00  0.00     0.021 A 
ATOM      8  C   UNL d   1      56.585  49.687  48.839  0.00  0.00     0.002 A 
ENDROOT
BRANCH   1   9
ATOM      9  C   UNL d   1      58.575  49.693  50.688  0.00  0.00     0.231 C 
ATOM     10  O   UNL d   1      58.973  49.685  51.411  0.00  0.00    -0.643 OA
ATOM     11  O   UNL d   1      59.063  49.703  50.015  0.00  0.00    -0.643 OA
ENDBRANCH   1   9
TORSDOF 1
ENDMDL
MODEL 2
REMARK VINA RESULT:      10.6      2.624      3.262
REMARK  1 active torsions:
REMARK  status: ('A' for Active; 'I' for Inactive)
REMARK    1  A    between atoms: C_6  and  C_1 
ROOT
ATOM      1  C   UNL d   1      60.725  49.704  51.399  0.00  0.00     0.168 A 
ATOM      2  N   UNL d   1      61.273  49.705  50.757  0.00  0.00    -0.142 NA
ATOM      3  C   UNL d   1      59.966  49.705  51.093  0.00  0.00     0.045 A 
ATOM      4  N   UNL d   1      60.825  49.707  50.047  0.00  0.00    -0.148 NA
ATOM      5  C   UNL d   1      60.017  49.707  50.250  0.00  0.00     0.105 A 
ATOM      6  C   UNL d   1      59.169  49.705  51.289  0.00  0.00     0.003 A 
ATOM      7  C   UNL d   1      59.244  49.708  49.939  0.00  0.00     0.021 A 
ATOM      8  C   UNL d   1      58.709  49.707  50.609  0.00  0.00     0.002 A 
ENDROOT
BRANCH   1   9
ATOM      9  C   UNL d   1      60.920  49.703  52.187  0.00  0.00     0.231 C 
ATOM     10  O   UNL d   1      60.337  49.705  52.770  0.00  0.00    -0.643 OA
ATOM     11  O   UNL d   1      61.702  49.699  52.467  0.00  0.00    -0.643 OA
ENDBRANCH   1   9
TORSDOF 1
ENDMDL
