MODEL 1
REMARK VINA RESULT:      -4.2      0.000      0.000
REMARK  0 active torsions:
REMARK  status: ('A' for Active; 'I' for Inactive)
ROOT
ATOM      1  N   UNL d   1      56.794   0.458  33.356  0.00  0.00    -0.270 NA
ATOM      2  C   UNL d   1      56.155  -0.887  32.639  0.00  0.00    -0.001 A 
ATOM      3  C   UNL d   1      55.906  -0.664  33.393  0.00  0.00    -0.004 A 
ATOM      4  C   UNL d   1      57.037   0.233  32.609  0.00  0.00     0.076 A 
ATOM      5  C   UNL d   1      56.226   0.009  33.752  0.00  0.00     0.103 A 
ATOM      6  C   UNL d   1      56.718  -0.440  32.250  0.00  0.00     0.017 A 
ATOM      7  C   UNL d   1      55.835  -1.560  32.280  0.00  0.00    -0.000 C 
ATOM      8  C   UNL d   1      57.606   0.682  32.213  0.00  0.00     0.019 A 
ATOM      9  C   UNL d   1      55.658  -0.440  34.147  0.00  0.00     0.029 C 
ATOM     10  C   UNL d   1      56.546   0.682  34.111  0.00  0.00     0.029 C 
ATOM     11  C   UNL d   1      56.964  -0.664  31.499  0.00  0.00     0.002 A 
ATOM     12  C   UNL d   1      57.852   0.458  31.463  0.00  0.00     0.002 A 
ATOM     13  C   UNL d   1      57.535  -0.214  31.100  0.00  0.00     0.000 A 
ENDROOT
TORSDOF 0
ENDMDL
MODEL 2
REMARK VINA RESULT:      -4.1      0.485      2.237
REMARK  0 active torsions:
REMARK  status: ('A' for Active; 'I' for Inactive)
ROOT
ATOM      1  N   UNL d   1      57.139   0.304  32.733  0.00  0.00    -0.270 NA
ATOM      2  C   UNL d   1      56.061  -0.945  32.631  0.00  0.00    -0.001 A 
ATOM      3  C   UNL d   1      56.610  -0.823  32.028  0.00  0.00    -0.004 A 
ATOM      4  C   UNL d   1      56.594   0.179  33.329  0.00  0.00     0.076 A 
ATOM      5  C   UNL d   1      57.149  -0.198  32.079  0.00  0.00     0.103 A 
ATOM      6  C   UNL d   1      56.055  -0.446  33.278  0.00  0.00     0.017 A 
ATOM      7  C   UNL d   1      55.522  -1.570  32.580  0.00  0.00    -0.000 C 
ATOM      8  C   UNL d   1      56.584   0.681  33.984  0.00  0.00     0.019 A 
ATOM      9  C   UNL d   1      57.159  -0.700  31.424  0.00  0.00     0.029 C 
ATOM     10  C   UNL d   1      57.688   0.427  32.130  0.00  0.00     0.029 C 
ATOM     11  C   UNL d   1      55.508  -0.569  33.878  0.00  0.00     0.002 A 
ATOM     12  C   UNL d   1      56.037   0.558  34.584  0.00  0.00     0.002 A 
ATOM     13  C   UNL d   1      55.496  -0.066  34.537  0.00  0.00     0.000 A 
ENDROOT
TORSDOF 0
ENDMDL
MODEL 3
REMARK VINA RESULT:      -3.9      0.718      1.655
REMARK  0 active torsions:
REMARK  status: ('A' for Active; 'I' for Inactive)
ROOT
ATOM      1  N   UNL d   1      56.442  -1.072  32.046  0.00  0.00    -0.270 NA
ATOM      2  C   UNL d   1      56.824   0.097  33.151  0.00  0.00    -0.001 A 
ATOM      3  C   UNL d   1      56.275  -0.489  33.342  0.00  0.00    -0.004 A 
ATOM      4  C   UNL d   1      56.985  -0.490  31.861  0.00  0.00     0.076 A 
ATOM      5  C   UNL d   1      56.084  -1.074  32.789  0.00  0.00     0.103 A 
ATOM      6  C   UNL d   1      57.176   0.094  32.414  0.00  0.00     0.017 A 
ATOM      7  C   UNL d   1      57.015   0.681  33.704  0.00  0.00    -0.000 C 
ATOM      8  C   UNL d   1      57.343  -0.488  31.117  0.00  0.00     0.019 A 
ATOM      9  C   UNL d   1      55.726  -1.074  33.533  0.00  0.00     0.029 C 
ATOM     10  C   UNL d   1      55.893  -1.658  32.237  0.00  0.00     0.029 C 
ATOM     11  C   UNL d   1      57.722   0.678  32.225  0.00  0.00     0.002 A 
ATOM     12  C   UNL d   1      57.889   0.095  30.930  0.00  0.00     0.002 A 
ATOM     13  C   UNL d   1      58.083   0.682  31.479  0.00  0.00     0.000 A 
ENDROOT
TORSDOF 0
ENDMDL
MODEL 4
REMARK VINA RESULT:      -3.5      1.048      1.873
REMARK  0 active torsions:
REMARK  status: ('A' for Active; 'I' for Inactive)
ROOT
ATOM      1  N   UNL d   1      55.135   0.367  33.369  0.00  0.00    -0.270 NA
ATOM      2  C   UNL d   1      56.540   0.577  34.213  0.00  0.00    -0.001 A 
ATOM      3  C   UNL d   1      55.814   0.621  34.602  0.00  0.00    -0.004 A 
ATOM      4  C   UNL d   1      55.856   0.324  32.987  0.00  0.00     0.076 A 
ATOM      5  C   UNL d   1      55.111   0.516  34.180  0.00  0.00     0.103 A 
ATOM      6  C   UNL d   1      56.559   0.429  33.410  0.00  0.00     0.017 A 
ATOM      7  C   UNL d   1      57.243   0.682  34.635  0.00  0.00    -0.000 C 
ATOM      8  C   UNL d   1      55.880   0.175  32.175  0.00  0.00     0.019 A 
ATOM      9  C   UNL d   1      55.088   0.665  34.991  0.00  0.00     0.029 C 
ATOM     10  C   UNL d   1      54.408   0.411  33.757  0.00  0.00     0.029 C 
ATOM     11  C   UNL d   1      57.283   0.386  33.024  0.00  0.00     0.002 A 
ATOM     12  C   UNL d   1      56.604   0.131  31.791  0.00  0.00     0.002 A 
ATOM     13  C   UNL d   1      57.310   0.236  32.209  0.00  0.00     0.000 A 
ENDROOT
TORSDOF 0
ENDMDL
MODEL 5
REMARK VINA RESULT:      -2.7      9.480      9.798
REMARK  0 active torsions:
REMARK  status: ('A' for Active; 'I' for Inactive)
ROOT
ATOM      1  N   UNL d   1      58.921  -9.340  34.561  0.00  0.00    -0.270 NA
ATOM      2  C   UNL d   1      60.394  -9.005  33.890  0.00  0.00    -0.001 A 
ATOM      3  C   UNL d   1      59.824  -9.410  33.453  0.00  0.00    -0.004 A 
ATOM      4  C   UNL d   1      59.489  -8.939  34.991  0.00  0.00     0.076 A 
ATOM      5  C   UNL d   1      59.087  -9.577  33.789  0.00  0.00     0.103 A 
ATOM      6  C   UNL d   1      60.226  -8.771  34.655  0.00  0.00     0.017 A 
ATOM      7  C   UNL d   1      61.131  -8.838  33.555  0.00  0.00    -0.000 C 
ATOM      8  C   UNL d   1      59.324  -8.700  35.764  0.00  0.00     0.019 A 
ATOM      9  C   UNL d   1      59.253  -9.815  33.017  0.00  0.00     0.029 C 
ATOM     10  C   UNL d   1      58.350  -9.745  34.125  0.00  0.00     0.029 C 
ATOM     11  C   UNL d   1      60.795  -8.368  35.088  0.00  0.00     0.002 A 
ATOM     12  C   UNL d   1      59.893  -8.297  36.196  0.00  0.00     0.002 A 
ATOM     13  C   UNL d   1      60.631  -8.128  35.865  0.00  0.00     0.000 A 
ENDROOT
TORSDOF 0
ENDMDL
MODEL 6
REMARK VINA RESULT:      -2.6      2.392      4.240
REMARK  0 active torsions:
REMARK  status: ('A' for Active; 'I' for Inactive)
ROOT
ATOM      1  N   UNL d   1      58.333  -1.488  29.845  0.00  0.00    -0.270 NA
ATOM      2  C   UNL d   1      58.723  -0.082  29.067  0.00  0.00    -0.001 A 
ATOM      3  C   UNL d   1      58.973  -0.806  28.761  0.00  0.00    -0.004 A 
ATOM      4  C   UNL d   1      58.088  -0.768  30.144  0.00  0.00     0.076 A 
ATOM      5  C   UNL d   1      58.778  -1.510  29.150  0.00  0.00     0.103 A 
ATOM      6  C   UNL d   1      58.283  -0.065  29.755  0.00  0.00     0.017 A 
ATOM      7  C   UNL d   1      58.919   0.621  28.678  0.00  0.00    -0.000 C 
ATOM      8  C   UNL d   1      57.643  -0.745  30.839  0.00  0.00     0.019 A 
ATOM      9  C   UNL d   1      59.222  -1.531  28.455  0.00  0.00     0.029 C 
ATOM     10  C   UNL d   1      58.582  -2.213  29.539  0.00  0.00     0.029 C 
ATOM     11  C   UNL d   1      58.036   0.657  30.058  0.00  0.00     0.002 A 
ATOM     12  C   UNL d   1      57.396  -0.024  31.142  0.00  0.00     0.002 A 
ATOM     13  C   UNL d   1      57.589   0.682  30.756  0.00  0.00     0.000 A 
ENDROOT
TORSDOF 0
ENDMDL
MODEL 7
REMARK VINA RESULT:      -2.5      3.784      5.105
REMARK  0 active torsions:
REMARK  status: ('A' for Active; 'I' for Inactive)
ROOT
ATOM      1  N   UNL d   1      58.743  -0.966  29.427  0.00  0.00    -0.270 NA
ATOM      2  C   UNL d   1      60.335  -1.001  28.984  0.00  0.00    -0.001 A 
ATOM      3  C   UNL d   1      59.982  -0.287  29.198  0.00  0.00    -0.004 A 
ATOM      4  C   UNL d   1      59.098  -1.671  29.215  0.00  0.00     0.076 A 
ATOM      5  C   UNL d   1      59.185  -0.270  29.420  0.00  0.00     0.103 A 
ATOM      6  C   UNL d   1      59.894  -1.688  28.993  0.00  0.00     0.017 A 
ATOM      7  C   UNL d   1      61.132  -1.018  28.763  0.00  0.00    -0.000 C 
ATOM      8  C   UNL d   1      58.656  -2.369  29.222  0.00  0.00     0.019 A 
ATOM      9  C   UNL d   1      59.628   0.427  29.412  0.00  0.00     0.029 C 
ATOM     10  C   UNL d   1      58.388  -0.253  29.642  0.00  0.00     0.029 C 
ATOM     11  C   UNL d   1      60.248  -2.398  28.780  0.00  0.00     0.002 A 
ATOM     12  C   UNL d   1      59.010  -3.077  29.009  0.00  0.00     0.002 A 
ATOM     13  C   UNL d   1      59.806  -3.100  28.786  0.00  0.00     0.000 A 
ENDROOT
TORSDOF 0
ENDMDL
MODEL 8
REMARK VINA RESULT:      -2.3      3.837      5.250
REMARK  0 active torsions:
REMARK  status: ('A' for Active; 'I' for Inactive)
ROOT
ATOM      1  N   UNL d   1      58.973  -2.122  29.183  0.00  0.00    -0.270 NA
ATOM      2  C   UNL d   1      60.413  -1.363  28.894  0.00  0.00    -0.001 A 
ATOM      3  C   UNL d   1      60.341  -2.175  28.767  0.00  0.00    -0.004 A 
ATOM      4  C   UNL d   1      59.049  -1.318  29.307  0.00  0.00     0.076 A 
ATOM      5  C   UNL d   1      59.621  -2.554  28.911  0.00  0.00     0.103 A 
ATOM      6  C   UNL d   1      59.769  -0.938  29.163  0.00  0.00     0.017 A 
ATOM      7  C   UNL d   1      61.133  -0.983  28.749  0.00  0.00    -0.000 C 
ATOM      8  C   UNL d   1      58.401  -0.884  29.579  0.00  0.00     0.019 A 
ATOM      9  C   UNL d   1      60.269  -2.987  28.639  0.00  0.00     0.029 C 
ATOM     10  C   UNL d   1      58.900  -2.934  29.056  0.00  0.00     0.029 C 
ATOM     11  C   UNL d   1      59.843  -0.130  29.289  0.00  0.00     0.002 A 
ATOM     12  C   UNL d   1      58.475  -0.077  29.705  0.00  0.00     0.002 A 
ATOM     13  C   UNL d   1      59.193   0.307  29.562  0.00  0.00     0.000 A 
ENDROOT
TORSDOF 0
ENDMDL
MODEL 9
REMARK VINA RESULT:      -2.0      2.981      4.229
REMARK  0 active torsions:
REMARK  status: ('A' for Active; 'I' for Inactive)
ROOT
ATOM      1  N   UNL d   1      59.171   0.425  30.092  0.00  0.00    -0.270 NA
ATOM      2  C   UNL d   1      58.979  -0.999  29.276  0.00  0.00    -0.001 A 
ATOM      3  C   UNL d   1      58.398  -0.744  29.803  0.00  0.00    -0.004 A 
ATOM      4  C   UNL d   1      59.744   0.168  29.569  0.00  0.00     0.076 A 
ATOM      5  C   UNL d   1      58.494  -0.031  30.211  0.00  0.00     0.103 A 
ATOM      6  C   UNL d   1      59.648  -0.544  29.161  0.00  0.00     0.017 A 
ATOM      7  C   UNL d   1      58.883  -1.712  28.868  0.00  0.00    -0.000 C 
ATOM      8  C   UNL d   1      60.422   0.625  29.450  0.00  0.00     0.019 A 
ATOM      9  C   UNL d   1      57.817  -0.488  30.330  0.00  0.00     0.029 C 
ATOM     10  C   UNL d   1      58.590   0.682  30.619  0.00  0.00     0.029 C 
ATOM     11  C   UNL d   1      60.225  -0.801  28.636  0.00  0.00     0.002 A 
ATOM     12  C   UNL d   1      60.998   0.368  28.925  0.00  0.00     0.002 A 
ATOM     13  C   UNL d   1      60.907  -0.344  28.515  0.00  0.00     0.000 A 
ENDROOT
TORSDOF 0
ENDMDL
