MODEL 1
REMARK VINA RESULT:      61.9      0.000      0.000
REMARK  3 active torsions:
REMARK  status: ('A' for Active; 'I' for Inactive)
REMARK    1  A    between atoms: C_8  and  C_1 
REMARK    2  A    between atoms: N_5  and  C_2 
REMARK       I    between atoms: C_7  and  N_5 
REMARK    3  A    between atoms: C_10  and  C_7 
ROOT
ATOM      1  C   UNL d   1      59.912  49.193  50.815  0.00  0.00     0.212 A 
ATOM      2  C   UNL d   1      60.941  48.525  50.285  0.00  0.00     0.297 A 
ATOM      3  O   UNL d   1      60.127  48.498  50.419  0.00  0.00    -0.253 OA
ATOM      4  N   UNL d   1      60.591  49.640  50.920  0.00  0.00    -0.119 NA
ATOM      5  N   UNL d   1      61.226  49.228  50.594  0.00  0.00    -0.101 NA
ENDROOT
BRANCH   2   6
ATOM      6  N   UNL d   1      61.381  47.941  49.905  0.00  0.00    -0.165 NA
ATOM      7  C   UNL d   1      61.408  47.184  50.208  0.00  0.00     0.282 C 
ATOM      8  O   UNL d   1      60.996  46.992  50.899  0.00  0.00    -0.265 OA
BRANCH   7   9
ATOM      9  C   UNL d   1      61.851  46.597  49.826  0.00  0.00     0.060 A 
ATOM     10  C   UNL d   1      61.513  45.866  49.643  0.00  0.00     0.034 A 
ATOM     11  C   UNL d   1      61.958  45.288  49.263  0.00  0.00     0.140 A 
ATOM     12  F   UNL d   1      61.616  44.546  49.076  0.00  0.00    -0.204 F 
ATOM     13  C   UNL d   1      62.744  45.434  49.061  0.00  0.00     0.030 A 
ATOM     14  C   UNL d   1      63.080  46.161  49.244  0.00  0.00     0.003 A 
ATOM     15  C   UNL d   1      62.641  46.741  49.622  0.00  0.00     0.005 A 
ENDBRANCH   7   9
ENDBRANCH   2   6
BRANCH   1  16
ATOM     16  C   UNL d   1      59.145  49.392  51.057  0.00  0.00     0.072 A 
ATOM     17  S   UNL d   1      58.497  49.502  50.566  0.00  0.00    -0.083 SA
ATOM     18  C   UNL d   1      57.849  49.692  51.039  0.00  0.00     0.035 A 
ATOM     19  C   UNL d   1      58.100  49.699  51.829  0.00  0.00     0.008 A 
ATOM     20  C   UNL d   1      58.906  49.512  51.837  0.00  0.00     0.011 A 
ENDBRANCH   1  16
TORSDOF 3
ENDMDL
MODEL 2
REMARK VINA RESULT:      62.7      1.126      1.330
REMARK  3 active torsions:
REMARK  status: ('A' for Active; 'I' for Inactive)
REMARK    1  A    between atoms: C_8  and  C_1 
REMARK    2  A    between atoms: N_5  and  C_2 
REMARK       I    between atoms: C_7  and  N_5 
REMARK    3  A    between atoms: C_10  and  C_7 
ROOT
ATOM      1  C   UNL d   1      60.859  49.072  51.184  0.00  0.00     0.212 A 
ATOM      2  C   UNL d   1      61.299  48.285  50.198  0.00  0.00     0.297 A 
ATOM      3  O   UNL d   1      60.977  48.284  50.958  0.00  0.00    -0.253 OA
ATOM      4  N   UNL d   1      61.108  49.548  50.566  0.00  0.00    -0.119 NA
ATOM      5  N   UNL d   1      61.380  49.063  49.958  0.00  0.00    -0.101 NA
ENDROOT
BRANCH   2   6
ATOM      6  N   UNL d   1      61.502  47.613  49.765  0.00  0.00    -0.165 NA
ATOM      7  C   UNL d   1      61.569  46.889  50.137  0.00  0.00     0.282 C 
ATOM      8  O   UNL d   1      61.436  46.819  50.950  0.00  0.00    -0.265 OA
BRANCH   7   9
ATOM      9  C   UNL d   1      61.773  46.215  49.701  0.00  0.00     0.060 A 
ATOM     10  C   UNL d   1      61.200  45.655  49.499  0.00  0.00     0.034 A 
ATOM     11  C   UNL d   1      61.408  44.988  49.066  0.00  0.00     0.140 A 
ATOM     12  F   UNL d   1      60.828  44.419  48.861  0.00  0.00    -0.204 F 
ATOM     13  C   UNL d   1      62.190  44.872  48.830  0.00  0.00     0.030 A 
ATOM     14  C   UNL d   1      62.760  45.429  49.031  0.00  0.00     0.003 A 
ATOM     15  C   UNL d   1      62.557  46.096  49.463  0.00  0.00     0.005 A 
ENDBRANCH   7   9
ENDBRANCH   2   6
BRANCH   1  16
ATOM     16  C   UNL d   1      60.545  49.323  51.909  0.00  0.00     0.072 A 
ATOM     17  S   UNL d   1      60.969  49.468  52.596  0.00  0.00    -0.083 SA
ATOM     18  C   UNL d   1      60.437  49.706  53.178  0.00  0.00     0.035 A 
ATOM     19  C   UNL d   1      59.677  49.707  52.847  0.00  0.00     0.008 A 
ATOM     20  C   UNL d   1      59.746  49.469  52.058  0.00  0.00     0.011 A 
ENDBRANCH   1  16
TORSDOF 3
ENDMDL
MODEL 3
REMARK VINA RESULT:      64.3      1.071      1.558
REMARK  3 active torsions:
REMARK  status: ('A' for Active; 'I' for Inactive)
REMARK    1  A    between atoms: C_8  and  C_1 
REMARK    2  A    between atoms: N_5  and  C_2 
REMARK       I    between atoms: C_7  and  N_5 
REMARK    3  A    between atoms: C_10  and  C_7 
ROOT
ATOM      1  C   UNL d   1      58.441  49.403  50.723  0.00  0.00     0.212 A 
ATOM      2  C   UNL d   1      59.709  48.997  50.607  0.00  0.00     0.297 A 
ATOM      3  O   UNL d   1      58.963  48.960  50.256  0.00  0.00    -0.253 OA
ATOM      4  N   UNL d   1      58.868  49.707  51.353  0.00  0.00    -0.119 NA
ATOM      5  N   UNL d   1      59.650  49.457  51.282  0.00  0.00    -0.101 NA
ENDROOT
BRANCH   2   6
ATOM      6  N   UNL d   1      60.390  48.631  50.319  0.00  0.00    -0.165 NA
ATOM      7  C   UNL d   1      60.596  47.885  50.578  0.00  0.00     0.282 C 
ATOM      8  O   UNL d   1      60.127  47.487  51.130  0.00  0.00    -0.265 OA
BRANCH   7   9
ATOM      9  C   UNL d   1      61.280  47.519  50.289  0.00  0.00     0.060 A 
ATOM     10  C   UNL d   1      61.242  46.771  49.941  0.00  0.00     0.034 A 
ATOM     11  C   UNL d   1      61.924  46.412  49.655  0.00  0.00     0.140 A 
ATOM     12  F   UNL d   1      61.887  45.652  49.302  0.00  0.00    -0.204 F 
ATOM     13  C   UNL d   1      62.653  46.796  49.714  0.00  0.00     0.030 A 
ATOM     14  C   UNL d   1      62.690  47.540  50.060  0.00  0.00     0.003 A 
ATOM     15  C   UNL d   1      62.012  47.902  50.346  0.00  0.00     0.005 A 
ENDBRANCH   7   9
ENDBRANCH   2   6
BRANCH   1  16
ATOM     16  C   UNL d   1      57.634  49.513  50.571  0.00  0.00     0.072 A 
ATOM     17  S   UNL d   1      57.047  49.621  51.133  0.00  0.00    -0.083 SA
ATOM     18  C   UNL d   1      56.329  49.708  50.738  0.00  0.00     0.035 A 
ATOM     19  C   UNL d   1      56.475  49.653  49.924  0.00  0.00     0.008 A 
ATOM     20  C   UNL d   1      57.287  49.531  49.823  0.00  0.00     0.011 A 
ENDBRANCH   1  16
TORSDOF 3
ENDMDL
