MODEL 1
REMARK VINA RESULT:      20.7      0.000      0.000
REMARK  6 active torsions:
REMARK  status: ('A' for Active; 'I' for Inactive)
REMARK    1  A    between atoms: C_2  and  S_1 
REMARK    2  A    between atoms: N_3  and  S_1 
REMARK    3  A    between atoms: C_11  and  N_3 
REMARK    4  A    between atoms: O_13  and  C_5 
REMARK    5  A    between atoms: C_14  and  C_11 
REMARK    6  A    between atoms: C_15  and  O_13 
ROOT
ATOM      1  S   UNL d   1      13.592  12.049  -2.708  0.00  0.00     0.285 S 
ATOM      2  O   UNL d   1      12.830  12.222  -2.443  0.00  0.00    -0.198 OA
ATOM      3  O   UNL d   1      14.354  11.877  -2.973  0.00  0.00    -0.198 OA
ENDROOT
BRANCH   1   4
ATOM      4  C   UNL d   1      13.391  12.319  -3.461  0.00  0.00     0.107 A 
ATOM      5  C   UNL d   1      13.392  13.127  -3.624  0.00  0.00     0.040 A 
ATOM      6  C   UNL d   1      13.191  13.397  -4.377  0.00  0.00     0.128 A 
ATOM      7  C   UNL d   1      12.989  12.860  -4.967  0.00  0.00     0.163 A 
ATOM      8  C   UNL d   1      12.988  12.053  -4.805  0.00  0.00     0.032 A 
ATOM      9  F   UNL d   1      12.788  13.130  -5.721  0.00  0.00    -0.202 F 
ATOM     10  C   UNL d   1      13.189  11.783  -4.052  0.00  0.00     0.015 A 
BRANCH   6  11
ATOM     11  O   UNL d   1      13.192  14.204  -4.540  0.00  0.00    -0.303 OA
BRANCH  11  12
ATOM     12  C   UNL d   1      13.580  14.724  -4.033  0.00  0.00     0.123 C 
ATOM     13  C   UNL d   1      13.659  15.525  -4.237  0.00  0.00     0.029 C 
ENDBRANCH  11  12
ENDBRANCH   6  11
ENDBRANCH   1   4
BRANCH   1  14
ATOM     14  N   UNL d   1      13.793  11.779  -1.955  0.00  0.00    -0.157 NA
BRANCH  14  15
ATOM     15  C   UNL d   1      13.640  12.252  -1.293  0.00  0.00     0.112 C 
BRANCH  15  16
ATOM     16  C   UNL d   1      14.266  12.594  -0.879  0.00  0.00     0.020 A 
ATOM     17  C   UNL d   1      15.000  12.221  -0.877  0.00  0.00     0.002 A 
ATOM     18  C   UNL d   1      15.624  12.562  -0.465  0.00  0.00     0.000 A 
ATOM     19  C   UNL d   1      15.516  13.271  -0.057  0.00  0.00     0.000 A 
ATOM     20  C   UNL d   1      14.775  13.640  -0.064  0.00  0.00     0.000 A 
ATOM     21  C   UNL d   1      14.149  13.297  -0.478  0.00  0.00     0.002 A 
ENDBRANCH  15  16
ENDBRANCH  14  15
ENDBRANCH   1  14
TORSDOF 6
ENDMDL
MODEL 2
REMARK VINA RESULT:      20.9      1.812      3.966
REMARK  6 active torsions:
REMARK  status: ('A' for Active; 'I' for Inactive)
REMARK    1  A    between atoms: C_2  and  S_1 
REMARK    2  A    between atoms: N_3  and  S_1 
REMARK    3  A    between atoms: C_11  and  N_3 
REMARK    4  A    between atoms: O_13  and  C_5 
REMARK    5  A    between atoms: C_14  and  C_11 
REMARK    6  A    between atoms: C_15  and  O_13 
ROOT
ATOM      1  S   UNL d   1      13.713  12.222  -2.263  0.00  0.00     0.285 S 
ATOM      2  O   UNL d   1      14.130  12.657  -2.826  0.00  0.00    -0.198 OA
ATOM      3  O   UNL d   1      13.296  11.787  -1.699  0.00  0.00    -0.198 OA
ENDROOT
BRANCH   1   4
ATOM      4  C   UNL d   1      14.293  12.393  -1.701  0.00  0.00     0.107 A 
ATOM      5  C   UNL d   1      14.309  13.133  -1.338  0.00  0.00     0.040 A 
ATOM      6  C   UNL d   1      14.889  13.304  -0.776  0.00  0.00     0.128 A 
ATOM      7  C   UNL d   1      15.452  12.737  -0.579  0.00  0.00     0.163 A 
ATOM      8  C   UNL d   1      15.436  11.999  -0.942  0.00  0.00     0.032 A 
ATOM      9  F   UNL d   1      16.032  12.908  -0.017  0.00  0.00    -0.202 F 
ATOM     10  C   UNL d   1      14.856  11.827  -1.503  0.00  0.00     0.015 A 
BRANCH   6  11
ATOM     11  O   UNL d   1      14.906  14.042  -0.413  0.00  0.00    -0.303 OA
BRANCH  11  12
ATOM     12  C   UNL d   1      15.176  14.699  -0.830  0.00  0.00     0.123 C 
ATOM     13  C   UNL d   1      15.043  15.464  -0.537  0.00  0.00     0.029 C 
ENDBRANCH  11  12
ENDBRANCH   6  11
ENDBRANCH   1   4
BRANCH   1  14
ATOM     14  N   UNL d   1      13.133  12.050  -2.824  0.00  0.00    -0.157 NA
BRANCH  14  15
ATOM     15  C   UNL d   1      12.881  12.638  -3.348  0.00  0.00     0.112 C 
BRANCH  15  16
ATOM     16  C   UNL d   1      13.043  12.567  -4.154  0.00  0.00     0.020 A 
ATOM     17  C   UNL d   1      12.896  11.853  -4.535  0.00  0.00     0.002 A 
ATOM     18  C   UNL d   1      13.058  11.782  -5.337  0.00  0.00     0.000 A 
ATOM     19  C   UNL d   1      13.365  12.422  -5.757  0.00  0.00     0.000 A 
ATOM     20  C   UNL d   1      13.511  13.137  -5.368  0.00  0.00     0.000 A 
ATOM     21  C   UNL d   1      13.348  13.208  -4.562  0.00  0.00     0.002 A 
ENDBRANCH  15  16
ENDBRANCH  14  15
ENDBRANCH   1  14
TORSDOF 6
ENDMDL
