MODEL 1
REMARK VINA RESULT:      -3.2      0.000      0.000
REMARK  6 active torsions:
REMARK  status: ('A' for Active; 'I' for Inactive)
REMARK    1  A    between atoms: N_7  and  C_1 
REMARK    2  A    between atoms: C_6  and  C_4 
REMARK    3  A    between atoms: C_22  and  C_12 
REMARK    4  A    between atoms: C_23  and  N_13 
REMARK    5  A    between atoms: O_17  and  C_22 
REMARK    6  A    between atoms: C_18  and  O_17 
ROOT
ATOM      1  C   UNL d   1      32.819  22.073 -20.353  0.00  0.00     0.198 A 
ATOM      2  C   UNL d   1      32.423  22.190 -21.050  0.00  0.00     0.191 A 
ATOM      3  O   UNL d   1      33.214  21.366 -20.423  0.00  0.00    -0.268 OA
ATOM      4  C   UNL d   1      33.054  21.063 -21.157  0.00  0.00     0.208 A 
ATOM      5  N   UNL d   1      32.588  21.555 -21.516  0.00  0.00    -0.206 NA
ATOM      6  C   UNL d   1      31.926  22.837 -21.276  0.00  0.00     0.124 C 
ATOM      7  N   UNL d   1      31.434  23.485 -21.490  0.00  0.00    -0.190 NA
ENDROOT
BRANCH   1   8
ATOM      8  N   UNL d   1      32.909  22.480 -19.636  0.00  0.00    -0.280 N 
ATOM      9  C   UNL d   1      33.109  23.259 -19.643  0.00  0.00     0.101 A 
ATOM     10  C   UNL d   1      33.199  23.665 -18.926  0.00  0.00     0.100 A 
ATOM     11  N   UNL d   1      33.089  23.293 -18.240  0.00  0.00    -0.300 N 
ATOM     12  C   UNL d   1      32.882  22.490 -18.210  0.00  0.00     0.100 A 
ATOM     13  C   UNL d   1      32.789  22.071 -18.915  0.00  0.00     0.101 A 
BRANCH  11  14
ATOM     14  C   UNL d   1      33.179  23.700 -17.524  0.00  0.00     0.080 C 
ATOM     15  C   UNL d   1      32.702  23.525 -16.840  0.00  0.00     0.021 C 
ENDBRANCH  11  14
ENDBRANCH   1   8
BRANCH   4  16
ATOM     16  C   UNL d   1      33.039  20.588 -21.804  0.00  0.00     0.141 A 
ATOM     17  O   UNL d   1      32.954  20.369 -22.623  0.00  0.00    -0.301 OA
ATOM     18  C   UNL d   1      33.087  19.556 -22.651  0.00  0.00     0.125 A 
ATOM     19  C   UNL d   1      33.241  19.302 -21.900  0.00  0.00     0.029 A 
ATOM     20  C   UNL d   1      33.210  19.933 -21.392  0.00  0.00     0.030 A 
BRANCH  18  21
ATOM     21  C   UNL d   1      33.060  19.120 -23.333  0.00  0.00     0.147 C 
BRANCH  21  22
ATOM     22  O   UNL d   1      32.393  18.729 -23.557  0.00  0.00    -0.303 OA
BRANCH  22  23
ATOM     23  C   UNL d   1      32.422  18.099 -24.051  0.00  0.00     0.100 A 
ATOM     24  C   UNL d   1      31.726  17.768 -24.356  0.00  0.00     0.023 A 
ATOM     25  C   UNL d   1      30.999  18.103 -24.140  0.00  0.00     0.002 C 
ATOM     26  C   UNL d   1      31.754  17.145 -24.844  0.00  0.00     0.002 A 
ATOM     27  C   UNL d   1      32.481  16.810 -25.060  0.00  0.00     0.000 A 
ATOM     28  C   UNL d   1      33.187  17.140 -24.755  0.00  0.00     0.002 A 
ATOM     29  C   UNL d   1      33.158  17.764 -24.267  0.00  0.00     0.025 A 
ENDBRANCH  22  23
ENDBRANCH  21  22
ENDBRANCH  18  21
ENDBRANCH   4  16
TORSDOF 6
ENDMDL
