MODEL 1
REMARK VINA RESULT:      68.1      0.000      0.000
REMARK  3 active torsions:
REMARK  status: ('A' for Active; 'I' for Inactive)
REMARK    1  A    between atoms: S_3  and  N_1 
REMARK    2  A    between atoms: C_7  and  C_4 
REMARK    3  A    between atoms: C_12  and  C_5 
ROOT
ATOM      1  N   UNL d   1      57.681  49.540  51.539  0.00  0.00    -0.155 N 
ATOM      2  N   UNL d   1      57.125  49.527  52.136  0.00  0.00    -0.156 NA
ATOM      3  C   UNL d   1      58.418  49.585  51.875  0.00  0.00     0.096 A 
ATOM      4  C   UNL d   1      57.528  49.564  52.846  0.00  0.00     0.103 A 
ATOM      5  C   UNL d   1      58.325  49.600  52.695  0.00  0.00     0.041 A 
ENDROOT
BRANCH   3   6
ATOM      6  C   UNL d   1      59.140  49.612  51.471  0.00  0.00     0.020 A 
ATOM      7  C   UNL d   1      59.851  49.608  51.893  0.00  0.00     0.022 A 
ATOM      8  C   UNL d   1      60.571  49.635  51.490  0.00  0.00     0.099 A 
ATOM      9  N   UNL d   1      61.281  49.631  51.911  0.00  0.00    -0.241 NA
ATOM     10  C   UNL d   1      60.581  49.665  50.669  0.00  0.00     0.099 A 
ATOM     11  C   UNL d   1      61.972  49.657  51.507  0.00  0.00     0.120 A 
ATOM     12  C   UNL d   1      61.981  49.687  50.687  0.00  0.00     0.120 A 
ATOM     13  N   UNL d   1      61.301  49.691  50.265  0.00  0.00    -0.241 NA
ATOM     14  C   UNL d   1      59.871  49.668  50.247  0.00  0.00     0.021 A 
ATOM     15  C   UNL d   1      59.150  49.642  50.651  0.00  0.00     0.003 A 
ENDBRANCH   3   6
BRANCH   1  16
ATOM     16  S   UNL d   1      57.529  49.513  50.711  0.00  0.00     0.266 S 
ATOM     17  O   UNL d   1      58.352  49.345  50.593  0.00  0.00    -0.203 OA
ATOM     18  O   UNL d   1      57.411  49.480  49.896  0.00  0.00    -0.203 OA
ATOM     19  C   UNL d   1      56.741  49.675  50.842  0.00  0.00     0.165 C 
ENDBRANCH   1  16
BRANCH   4  20
ATOM     20  C   UNL d   1      57.186  49.564  53.587  0.00  0.00     0.019 A 
ATOM     21  C   UNL d   1      57.635  49.448  54.253  0.00  0.00     0.002 A 
ATOM     22  C   UNL d   1      57.297  49.446  55.020  0.00  0.00     0.000 A 
ATOM     23  C   UNL d   1      56.479  49.567  55.095  0.00  0.00     0.000 A 
ATOM     24  C   UNL d   1      56.034  49.685  54.401  0.00  0.00     0.000 A 
ATOM     25  C   UNL d   1      56.139  49.568  55.830  0.00  0.00     0.000 C 
ATOM     26  C   UNL d   1      56.368  49.686  53.666  0.00  0.00     0.002 A 
ENDBRANCH   4  20
TORSDOF 3
ENDMDL
