MODEL 1
REMARK VINA RESULT:       0.3      0.000      0.000
REMARK  6 active torsions:
REMARK  status: ('A' for Active; 'I' for Inactive)
REMARK    1  A    between atoms: C_2  and  S_1 
REMARK    2  A    between atoms: N_3  and  S_1 
REMARK    3  A    between atoms: C_9  and  N_3 
REMARK    4  A    between atoms: C_13  and  C_7 
REMARK    5  A    between atoms: O_14  and  C_8 
REMARK    6  A    between atoms: C_20  and  O_14 
ROOT
ATOM      1  C   UNL d   1      31.544  17.601 -23.996  0.00  0.00     0.128 A 
ATOM      2  C   UNL d   1      30.774  17.895 -23.955  0.00  0.00     0.015 A 
ATOM      3  C   UNL d   1      30.180  17.567 -24.426  0.00  0.00     0.001 A 
ATOM      4  C   UNL d   1      31.715  16.982 -24.507  0.00  0.00     0.112 A 
ATOM      5  C   UNL d   1      30.359  16.945 -24.938  0.00  0.00     0.002 A 
ATOM      6  C   UNL d   1      31.130  16.651 -24.979  0.00  0.00     0.025 A 
ENDROOT
BRANCH   1   7
ATOM      7  S   UNL d   1      32.129  17.931 -23.524  0.00  0.00     0.287 S 
ATOM      8  O   UNL d   1      32.071  17.310 -22.997  0.00  0.00    -0.198 OA
ATOM      9  O   UNL d   1      32.191  18.560 -24.054  0.00  0.00    -0.198 OA
BRANCH   7  10
ATOM     10  N   UNL d   1      32.718  18.270 -23.055  0.00  0.00    -0.157 NA
BRANCH  10  11
ATOM     11  C   UNL d   1      32.760  19.091 -22.979  0.00  0.00     0.113 A 
ATOM     12  C   UNL d   1      33.053  19.546 -23.592  0.00  0.00     0.119 A 
ATOM     13  N   UNL d   1      33.095  20.366 -23.514  0.00  0.00    -0.241 NA
ATOM     14  C   UNL d   1      32.839  20.733 -22.813  0.00  0.00     0.099 A 
ATOM     15  C   UNL d   1      32.544  20.266 -22.197  0.00  0.00     0.022 A 
ATOM     16  C   UNL d   1      32.502  19.446 -22.275  0.00  0.00     0.023 A 
ENDBRANCH  10  11
ENDBRANCH   7  10
ENDBRANCH   1   7
BRANCH   4  17
ATOM     17  O   UNL d   1      32.487  16.688 -24.548  0.00  0.00    -0.304 OA
BRANCH  17  18
ATOM     18  C   UNL d   1      32.665  16.064 -25.058  0.00  0.00     0.123 C 
ATOM     19  C   UNL d   1      33.167  15.456 -24.809  0.00  0.00     0.029 C 
ENDBRANCH  17  18
ENDBRANCH   4  17
BRANCH   3  20
ATOM     20  C   UNL d   1      29.408  17.861 -24.385  0.00  0.00     0.000 C 
ATOM     21  C   UNL d   1      28.909  17.627 -23.772  0.00  0.00     0.000 C 
ATOM     22  C   UNL d   1      29.138  18.394 -24.963  0.00  0.00     0.000 C 
ENDBRANCH   3  20
TORSDOF 6
ENDMDL
MODEL 2
REMARK VINA RESULT:       0.6      3.778      5.086
REMARK  6 active torsions:
REMARK  status: ('A' for Active; 'I' for Inactive)
REMARK    1  A    between atoms: C_2  and  S_1 
REMARK    2  A    between atoms: N_3  and  S_1 
REMARK    3  A    between atoms: C_9  and  N_3 
REMARK    4  A    between atoms: C_13  and  C_7 
REMARK    5  A    between atoms: O_14  and  C_8 
REMARK    6  A    between atoms: C_20  and  O_14 
ROOT
ATOM      1  C   UNL d   1      32.723  21.792 -22.472  0.00  0.00     0.128 A 
ATOM      2  C   UNL d   1      32.770  21.063 -22.086  0.00  0.00     0.015 A 
ATOM      3  C   UNL d   1      32.998  20.388 -22.502  0.00  0.00     0.001 A 
ATOM      4  C   UNL d   1      32.905  21.839 -23.272  0.00  0.00     0.112 A 
ATOM      5  C   UNL d   1      33.179  20.443 -23.305  0.00  0.00     0.002 A 
ATOM      6  C   UNL d   1      33.132  21.171 -23.692  0.00  0.00     0.025 A 
ENDROOT
BRANCH   1   7
ATOM      7  S   UNL d   1      32.496  22.459 -22.052  0.00  0.00     0.287 S 
ATOM      8  O   UNL d   1      33.240  22.518 -21.720  0.00  0.00    -0.198 OA
ATOM      9  O   UNL d   1      31.743  22.404 -22.386  0.00  0.00    -0.198 OA
BRANCH   7  10
ATOM     10  N   UNL d   1      32.260  23.130 -21.633  0.00  0.00    -0.157 NA
BRANCH  10  11
ATOM     11  C   UNL d   1      32.377  23.165 -20.817  0.00  0.00     0.113 A 
ATOM     12  C   UNL d   1      31.909  22.719 -20.316  0.00  0.00     0.119 A 
ATOM     13  N   UNL d   1      32.026  22.755 -19.500  0.00  0.00    -0.241 NA
ATOM     14  C   UNL d   1      32.619  23.244 -19.184  0.00  0.00     0.099 A 
ATOM     15  C   UNL d   1      33.088  23.692 -19.697  0.00  0.00     0.022 A 
ATOM     16  C   UNL d   1      32.971  23.657 -20.512  0.00  0.00     0.023 A 
ENDBRANCH  10  11
ENDBRANCH   7  10
ENDBRANCH   1   7
BRANCH   4  17
ATOM     17  O   UNL d   1      32.858  22.568 -23.659  0.00  0.00    -0.304 OA
BRANCH  17  18
ATOM     18  C   UNL d   1      32.860  22.599 -24.483  0.00  0.00     0.123 C 
ATOM     19  C   UNL d   1      32.789  23.326 -24.870  0.00  0.00     0.029 C 
ENDBRANCH  17  18
ENDBRANCH   4  17
BRANCH   3  20
ATOM     20  C   UNL d   1      33.045  19.658 -22.115  0.00  0.00     0.000 C 
ATOM     21  C   UNL d   1      33.241  18.978 -22.538  0.00  0.00     0.000 C 
ATOM     22  C   UNL d   1      32.893  19.614 -21.298  0.00  0.00     0.000 C 
ENDBRANCH   3  20
TORSDOF 6
ENDMDL
MODEL 3
REMARK VINA RESULT:       1.3      1.626      1.995
REMARK  6 active torsions:
REMARK  status: ('A' for Active; 'I' for Inactive)
REMARK    1  A    between atoms: C_2  and  S_1 
REMARK    2  A    between atoms: N_3  and  S_1 
REMARK    3  A    between atoms: C_9  and  N_3 
REMARK    4  A    between atoms: C_13  and  C_7 
REMARK    5  A    between atoms: O_14  and  C_8 
REMARK    6  A    between atoms: C_20  and  O_14 
ROOT
ATOM      1  C   UNL d   1      31.092  16.486 -24.036  0.00  0.00     0.128 A 
ATOM      2  C   UNL d   1      30.291  16.472 -24.237  0.00  0.00     0.015 A 
ATOM      3  C   UNL d   1      29.760  16.023 -23.791  0.00  0.00     0.001 A 
ATOM      4  C   UNL d   1      31.356  16.051 -23.391  0.00  0.00     0.112 A 
ATOM      5  C   UNL d   1      30.033  15.589 -23.144  0.00  0.00     0.002 A 
ATOM      6  C   UNL d   1      30.834  15.603 -22.944  0.00  0.00     0.025 A 
ENDROOT
BRANCH   1   7
ATOM      7  S   UNL d   1      31.614  16.934 -24.484  0.00  0.00     0.287 S 
ATOM      8  O   UNL d   1      31.998  16.257 -24.734  0.00  0.00    -0.198 OA
ATOM      9  O   UNL d   1      31.229  17.619 -24.234  0.00  0.00    -0.198 OA
BRANCH   7  10
ATOM     10  N   UNL d   1      32.136  17.391 -24.932  0.00  0.00    -0.157 NA
BRANCH  10  11
ATOM     11  C   UNL d   1      32.328  18.154 -24.684  0.00  0.00     0.113 A 
ATOM     12  C   UNL d   1      32.970  18.276 -24.193  0.00  0.00     0.119 A 
ATOM     13  N   UNL d   1      33.162  19.040 -23.946  0.00  0.00    -0.241 NA
ATOM     14  C   UNL d   1      32.703  19.688 -24.196  0.00  0.00     0.099 A 
ATOM     15  C   UNL d   1      32.056  19.556 -24.693  0.00  0.00     0.022 A 
ATOM     16  C   UNL d   1      31.864  18.793 -24.940  0.00  0.00     0.023 A 
ENDBRANCH  10  11
ENDBRANCH   7  10
ENDBRANCH   1   7
BRANCH   4  17
ATOM     17  O   UNL d   1      32.158  16.065 -23.190  0.00  0.00    -0.304 OA
BRANCH  17  18
ATOM     18  C   UNL d   1      32.446  15.558 -22.608  0.00  0.00     0.123 C 
ATOM     19  C   UNL d   1      33.228  15.630 -22.346  0.00  0.00     0.029 C 
ENDBRANCH  17  18
ENDBRANCH   4  17
BRANCH   3  20
ATOM     20  C   UNL d   1      28.958  16.010 -23.992  0.00  0.00     0.000 C 
ATOM     21  C   UNL d   1      28.677  15.453 -24.532  0.00  0.00     0.000 C 
ATOM     22  C   UNL d   1      28.437  16.558 -23.647  0.00  0.00     0.000 C 
ENDBRANCH   3  20
TORSDOF 6
ENDMDL
MODEL 4
REMARK VINA RESULT:       2.1      2.275      3.329
REMARK  6 active torsions:
REMARK  status: ('A' for Active; 'I' for Inactive)
REMARK    1  A    between atoms: C_2  and  S_1 
REMARK    2  A    between atoms: N_3  and  S_1 
REMARK    3  A    between atoms: C_9  and  N_3 
REMARK    4  A    between atoms: C_13  and  C_7 
REMARK    5  A    between atoms: O_14  and  C_8 
REMARK    6  A    between atoms: C_20  and  O_14 
ROOT
ATOM      1  C   UNL d   1      29.744  16.657 -24.328  0.00  0.00     0.128 A 
ATOM      2  C   UNL d   1      29.335  16.149 -23.821  0.00  0.00     0.015 A 
ATOM      3  C   UNL d   1      28.585  16.355 -23.545  0.00  0.00     0.001 A 
ATOM      4  C   UNL d   1      29.400  17.367 -24.554  0.00  0.00     0.112 A 
ATOM      5  C   UNL d   1      28.245  17.070 -23.777  0.00  0.00     0.002 A 
ATOM      6  C   UNL d   1      28.654  17.578 -24.284  0.00  0.00     0.025 A 
ENDROOT
BRANCH   1   7
ATOM      7  S   UNL d   1      30.490  16.445 -24.598  0.00  0.00     0.287 S 
ATOM      8  O   UNL d   1      30.835  17.018 -24.128  0.00  0.00    -0.198 OA
ATOM      9  O   UNL d   1      30.146  15.865 -25.073  0.00  0.00    -0.198 OA
BRANCH   7  10
ATOM     10  N   UNL d   1      31.236  16.227 -24.874  0.00  0.00    -0.157 NA
BRANCH  10  11
ATOM     11  C   UNL d   1      31.860  16.137 -24.341  0.00  0.00     0.113 A 
ATOM     12  C   UNL d   1      31.834  15.547 -23.774  0.00  0.00     0.119 A 
ATOM     13  N   UNL d   1      32.458  15.458 -23.243  0.00  0.00    -0.241 NA
ATOM     14  C   UNL d   1      33.116  15.966 -23.280  0.00  0.00     0.099 A 
ATOM     15  C   UNL d   1      33.135  16.559 -23.856  0.00  0.00     0.022 A 
ATOM     16  C   UNL d   1      32.511  16.649 -24.388  0.00  0.00     0.023 A 
ENDBRANCH  10  11
ENDBRANCH   7  10
ENDBRANCH   1   7
BRANCH   4  17
ATOM     17  O   UNL d   1      29.810  17.875 -25.061  0.00  0.00    -0.304 OA
BRANCH  17  18
ATOM     18  C   UNL d   1      29.708  18.692 -24.998  0.00  0.00     0.123 C 
ATOM     19  C   UNL d   1      30.358  19.197 -25.074  0.00  0.00     0.029 C 
ENDBRANCH  17  18
ENDBRANCH   4  17
BRANCH   3  20
ATOM     20  C   UNL d   1      28.175  15.846 -23.038  0.00  0.00     0.000 C 
ATOM     21  C   UNL d   1      28.573  15.465 -22.425  0.00  0.00     0.000 C 
ATOM     22  C   UNL d   1      27.360  15.720 -23.150  0.00  0.00     0.000 C 
ENDBRANCH   3  20
TORSDOF 6
ENDMDL
MODEL 5
REMARK VINA RESULT:       2.2      2.483      3.536
REMARK  6 active torsions:
REMARK  status: ('A' for Active; 'I' for Inactive)
REMARK    1  A    between atoms: C_2  and  S_1 
REMARK    2  A    between atoms: N_3  and  S_1 
REMARK    3  A    between atoms: C_9  and  N_3 
REMARK    4  A    between atoms: C_13  and  C_7 
REMARK    5  A    between atoms: O_14  and  C_8 
REMARK    6  A    between atoms: C_20  and  O_14 
ROOT
ATOM      1  C   UNL d   1      29.433  16.454 -23.753  0.00  0.00     0.128 A 
ATOM      2  C   UNL d   1      29.427  17.092 -24.277  0.00  0.00     0.015 A 
ATOM      3  C   UNL d   1      28.776  17.599 -24.305  0.00  0.00     0.001 A 
ATOM      4  C   UNL d   1      28.788  16.327 -23.261  0.00  0.00     0.112 A 
ATOM      5  C   UNL d   1      28.131  17.466 -23.807  0.00  0.00     0.002 A 
ATOM      6  C   UNL d   1      28.137  16.827 -23.284  0.00  0.00     0.025 A 
ENDROOT
BRANCH   1   7
ATOM      7  S   UNL d   1      30.084  15.954 -23.731  0.00  0.00     0.287 S 
ATOM      8  O   UNL d   1      29.856  15.608 -24.435  0.00  0.00    -0.198 OA
ATOM      9  O   UNL d   1      30.317  16.301 -23.020  0.00  0.00    -0.198 OA
BRANCH   7  10
ATOM     10  N   UNL d   1      30.740  15.455 -23.702  0.00  0.00    -0.157 NA
BRANCH  10  11
ATOM     11  C   UNL d   1      31.491  15.755 -23.866  0.00  0.00     0.113 A 
ATOM     12  C   UNL d   1      31.978  15.999 -23.255  0.00  0.00     0.119 A 
ATOM     13  N   UNL d   1      32.728  16.300 -23.419  0.00  0.00    -0.241 NA
ATOM     14  C   UNL d   1      32.993  16.355 -24.206  0.00  0.00     0.099 A 
ATOM     15  C   UNL d   1      32.496  16.107 -24.818  0.00  0.00     0.022 A 
ATOM     16  C   UNL d   1      31.745  15.807 -24.654  0.00  0.00     0.023 A 
ENDBRANCH  10  11
ENDBRANCH   7  10
ENDBRANCH   1   7
BRANCH   4  17
ATOM     17  O   UNL d   1      28.794  15.688 -22.737  0.00  0.00    -0.304 OA
BRANCH  17  18
ATOM     18  C   UNL d   1      28.146  15.552 -22.244  0.00  0.00     0.123 C 
ATOM     19  C   UNL d   1      28.259  15.453 -21.431  0.00  0.00     0.029 C 
ENDBRANCH  17  18
ENDBRANCH   4  17
BRANCH   3  20
ATOM     20  C   UNL d   1      28.770  18.239 -24.829  0.00  0.00     0.000 C 
ATOM     21  C   UNL d   1      29.481  18.569 -25.086  0.00  0.00     0.000 C 
ATOM     22  C   UNL d   1      28.045  18.547 -25.096  0.00  0.00     0.000 C 
ENDBRANCH   3  20
TORSDOF 6
ENDMDL
MODEL 6
REMARK VINA RESULT:       3.1      1.282      3.587
REMARK  6 active torsions:
REMARK  status: ('A' for Active; 'I' for Inactive)
REMARK    1  A    between atoms: C_2  and  S_1 
REMARK    2  A    between atoms: N_3  and  S_1 
REMARK    3  A    between atoms: C_9  and  N_3 
REMARK    4  A    between atoms: C_13  and  C_7 
REMARK    5  A    between atoms: O_14  and  C_8 
REMARK    6  A    between atoms: C_20  and  O_14 
ROOT
ATOM      1  C   UNL d   1      32.702  19.126 -23.242  0.00  0.00     0.128 A 
ATOM      2  C   UNL d   1      32.616  19.912 -23.003  0.00  0.00     0.015 A 
ATOM      3  C   UNL d   1      32.842  20.142 -22.244  0.00  0.00     0.001 A 
ATOM      4  C   UNL d   1      33.014  18.576 -22.718  0.00  0.00     0.112 A 
ATOM      5  C   UNL d   1      33.154  19.583 -21.723  0.00  0.00     0.002 A 
ATOM      6  C   UNL d   1      33.241  18.797 -21.961  0.00  0.00     0.025 A 
ENDROOT
BRANCH   1   7
ATOM      7  S   UNL d   1      32.475  18.905 -23.999  0.00  0.00     0.287 S 
ATOM      8  O   UNL d   1      33.241  19.000 -24.269  0.00  0.00    -0.198 OA
ATOM      9  O   UNL d   1      31.701  18.809 -23.732  0.00  0.00    -0.198 OA
BRANCH   7  10
ATOM     10  N   UNL d   1      32.240  18.682 -24.758  0.00  0.00    -0.157 NA
BRANCH  10  11
ATOM     11  C   UNL d   1      31.549  18.242 -24.860  0.00  0.00     0.113 A 
ATOM     12  C   UNL d   1      31.593  17.436 -24.994  0.00  0.00     0.119 A 
ATOM     13  N   UNL d   1      30.902  16.997 -25.096  0.00  0.00    -0.241 NA
ATOM     14  C   UNL d   1      30.160  17.370 -25.064  0.00  0.00     0.099 A 
ATOM     15  C   UNL d   1      30.124  18.186 -24.928  0.00  0.00     0.022 A 
ATOM     16  C   UNL d   1      30.815  18.625 -24.826  0.00  0.00     0.023 A 
ENDBRANCH  10  11
ENDBRANCH   7  10
ENDBRANCH   1   7
BRANCH   4  17
ATOM     17  O   UNL d   1      33.100  17.789 -22.957  0.00  0.00    -0.304 OA
BRANCH  17  18
ATOM     18  C   UNL d   1      33.069  17.182 -22.399  0.00  0.00     0.123 C 
ATOM     19  C   UNL d   1      33.209  16.400 -22.629  0.00  0.00     0.029 C 
ENDBRANCH  17  18
ENDBRANCH   4  17
BRANCH   3  20
ATOM     20  C   UNL d   1      32.755  20.929 -22.005  0.00  0.00     0.000 C 
ATOM     21  C   UNL d   1      32.284  21.113 -21.354  0.00  0.00     0.000 C 
ATOM     22  C   UNL d   1      33.145  21.532 -22.423  0.00  0.00     0.000 C 
ENDBRANCH   3  20
TORSDOF 6
ENDMDL
