MODEL 1
REMARK VINA RESULT:      31.8      0.000      0.000
REMARK  5 active torsions:
REMARK  status: ('A' for Active; 'I' for Inactive)
REMARK    1  A    between atoms: C_7  and  N_1 
REMARK    2  A    between atoms: C_15  and  C_5 
REMARK    3  A    between atoms: C_14  and  C_6 
REMARK    4  A    between atoms: C_8  and  C_7 
REMARK       I    between atoms: N_11  and  C_8 
REMARK    5  A    between atoms: C_13  and  N_11 
ROOT
ATOM      1  N   UNL d   1      13.124  13.060  -3.751  0.00  0.00    -0.235 N 
ATOM      2  C   UNL d   1      13.245  12.601  -4.433  0.00  0.00     0.273 A 
ATOM      3  C   UNL d   1      13.236  13.884  -3.785  0.00  0.00     0.273 A 
ATOM      4  S   UNL d   1      13.584  13.774  -5.170  0.00  0.00    -0.077 SA
ATOM      5  C   UNL d   1      13.466  14.233  -4.498  0.00  0.00     0.086 A 
ATOM      6  C   UNL d   1      13.473  12.961  -5.131  0.00  0.00     0.086 A 
ATOM      7  O   UNL d   1      13.116  14.340  -3.109  0.00  0.00    -0.266 OA
ATOM      8  O   UNL d   1      13.135  11.779  -4.403  0.00  0.00    -0.266 OA
ENDROOT
BRANCH   1   9
ATOM      9  C   UNL d   1      12.894  12.696  -3.046  0.00  0.00     0.148 C 
BRANCH   9  10
ATOM     10  C   UNL d   1      13.467  12.395  -2.534  0.00  0.00     0.297 C 
ATOM     11  N   UNL d   1      13.547  12.708  -1.776  0.00  0.00    -0.207 NA
ATOM     12  O   UNL d   1      13.958  11.779  -2.789  0.00  0.00    -0.264 OA
BRANCH  11  13
ATOM     13  C   UNL d   1      14.121  12.407  -1.265  0.00  0.00     0.085 A 
ATOM     14  C   UNL d   1      13.900  12.085  -0.546  0.00  0.00     0.019 A 
ATOM     15  C   UNL d   1      14.475  11.786  -0.041  0.00  0.00     0.002 A 
ATOM     16  C   UNL d   1      15.273  11.808  -0.248  0.00  0.00     0.000 A 
ATOM     17  C   UNL d   1      15.493  12.136  -0.978  0.00  0.00     0.002 A 
ATOM     18  C   UNL d   1      14.917  12.433  -1.479  0.00  0.00     0.019 A 
ENDBRANCH  11  13
ENDBRANCH   9  10
ENDBRANCH   1   9
BRANCH   6  19
ATOM     19  C   UNL d   1      13.594  12.500  -5.814  0.00  0.00     0.011 C 
ATOM     20  C   UNL d   1      13.159  11.806  -5.928  0.00  0.00     0.001 C 
ENDBRANCH   6  19
BRANCH   5  21
ATOM     21  C   UNL d   1      13.576  15.051  -4.529  0.00  0.00     0.011 C 
ATOM     22  C   UNL d   1      13.949  15.390  -5.185  0.00  0.00     0.001 C 
ENDBRANCH   5  21
TORSDOF 5
ENDMDL
MODEL 2
REMARK VINA RESULT:      32.0      0.356      1.790
REMARK  5 active torsions:
REMARK  status: ('A' for Active; 'I' for Inactive)
REMARK    1  A    between atoms: C_7  and  N_1 
REMARK    2  A    between atoms: C_15  and  C_5 
REMARK    3  A    between atoms: C_14  and  C_6 
REMARK    4  A    between atoms: C_8  and  C_7 
REMARK       I    between atoms: N_11  and  C_8 
REMARK    5  A    between atoms: C_13  and  N_11 
ROOT
ATOM      1  N   UNL d   1      13.100  12.891  -3.875  0.00  0.00    -0.235 N 
ATOM      2  C   UNL d   1      13.060  13.712  -3.754  0.00  0.00     0.273 A 
ATOM      3  C   UNL d   1      13.313  12.595  -4.621  0.00  0.00     0.273 A 
ATOM      4  S   UNL d   1      13.442  13.935  -5.110  0.00  0.00    -0.077 SA
ATOM      5  C   UNL d   1      13.482  13.123  -5.234  0.00  0.00     0.086 A 
ATOM      6  C   UNL d   1      13.231  14.222  -4.371  0.00  0.00     0.086 A 
ATOM      7  O   UNL d   1      13.353  11.780  -4.742  0.00  0.00    -0.266 OA
ATOM      8  O   UNL d   1      12.848  14.012  -3.010  0.00  0.00    -0.266 OA
ENDROOT
BRANCH   1   9
ATOM      9  C   UNL d   1      12.927  12.376  -3.251  0.00  0.00     0.148 C 
BRANCH   9  10
ATOM     10  C   UNL d   1      13.496  12.228  -2.673  0.00  0.00     0.297 C 
ATOM     11  N   UNL d   1      13.396  12.527  -1.911  0.00  0.00    -0.207 NA
ATOM     12  O   UNL d   1      14.164  11.779  -2.864  0.00  0.00    -0.264 OA
BRANCH  11  13
ATOM     13  C   UNL d   1      13.965  12.379  -1.332  0.00  0.00     0.085 A 
ATOM     14  C   UNL d   1      13.769  11.943  -0.668  0.00  0.00     0.019 A 
ATOM     15  C   UNL d   1      14.340  11.799  -0.095  0.00  0.00     0.002 A 
ATOM     16  C   UNL d   1      15.108  12.087  -0.181  0.00  0.00     0.000 A 
ATOM     17  C   UNL d   1      15.303  12.528  -0.856  0.00  0.00     0.002 A 
ATOM     18  C   UNL d   1      14.731  12.670  -1.425  0.00  0.00     0.019 A 
ENDBRANCH  11  13
ENDBRANCH   9  10
ENDBRANCH   1   9
BRANCH   6  19
ATOM     19  C   UNL d   1      13.191  15.046  -4.249  0.00  0.00     0.011 C 
ATOM     20  C   UNL d   1      13.862  15.514  -4.364  0.00  0.00     0.001 C 
ENDBRANCH   6  19
BRANCH   5  21
ATOM     21  C   UNL d   1      13.694  12.827  -5.975  0.00  0.00     0.011 C 
ATOM     22  C   UNL d   1      13.515  12.043  -6.172  0.00  0.00     0.001 C 
ENDBRANCH   5  21
TORSDOF 5
ENDMDL
