MODEL 1
REMARK VINA RESULT:       7.2      0.000      0.000
REMARK  3 active torsions:
REMARK  status: ('A' for Active; 'I' for Inactive)
REMARK    1  A    between atoms: C_15  and  C_3 
REMARK    2  A    between atoms: C_10  and  N_4 
REMARK    3  A    between atoms: N_6  and  C_5 
ROOT
ATOM      1  C   UNL d   1      58.878  -1.938  29.728  0.00  0.00     0.070 A 
ATOM      2  C   UNL d   1      59.112  -2.696  29.542  0.00  0.00     0.152 A 
ATOM      3  C   UNL d   1      59.909  -1.561  29.389  0.00  0.00     0.023 A 
ATOM      4  N   UNL d   1      59.780  -2.938  29.260  0.00  0.00    -0.290 N 
ATOM      5  C   UNL d   1      58.132  -1.803  30.026  0.00  0.00     0.153 A 
ATOM      6  C   UNL d   1      60.089  -2.264  29.230  0.00  0.00     0.082 A 
ATOM      7  N   UNL d   1      58.602  -3.320  29.654  0.00  0.00    -0.206 NA
ATOM      8  N   UNL d   1      57.622  -2.428  30.138  0.00  0.00    -0.206 NA
ATOM      9  C   UNL d   1      57.856  -3.186  29.952  0.00  0.00     0.202 A 
ENDROOT
BRANCH   5  10
ATOM     10  N   UNL d   1      57.894  -1.021  30.217  0.00  0.00    -0.285 N 
ATOM     11  C   UNL d   1      57.501  -0.560  29.647  0.00  0.00     0.106 A 
ATOM     12  C   UNL d   1      57.264   0.209  29.826  0.00  0.00     0.118 A 
ATOM     13  C   UNL d   1      56.865   0.681  29.255  0.00  0.00     0.028 C 
ATOM     14  O   UNL d   1      57.421   0.531  30.594  0.00  0.00    -0.304 OA
ATOM     15  C   UNL d   1      57.815   0.070  31.165  0.00  0.00     0.118 A 
ATOM     16  C   UNL d   1      58.053  -0.710  30.975  0.00  0.00     0.106 A 
ATOM     17  C   UNL d   1      57.973   0.381  31.923  0.00  0.00     0.028 C 
ENDBRANCH   5  10
BRANCH   3  18
ATOM     18  C   UNL d   1      60.280  -0.846  29.341  0.00  0.00     0.002 A 
ATOM     19  C   UNL d   1      60.735  -0.574  29.957  0.00  0.00     0.000 A 
ATOM     20  C   UNL d   1      61.106   0.144  29.906  0.00  0.00     0.000 A 
ATOM     21  C   UNL d   1      61.030   0.610  29.234  0.00  0.00     0.000 A 
ATOM     22  C   UNL d   1      60.568   0.332  28.609  0.00  0.00     0.000 A 
ATOM     23  C   UNL d   1      60.196  -0.390  28.664  0.00  0.00     0.000 A 
ENDBRANCH   3  18
BRANCH   4  24
ATOM     24  C   UNL d   1      60.051  -3.695  29.060  0.00  0.00     0.066 A 
ATOM     25  C   UNL d   1      59.556  -4.248  28.678  0.00  0.00     0.020 A 
ATOM     26  C   UNL d   1      59.828  -5.005  28.478  0.00  0.00     0.031 A 
ATOM     27  C   UNL d   1      60.613  -5.230  28.659  0.00  0.00     0.140 A 
ATOM     28  C   UNL d   1      61.124  -4.692  29.041  0.00  0.00     0.031 A 
ATOM     29  F   UNL d   1      60.885  -5.988  28.459  0.00  0.00    -0.204 F 
ATOM     30  C   UNL d   1      60.842  -3.925  29.241  0.00  0.00     0.020 A 
ENDBRANCH   4  24
TORSDOF 3
ENDMDL
