MODEL 1
REMARK VINA RESULT:     -10.4      0.000      0.000
REMARK  5 active torsions:
REMARK  status: ('A' for Active; 'I' for Inactive)
REMARK    1  A    between atoms: N_2  and  S_1 
REMARK    2  A    between atoms: C_6  and  S_1 
REMARK    3  A    between atoms: C_5  and  N_2 
REMARK    4  A    between atoms: C_3  and  C_8 
REMARK    5  A    between atoms: C_7  and  C_4 
ROOT
ATOM      1  S   UNL d   1      53.922  31.951  54.006  0.00  0.00     0.285 S 
ATOM      2  O   UNL d   1      53.615  31.827  54.748  0.00  0.00    -0.198 OA
ATOM      3  O   UNL d   1      54.235  32.076  53.252  0.00  0.00    -0.198 OA
ENDROOT
BRANCH   1   4
ATOM      4  N   UNL d   1      54.288  32.634  54.271  0.00  0.00    -0.158 NA
BRANCH   4   5
ATOM      5  C   UNL d   1      53.865  33.338  54.352  0.00  0.00     0.100 A 
ATOM      6  C   UNL d   1      54.156  33.942  54.768  0.00  0.00     0.083 A 
ATOM      7  C   UNL d   1      53.732  34.646  54.849  0.00  0.00     0.008 A 
ATOM      8  C   UNL d   1      52.966  34.718  54.475  0.00  0.00     0.000 A 
ATOM      9  C   UNL d   1      52.674  34.114  54.059  0.00  0.00     0.002 A 
ATOM     10  C   UNL d   1      53.127  33.392  53.985  0.00  0.00     0.020 A 
BRANCH   6  11
ATOM     11  C   UNL d   1      54.893  33.889  55.134  0.00  0.00     0.212 C 
ATOM     12  O   UNL d   1      55.582  34.060  54.725  0.00  0.00    -0.644 OA
ATOM     13  O   UNL d   1      54.916  33.658  55.926  0.00  0.00    -0.644 OA
ENDBRANCH   6  11
ENDBRANCH   4   5
ENDBRANCH   1   4
BRANCH   1  14
ATOM     14  C   UNL d   1      53.554  31.262  53.738  0.00  0.00     0.105 A 
ATOM     15  C   UNL d   1      53.634  30.551  54.150  0.00  0.00     0.017 A 
ATOM     16  C   UNL d   1      53.279  29.887  53.892  0.00  0.00     0.072 A 
ATOM     17  C   UNL d   1      52.822  29.889  53.206  0.00  0.00     0.004 A 
ATOM     18  C   UNL d   1      52.742  30.600  52.795  0.00  0.00     0.001 A 
ATOM     19  C   UNL d   1      53.096  31.264  53.053  0.00  0.00     0.013 A 
BRANCH  16  20
ATOM     20  C   UNL d   1      53.373  29.159  54.331  0.00  0.00     0.419 C 
ATOM     21  F   UNL d   1      53.488  28.446  54.747  0.00  0.00    -0.166 F 
ATOM     22  F   UNL d   1      54.140  29.039  53.972  0.00  0.00    -0.166 F 
ATOM     23  F   UNL d   1      52.632  29.288  54.669  0.00  0.00    -0.166 F 
ENDBRANCH  16  20
ENDBRANCH   1  14
TORSDOF 5
ENDMDL
MODEL 2
REMARK VINA RESULT:      -9.4      1.763      2.473
REMARK  5 active torsions:
REMARK  status: ('A' for Active; 'I' for Inactive)
REMARK    1  A    between atoms: N_2  and  S_1 
REMARK    2  A    between atoms: C_6  and  S_1 
REMARK    3  A    between atoms: C_5  and  N_2 
REMARK    4  A    between atoms: C_3  and  C_8 
REMARK    5  A    between atoms: C_7  and  C_4 
ROOT
ATOM      1  S   UNL d   1      52.571  32.356  53.023  0.00  0.00     0.285 S 
ATOM      2  O   UNL d   1      53.099  32.530  52.430  0.00  0.00    -0.198 OA
ATOM      3  O   UNL d   1      52.034  32.179  53.624  0.00  0.00    -0.198 OA
ENDROOT
BRANCH   1   4
ATOM      4  N   UNL d   1      52.136  33.023  52.831  0.00  0.00    -0.158 NA
BRANCH   4   5
ATOM      5  C   UNL d   1      52.283  33.746  53.199  0.00  0.00     0.100 A 
ATOM      6  C   UNL d   1      51.821  34.372  53.065  0.00  0.00     0.083 A 
ATOM      7  C   UNL d   1      51.969  35.096  53.434  0.00  0.00     0.008 A 
ATOM      8  C   UNL d   1      52.633  35.165  53.970  0.00  0.00     0.000 A 
ATOM      9  C   UNL d   1      53.094  34.539  54.104  0.00  0.00     0.002 A 
ATOM     10  C   UNL d   1      52.927  33.796  53.713  0.00  0.00     0.020 A 
BRANCH   6  11
ATOM     11  C   UNL d   1      51.177  34.323  52.552  0.00  0.00     0.212 C 
ATOM     12  O   UNL d   1      51.280  34.370  51.741  0.00  0.00    -0.644 OA
ATOM     13  O   UNL d   1      50.427  34.225  52.880  0.00  0.00    -0.644 OA
ENDBRANCH   6  11
ENDBRANCH   4   5
ENDBRANCH   1   4
BRANCH   1  14
ATOM     14  C   UNL d   1      53.009  31.683  53.216  0.00  0.00     0.105 A 
ATOM     15  C   UNL d   1      52.700  30.928  53.099  0.00  0.00     0.017 A 
ATOM     16  C   UNL d   1      53.122  30.279  53.285  0.00  0.00     0.072 A 
ATOM     17  C   UNL d   1      53.881  30.344  53.601  0.00  0.00     0.004 A 
ATOM     18  C   UNL d   1      54.190  31.099  53.719  0.00  0.00     0.001 A 
ATOM     19  C   UNL d   1      53.767  31.748  53.532  0.00  0.00     0.013 A 
BRANCH  16  20
ATOM     20  C   UNL d   1      52.787  29.503  53.156  0.00  0.00     0.419 C 
ATOM     21  F   UNL d   1      52.455  28.744  53.057  0.00  0.00    -0.166 F 
ATOM     22  F   UNL d   1      52.660  29.417  53.998  0.00  0.00    -0.166 F 
ATOM     23  F   UNL d   1      52.915  29.601  52.347  0.00  0.00    -0.166 F 
ENDBRANCH  16  20
ENDBRANCH   1  14
TORSDOF 5
ENDMDL
MODEL 3
REMARK VINA RESULT:      -9.1      2.994      4.192
REMARK  5 active torsions:
REMARK  status: ('A' for Active; 'I' for Inactive)
REMARK    1  A    between atoms: N_2  and  S_1 
REMARK    2  A    between atoms: C_6  and  S_1 
REMARK    3  A    between atoms: C_5  and  N_2 
REMARK    4  A    between atoms: C_3  and  C_8 
REMARK    5  A    between atoms: C_7  and  C_4 
ROOT
ATOM      1  S   UNL d   1      52.278  33.554  53.285  0.00  0.00     0.285 S 
ATOM      2  O   UNL d   1      51.699  33.202  53.734  0.00  0.00    -0.198 OA
ATOM      3  O   UNL d   1      52.866  33.911  52.829  0.00  0.00    -0.198 OA
ENDROOT
BRANCH   1   4
ATOM      4  N   UNL d   1      52.852  33.222  53.766  0.00  0.00    -0.158 NA
BRANCH   4   5
ATOM      5  C   UNL d   1      53.101  32.443  53.657  0.00  0.00     0.100 A 
ATOM      6  C   UNL d   1      53.726  32.158  54.044  0.00  0.00     0.083 A 
ATOM      7  C   UNL d   1      53.975  31.378  53.935  0.00  0.00     0.008 A 
ATOM      8  C   UNL d   1      53.544  30.875  53.392  0.00  0.00     0.000 A 
ATOM      9  C   UNL d   1      52.919  31.160  53.005  0.00  0.00     0.002 A 
ATOM     10  C   UNL d   1      52.675  31.971  53.131  0.00  0.00     0.020 A 
BRANCH   6  11
ATOM     11  C   UNL d   1      54.152  32.630  54.570  0.00  0.00     0.212 C 
ATOM     12  O   UNL d   1      53.937  32.683  55.359  0.00  0.00    -0.644 OA
ATOM     13  O   UNL d   1      54.800  33.048  54.278  0.00  0.00    -0.644 OA
ENDBRANCH   6  11
ENDBRANCH   4   5
ENDBRANCH   1   4
BRANCH   1  14
ATOM     14  C   UNL d   1      51.699  33.888  52.800  0.00  0.00     0.105 A 
ATOM     15  C   UNL d   1      50.982  34.148  53.112  0.00  0.00     0.017 A 
ATOM     16  C   UNL d   1      50.424  34.470  52.645  0.00  0.00     0.072 A 
ATOM     17  C   UNL d   1      50.547  34.552  51.834  0.00  0.00     0.004 A 
ATOM     18  C   UNL d   1      51.264  34.292  51.521  0.00  0.00     0.001 A 
ATOM     19  C   UNL d   1      51.822  33.970  51.989  0.00  0.00     0.013 A 
BRANCH  16  20
ATOM     20  C   UNL d   1      49.686  34.735  52.986  0.00  0.00     0.419 C 
ATOM     21  F   UNL d   1      48.980  35.012  53.332  0.00  0.00    -0.166 F 
ATOM     22  F   UNL d   1      50.102  35.347  53.414  0.00  0.00    -0.166 F 
ATOM     23  F   UNL d   1      49.298  34.139  52.567  0.00  0.00    -0.166 F 
ENDBRANCH  16  20
ENDBRANCH   1  14
TORSDOF 5
ENDMDL
MODEL 4
REMARK VINA RESULT:      -9.0      2.375      4.113
REMARK  5 active torsions:
REMARK  status: ('A' for Active; 'I' for Inactive)
REMARK    1  A    between atoms: N_2  and  S_1 
REMARK    2  A    between atoms: C_6  and  S_1 
REMARK    3  A    between atoms: C_5  and  N_2 
REMARK    4  A    between atoms: C_3  and  C_8 
REMARK    5  A    between atoms: C_7  and  C_4 
ROOT
ATOM      1  S   UNL d   1      54.132  32.352  54.391  0.00  0.00     0.285 S 
ATOM      2  O   UNL d   1      53.691  32.216  55.061  0.00  0.00    -0.198 OA
ATOM      3  O   UNL d   1      54.579  32.489  53.712  0.00  0.00    -0.198 OA
ENDROOT
BRANCH   1   4
ATOM      4  N   UNL d   1      54.003  31.579  54.150  0.00  0.00    -0.158 NA
BRANCH   4   5
ATOM      5  C   UNL d   1      53.392  31.394  53.628  0.00  0.00     0.100 A 
ATOM      6  C   UNL d   1      53.215  30.643  53.460  0.00  0.00     0.083 A 
ATOM      7  C   UNL d   1      52.603  30.458  52.937  0.00  0.00     0.008 A 
ATOM      8  C   UNL d   1      52.156  31.091  52.575  0.00  0.00     0.000 A 
ATOM      9  C   UNL d   1      52.333  31.841  52.743  0.00  0.00     0.002 A 
ATOM     10  C   UNL d   1      52.970  32.016  53.287  0.00  0.00     0.020 A 
BRANCH   6  11
ATOM     11  C   UNL d   1      53.636  30.021  53.800  0.00  0.00     0.212 C 
ATOM     12  O   UNL d   1      54.356  29.780  53.493  0.00  0.00    -0.644 OA
ATOM     13  O   UNL d   1      53.310  29.649  54.460  0.00  0.00    -0.644 OA
ENDBRANCH   6  11
ENDBRANCH   4   5
ENDBRANCH   1   4
BRANCH   1  14
ATOM     14  C   UNL d   1      54.262  33.130  54.634  0.00  0.00     0.105 A 
ATOM     15  C   UNL d   1      53.677  33.705  54.546  0.00  0.00     0.017 A 
ATOM     16  C   UNL d   1      53.803  34.455  54.780  0.00  0.00     0.072 A 
ATOM     17  C   UNL d   1      54.520  34.680  55.118  0.00  0.00     0.004 A 
ATOM     18  C   UNL d   1      55.104  34.105  55.207  0.00  0.00     0.001 A 
ATOM     19  C   UNL d   1      54.979  33.355  54.972  0.00  0.00     0.013 A 
BRANCH  16  20
ATOM     20  C   UNL d   1      53.185  35.039  54.681  0.00  0.00     0.419 C 
ATOM     21  F   UNL d   1      52.591  35.612  54.559  0.00  0.00    -0.166 F 
ATOM     22  F   UNL d   1      53.426  35.157  53.869  0.00  0.00    -0.166 F 
ATOM     23  F   UNL d   1      52.965  34.914  55.467  0.00  0.00    -0.166 F 
ENDBRANCH  16  20
ENDBRANCH   1  14
TORSDOF 5
ENDMDL
