MODEL 1
REMARK VINA RESULT:      -3.2      0.000      0.000
REMARK  1 active torsions:
REMARK  status: ('A' for Active; 'I' for Inactive)
REMARK    1  A    between atoms: C_7  and  C_1 
ROOT
ATOM      1  C   UNL d   1      29.673  16.870 -24.154  0.00  0.00     0.062 A 
ATOM      2  C   UNL d   1      30.369  16.581 -23.849  0.00  0.00     0.199 A 
ATOM      3  C   UNL d   1      29.660  17.543 -24.627  0.00  0.00     0.103 A 
ATOM      4  C   UNL d   1      31.099  16.969 -24.014  0.00  0.00     0.062 A 
ATOM      5  C   UNL d   1      31.109  17.633 -24.478  0.00  0.00     0.106 A 
ATOM      6  O   UNL d   1      30.388  17.930 -24.792  0.00  0.00    -0.307 OA
ATOM      7  C   UNL d   1      31.824  18.013 -24.640  0.00  0.00     0.067 A 
ATOM      8  C   UNL d   1      31.808  16.655 -23.690  0.00  0.00     0.009 A 
ATOM      9  O   UNL d   1      30.341  15.875 -23.358  0.00  0.00    -0.286 OA
ATOM     10  C   UNL d   1      32.516  17.722 -24.334  0.00  0.00     0.198 A 
ATOM     11  C   UNL d   1      32.536  17.042 -23.854  0.00  0.00     0.042 A 
ATOM     12  C   UNL d   1      28.938  17.841 -24.943  0.00  0.00     0.027 C 
ATOM     13  O   UNL d   1      33.241  18.107 -24.498  0.00  0.00    -0.286 OA
ENDROOT
BRANCH   1  14
ATOM     14  C   UNL d   1      28.976  16.481 -23.983  0.00  0.00     0.005 A 
ATOM     15  C   UNL d   1      28.723  15.843 -24.443  0.00  0.00     0.000 A 
ATOM     16  C   UNL d   1      29.185  15.588 -25.096  0.00  0.00     0.000 C 
ATOM     17  C   UNL d   1      28.018  15.453 -24.268  0.00  0.00     0.000 A 
ATOM     18  C   UNL d   1      27.577  15.703 -23.638  0.00  0.00     0.000 A 
ATOM     19  C   UNL d   1      27.799  16.323 -23.169  0.00  0.00     0.000 A 
ATOM     20  C   UNL d   1      28.513  16.722 -23.345  0.00  0.00     0.000 A 
ENDBRANCH   1  14
TORSDOF 1
ENDMDL
