MODEL 1
REMARK VINA RESULT:       3.1      0.000      0.000
REMARK  5 active torsions:
REMARK  status: ('A' for Active; 'I' for Inactive)
REMARK    1  A    between atoms: C_5  and  C_1 
REMARK    2  A    between atoms: N_7  and  C_5 
REMARK    3  A    between atoms: C_10  and  C_5 
REMARK    4  A    between atoms: C_16  and  C_19 
REMARK    5  A    between atoms: C_20  and  C_16 
ROOT
ATOM      1  C   UNL d   1     -41.683-121.833 -51.996  0.00  0.00     0.085 C 
ENDROOT
BRANCH   1   2
ATOM      2  C   UNL d   1     -41.825-122.142 -52.772  0.00  0.00     0.059 A 
ATOM      3  C   UNL d   1     -42.358-121.757 -53.292  0.00  0.00     0.214 A 
ATOM      4  C   UNL d   1     -42.485-122.073 -54.049  0.00  0.00     0.121 A 
ATOM      5  O   UNL d   1     -42.750-121.077 -53.063  0.00  0.00    -0.285 OA
ATOM      6  N   UNL d   1     -43.005-121.702 -54.562  0.00  0.00    -0.241 NA
ATOM      7  C   UNL d   1     -42.086-122.766 -54.282  0.00  0.00     0.032 A 
ATOM      8  C   UNL d   1     -43.124-122.032 -55.323  0.00  0.00     0.099 A 
ATOM      9  C   UNL d   1     -42.740-122.698 -55.547  0.00  0.00     0.021 A 
ATOM     10  C   UNL d   1     -42.210-123.080 -55.027  0.00  0.00     0.004 A 
ATOM     11  C   UNL d   1     -41.563-123.134 -53.756  0.00  0.00     0.059 A 
ATOM     12  C   UNL d   1     -41.441-122.808 -52.996  0.00  0.00     0.016 A 
ATOM     13 CL   UNL d   1     -41.169-123.817 -53.986  0.00  0.00    -0.082 Cl
ENDBRANCH   1   2
BRANCH   1  14
ATOM     14  N   UNL d   1     -41.730-122.328 -51.338  0.00  0.00    -0.302 N 
ATOM     15  C   UNL d   1     -41.137-122.889 -51.186  0.00  0.00     0.080 A 
ATOM     16  C   UNL d   1     -41.182-123.385 -50.528  0.00  0.00     0.019 A 
ATOM     17  C   UNL d   1     -41.822-123.325 -50.016  0.00  0.00     0.003 A 
ATOM     18  C   UNL d   1     -42.416-122.769 -50.162  0.00  0.00     0.019 A 
ATOM     19  C   UNL d   1     -42.370-122.278 -50.814  0.00  0.00     0.080 A 
BRANCH  17  20
ATOM     20  C   UNL d   1     -41.869-123.816 -49.364  0.00  0.00     0.000 C 
BRANCH  20  21
ATOM     21  C   UNL d   1     -41.861-123.503 -48.616  0.00  0.00     0.000 A 
ATOM     22  C   UNL d   1     -42.564-123.292 -48.249  0.00  0.00     0.000 A 
ATOM     23  C   UNL d   1     -42.560-122.976 -47.495  0.00  0.00     0.000 A 
ATOM     24  C   UNL d   1     -41.842-122.869 -47.102  0.00  0.00     0.000 A 
ATOM     25  C   UNL d   1     -41.138-123.078 -47.464  0.00  0.00     0.000 A 
ATOM     26  C   UNL d   1     -41.144-123.399 -48.232  0.00  0.00     0.000 A 
ENDBRANCH  20  21
ENDBRANCH  17  20
ENDBRANCH   1  14
BRANCH   1  27
ATOM     27  C   UNL d   1     -41.493-121.015 -51.899  0.00  0.00     0.098 A 
ATOM     28  N   UNL d   1     -41.359-120.546 -52.575  0.00  0.00    -0.243 NA
ATOM     29  C   UNL d   1     -41.175-119.753 -52.484  0.00  0.00     0.099 A 
ATOM     30  C   UNL d   1     -41.125-119.432 -51.729  0.00  0.00     0.021 A 
ATOM     31  C   UNL d   1     -41.258-119.892 -51.054  0.00  0.00     0.003 A 
ATOM     32  C   UNL d   1     -41.442-120.684 -51.145  0.00  0.00     0.021 A 
ENDBRANCH   1  27
TORSDOF 5
ENDMDL
