MODEL 1
REMARK VINA RESULT:      21.2      0.000      0.000
REMARK  3 active torsions:
REMARK  status: ('A' for Active; 'I' for Inactive)
REMARK    1  A    between atoms: C_6  and  N_2 
REMARK    2  A    between atoms: C_7  and  C_6 
REMARK    3  A    between atoms: C_8  and  C_7 
ROOT
ATOM      1  N   UNL d   1      61.100  49.426  49.967  0.00  0.00    -0.224 NA
ATOM      2  N   UNL d   1      59.861  49.496  50.431  0.00  0.00    -0.287 N 
ATOM      3  C   UNL d   1      60.325  49.416  49.788  0.00  0.00     0.183 A 
ATOM      4  C   UNL d   1      60.380  49.563  51.089  0.00  0.00     0.083 A 
ATOM      5  C   UNL d   1      61.123  49.521  50.810  0.00  0.00     0.099 A 
ATOM      6  C   UNL d   1      60.269  49.656  51.894  0.00  0.00     0.019 A 
ATOM      7  C   UNL d   1      61.823  49.568  51.312  0.00  0.00     0.021 A 
ATOM      8  C   UNL d   1      60.888  49.707  52.424  0.00  0.00     0.002 A 
ATOM      9  C   UNL d   1      61.632  49.665  52.145  0.00  0.00     0.002 A 
ENDROOT
BRANCH   2  10
ATOM     10  C   UNL d   1      59.024  49.513  50.483  0.00  0.00     0.082 C 
BRANCH  10  11
ATOM     11  C   UNL d   1      58.590  49.622  49.817  0.00  0.00     0.019 C 
BRANCH  11  12
ATOM     12  C   UNL d   1      57.755  49.615  49.871  0.00  0.00     0.002 A 
ATOM     13  C   UNL d   1      57.400  49.652  50.632  0.00  0.00     0.000 A 
ATOM     14  C   UNL d   1      56.562  49.646  50.689  0.00  0.00     0.000 A 
ATOM     15  C   UNL d   1      56.116  49.604  50.002  0.00  0.00     0.000 A 
ATOM     16  C   UNL d   1      56.475  49.567  49.243  0.00  0.00     0.000 A 
ATOM     17  C   UNL d   1      57.287  49.574  49.194  0.00  0.00     0.000 A 
ENDBRANCH  11  12
ENDBRANCH  10  11
ENDBRANCH   2  10
TORSDOF 3
ENDMDL
MODEL 2
REMARK VINA RESULT:      21.3      1.015      4.182
REMARK  3 active torsions:
REMARK  status: ('A' for Active; 'I' for Inactive)
REMARK    1  A    between atoms: C_6  and  N_2 
REMARK    2  A    between atoms: C_7  and  C_6 
REMARK    3  A    between atoms: C_8  and  C_7 
ROOT
ATOM      1  N   UNL d   1      56.806  49.613  51.422  0.00  0.00    -0.224 NA
ATOM      2  N   UNL d   1      58.025  49.667  50.905  0.00  0.00    -0.287 N 
ATOM      3  C   UNL d   1      57.587  49.654  51.570  0.00  0.00     0.183 A 
ATOM      4  C   UNL d   1      57.482  49.632  50.264  0.00  0.00     0.083 A 
ATOM      5  C   UNL d   1      56.751  49.599  50.575  0.00  0.00     0.099 A 
ATOM      6  C   UNL d   1      57.562  49.625  49.450  0.00  0.00     0.019 A 
ATOM      7  C   UNL d   1      56.033  49.557  50.098  0.00  0.00     0.021 A 
ATOM      8  C   UNL d   1      56.923  49.586  48.942  0.00  0.00     0.002 A 
ATOM      9  C   UNL d   1      56.192  49.553  49.253  0.00  0.00     0.002 A 
ENDROOT
BRANCH   2  10
ATOM     10  C   UNL d   1      58.859  49.708  50.818  0.00  0.00     0.082 C 
BRANCH  10  11
ATOM     11  C   UNL d   1      59.330  49.448  51.414  0.00  0.00     0.019 C 
BRANCH  11  12
ATOM     12  C   UNL d   1      60.160  49.475  51.316  0.00  0.00     0.002 A 
ATOM     13  C   UNL d   1      60.638  49.674  51.978  0.00  0.00     0.000 A 
ATOM     14  C   UNL d   1      61.472  49.702  51.881  0.00  0.00     0.000 A 
ATOM     15  C   UNL d   1      61.794  49.536  51.145  0.00  0.00     0.000 A 
ATOM     16  C   UNL d   1      61.312  49.338  50.486  0.00  0.00     0.000 A 
ATOM     17  C   UNL d   1      60.505  49.312  50.585  0.00  0.00     0.000 A 
ENDBRANCH  11  12
ENDBRANCH  10  11
ENDBRANCH   2  10
TORSDOF 3
ENDMDL
