MODEL 1
REMARK VINA RESULT:      -3.8      0.000      0.000
REMARK  3 active torsions:
REMARK  status: ('A' for Active; 'I' for Inactive)
REMARK    1  A    between atoms: C_5  and  N_1 
REMARK    2  A    between atoms: C_11  and  C_3 
REMARK    3  A    between atoms: C_7  and  C_5 
ROOT
ATOM      1  N   UNL d   1     -41.213-122.534 -51.401  0.00  0.00    -0.286 N 
ATOM      2  N   UNL d   1     -41.238-121.526 -52.299  0.00  0.00    -0.224 NA
ATOM      3  C   UNL d   1     -41.181-121.711 -51.487  0.00  0.00     0.191 A 
ATOM      4  C   UNL d   1     -41.291-122.871 -52.161  0.00  0.00     0.083 A 
ATOM      5  C   UNL d   1     -41.306-122.247 -52.709  0.00  0.00     0.099 A 
ATOM      6  C   UNL d   1     -41.351-123.658 -52.431  0.00  0.00     0.019 A 
ATOM      7  C   UNL d   1     -41.380-122.407 -53.528  0.00  0.00     0.021 A 
ATOM      8  C   UNL d   1     -41.424-123.817 -53.238  0.00  0.00     0.002 A 
ATOM      9  C   UNL d   1     -41.439-123.193 -53.784  0.00  0.00     0.002 A 
ENDROOT
BRANCH   1  10
ATOM     10  C   UNL d   1     -41.162-122.800 -50.623  0.00  0.00     0.082 C 
BRANCH  10  11
ATOM     11  C   UNL d   1     -41.844-122.924 -50.185  0.00  0.00     0.018 A 
ATOM     12  C   UNL d   1     -41.829-123.413 -49.530  0.00  0.00     0.001 A 
ATOM     13  C   UNL d   1     -42.512-123.538 -49.090  0.00  0.00     0.000 A 
ATOM     14  C   UNL d   1     -41.122-123.781 -49.315  0.00  0.00     0.000 C 
ATOM     15  C   UNL d   1     -43.217-123.169 -49.308  0.00  0.00     0.000 A 
ATOM     16  C   UNL d   1     -43.233-122.675 -49.968  0.00  0.00     0.000 A 
ATOM     17  C   UNL d   1     -42.547-122.553 -50.405  0.00  0.00     0.002 A 
ATOM     18  C   UNL d   1     -43.937-122.303 -50.189  0.00  0.00     0.000 C 
ENDBRANCH  10  11
ENDBRANCH   1  10
BRANCH   3  19
ATOM     19  C   UNL d   1     -41.123-120.935 -51.229  0.00  0.00     0.271 C 
ATOM     20  O   UNL d   1     -41.131-120.316 -51.774  0.00  0.00    -0.280 OA
ENDBRANCH   3  19
TORSDOF 3
ENDMDL
MODEL 2
REMARK VINA RESULT:      -0.9      1.054      3.325
REMARK  3 active torsions:
REMARK  status: ('A' for Active; 'I' for Inactive)
REMARK    1  A    between atoms: C_5  and  N_1 
REMARK    2  A    between atoms: C_11  and  C_3 
REMARK    3  A    between atoms: C_7  and  C_5 
ROOT
ATOM      1  N   UNL d   1     -41.528-122.296 -52.146  0.00  0.00    -0.286 N 
ATOM      2  N   UNL d   1     -41.773-121.336 -51.229  0.00  0.00    -0.224 NA
ATOM      3  C   UNL d   1     -41.407-121.498 -51.962  0.00  0.00     0.191 A 
ATOM      4  C   UNL d   1     -41.972-122.640 -51.528  0.00  0.00     0.083 A 
ATOM      5  C   UNL d   1     -42.119-122.046 -50.967  0.00  0.00     0.099 A 
ATOM      6  C   UNL d   1     -42.262-123.412 -51.397  0.00  0.00     0.019 A 
ATOM      7  C   UNL d   1     -42.556-122.219 -50.274  0.00  0.00     0.021 A 
ATOM      8  C   UNL d   1     -42.692-123.584 -50.715  0.00  0.00     0.002 A 
ATOM      9  C   UNL d   1     -42.839-122.989 -50.155  0.00  0.00     0.002 A 
ENDROOT
BRANCH   1  10
ATOM     10  C   UNL d   1     -41.196-122.538 -52.861  0.00  0.00     0.082 C 
BRANCH  10  11
ATOM     11  C   UNL d   1     -41.647-122.541 -53.545  0.00  0.00     0.018 A 
ATOM     12  C   UNL d   1     -41.615-123.178 -54.057  0.00  0.00     0.001 A 
ATOM     13  C   UNL d   1     -42.067-123.183 -54.743  0.00  0.00     0.000 A 
ATOM     14  C   UNL d   1     -41.124-123.816 -53.878  0.00  0.00     0.000 C 
ATOM     15  C   UNL d   1     -42.557-122.543 -54.919  0.00  0.00     0.000 A 
ATOM     16  C   UNL d   1     -42.591-121.899 -54.404  0.00  0.00     0.000 A 
ATOM     17  C   UNL d   1     -42.136-121.899 -53.718  0.00  0.00     0.002 A 
ATOM     18  C   UNL d   1     -43.081-121.257 -54.576  0.00  0.00     0.000 C 
ENDBRANCH  10  11
ENDBRANCH   1  10
BRANCH   3  19
ATOM     19  C   UNL d   1     -41.126-120.738 -52.084  0.00  0.00     0.271 C 
ATOM     20  O   UNL d   1     -41.123-120.193 -51.465  0.00  0.00    -0.280 OA
ENDBRANCH   3  19
TORSDOF 3
ENDMDL
