MODEL 1
REMARK VINA RESULT:      55.5      0.000      0.000
REMARK  6 active torsions:
REMARK  status: ('A' for Active; 'I' for Inactive)
REMARK    1  A    between atoms: C_2  and  S_1 
REMARK    2  A    between atoms: N_3  and  S_1 
REMARK    3  A    between atoms: C_11  and  N_3 
REMARK    4  A    between atoms: O_13  and  C_5 
REMARK    5  A    between atoms: C_14  and  C_11 
REMARK    6  A    between atoms: C_15  and  O_13 
ROOT
ATOM      1  S   UNL d   1      60.354  48.693  50.847  0.00  0.00     0.285 S 
ATOM      2  O   UNL d   1      59.880  48.030  50.973  0.00  0.00    -0.198 OA
ATOM      3  O   UNL d   1      60.828  49.356  50.721  0.00  0.00    -0.198 OA
ENDROOT
BRANCH   1   4
ATOM      4  C   UNL d   1      60.955  48.208  50.558  0.00  0.00     0.107 A 
ATOM      5  C   UNL d   1      60.844  47.392  50.517  0.00  0.00     0.040 A 
ATOM      6  C   UNL d   1      61.446  46.907  50.228  0.00  0.00     0.128 A 
ATOM      7  C   UNL d   1      62.158  47.237  49.981  0.00  0.00     0.163 A 
ATOM      8  C   UNL d   1      62.269  48.051  50.021  0.00  0.00     0.032 A 
ATOM      9  F   UNL d   1      62.760  46.752  49.692  0.00  0.00    -0.202 F 
ATOM     10  C   UNL d   1      61.668  48.537  50.310  0.00  0.00     0.015 A 
BRANCH   6  11
ATOM     11  O   UNL d   1      61.334  46.093  50.188  0.00  0.00    -0.303 OA
BRANCH  11  12
ATOM     12  C   UNL d   1      61.130  45.742  49.472  0.00  0.00     0.123 C 
ATOM     13  C   UNL d   1      61.418  44.988  49.278  0.00  0.00     0.029 C 
ENDBRANCH  11  12
ENDBRANCH   6  11
ENDBRANCH   1   4
BRANCH   1  14
ATOM     14  N   UNL d   1      59.752  49.178  51.136  0.00  0.00    -0.157 NA
BRANCH  14  15
ATOM     15  C   UNL d   1      59.367  49.704  50.627  0.00  0.00     0.112 C 
BRANCH  15  16
ATOM     16  C   UNL d   1      58.543  49.703  50.582  0.00  0.00     0.020 A 
ATOM     17  C   UNL d   1      58.178  49.704  49.845  0.00  0.00     0.002 A 
ATOM     18  C   UNL d   1      57.358  49.703  49.800  0.00  0.00     0.000 A 
ATOM     19  C   UNL d   1      56.904  49.700  50.489  0.00  0.00     0.000 A 
ATOM     20  C   UNL d   1      57.277  49.699  51.227  0.00  0.00     0.000 A 
ATOM     21  C   UNL d   1      58.101  49.700  51.272  0.00  0.00     0.002 A 
ENDBRANCH  15  16
ENDBRANCH  14  15
ENDBRANCH   1  14
TORSDOF 6
ENDMDL
MODEL 2
REMARK VINA RESULT:      56.2      2.402      3.152
REMARK  6 active torsions:
REMARK  status: ('A' for Active; 'I' for Inactive)
REMARK    1  A    between atoms: C_2  and  S_1 
REMARK    2  A    between atoms: N_3  and  S_1 
REMARK    3  A    between atoms: C_11  and  N_3 
REMARK    4  A    between atoms: O_13  and  C_5 
REMARK    5  A    between atoms: C_14  and  C_11 
REMARK    6  A    between atoms: C_15  and  O_13 
ROOT
ATOM      1  S   UNL d   1      57.754  49.620  50.174  0.00  0.00     0.285 S 
ATOM      2  O   UNL d   1      57.536  49.593  49.379  0.00  0.00    -0.198 OA
ATOM      3  O   UNL d   1      57.973  49.647  50.969  0.00  0.00    -0.198 OA
ENDROOT
BRANCH   1   4
ATOM      4  C   UNL d   1      58.549  49.641  49.955  0.00  0.00     0.107 A 
ATOM      5  C   UNL d   1      59.137  49.644  50.533  0.00  0.00     0.040 A 
ATOM      6  C   UNL d   1      59.932  49.665  50.314  0.00  0.00     0.128 A 
ATOM      7  C   UNL d   1      60.140  49.683  49.517  0.00  0.00     0.163 A 
ATOM      8  C   UNL d   1      59.553  49.681  48.940  0.00  0.00     0.032 A 
ATOM      9  F   UNL d   1      60.935  49.705  49.298  0.00  0.00    -0.202 F 
ATOM     10  C   UNL d   1      58.758  49.660  49.159  0.00  0.00     0.015 A 
BRANCH   6  11
ATOM     11  O   UNL d   1      60.519  49.667  50.890  0.00  0.00    -0.303 OA
BRANCH  11  12
ATOM     12  C   UNL d   1      60.501  49.110  51.497  0.00  0.00     0.123 C 
ATOM     13  C   UNL d   1      61.047  49.154  52.121  0.00  0.00     0.029 C 
ENDBRANCH  11  12
ENDBRANCH   6  11
ENDBRANCH   1   4
BRANCH   1  14
ATOM     14  N   UNL d   1      56.959  49.599  50.393  0.00  0.00    -0.157 NA
BRANCH  14  15
ATOM     15  C   UNL d   1      56.698  49.039  50.944  0.00  0.00     0.112 C 
BRANCH  15  16
ATOM     16  C   UNL d   1      56.706  49.219  51.749  0.00  0.00     0.020 A 
ATOM     17  C   UNL d   1      57.392  49.088  52.185  0.00  0.00     0.002 A 
ATOM     18  C   UNL d   1      57.400  49.267  52.986  0.00  0.00     0.000 A 
ATOM     19  C   UNL d   1      56.727  49.576  53.351  0.00  0.00     0.000 A 
ATOM     20  C   UNL d   1      56.042  49.706  52.906  0.00  0.00     0.000 A 
ATOM     21  C   UNL d   1      56.034  49.525  52.101  0.00  0.00     0.002 A 
ENDBRANCH  15  16
ENDBRANCH  14  15
ENDBRANCH   1  14
TORSDOF 6
ENDMDL
