MODEL 1
REMARK VINA RESULT:     187.3      0.000      0.000
REMARK  3 active torsions:
REMARK  status: ('A' for Active; 'I' for Inactive)
REMARK    1  A    between atoms: S_2  and  N_1 
REMARK    2  A    between atoms: C_6  and  S_2 
REMARK    3  A    between atoms: O_17  and  C_11 
ROOT
ATOM      1  S   UNL d   1     -56.592 -99.976 -44.352  0.00  0.00     0.273 S 
ATOM      2  O   UNL d   1     -56.098-100.466 -43.909  0.00  0.00    -0.200 OA
ATOM      3  O   UNL d   1     -57.088 -99.483 -44.798  0.00  0.00    -0.200 OA
ENDROOT
BRANCH   1   4
ATOM      4  N   UNL d   1     -55.946 -99.722 -44.797  0.00  0.00    -0.214 N 
ATOM      5  C   UNL d   1     -55.375 -99.170 -44.558  0.00  0.00     0.157 A 
ATOM      6  N   UNL d   1     -54.827 -99.079 -45.176  0.00  0.00    -0.226 NA
ATOM      7  C   UNL d   1     -55.356 -98.783 -43.838  0.00  0.00     0.041 C 
ATOM      8  C   UNL d   1     -55.065 -99.578 -45.797  0.00  0.00     0.100 A 
ATOM      9  C   UNL d   1     -55.748 -99.971 -45.566  0.00  0.00     0.094 A 
ATOM     10  C   UNL d   1     -54.737 -99.717 -46.540  0.00  0.00     0.021 A 
ATOM     11  C   UNL d   1     -56.111-100.511 -46.083  0.00  0.00     0.020 A 
ATOM     12  C   UNL d   1     -55.785-100.650 -46.824  0.00  0.00     0.002 A 
ATOM     13  C   UNL d   1     -55.100-100.257 -47.058  0.00  0.00     0.002 A 
ENDBRANCH   1   4
BRANCH   1  14
ATOM     14  C   UNL d   1     -57.240-100.228 -43.909  0.00  0.00     0.106 A 
ATOM     15  C   UNL d   1     -57.310-101.027 -43.693  0.00  0.00     0.039 A 
ATOM     16  C   UNL d   1     -57.959-101.280 -43.250  0.00  0.00     0.122 A 
ATOM     17  C   UNL d   1     -58.543-100.736 -43.019  0.00  0.00     0.162 A 
ATOM     18  C   UNL d   1     -58.474 -99.942 -43.234  0.00  0.00     0.032 A 
ATOM     19  F   UNL d   1     -59.182-100.991 -42.581  0.00  0.00    -0.202 F 
ATOM     20  C   UNL d   1     -57.826 -99.690 -43.677  0.00  0.00     0.015 A 
BRANCH  16  21
ATOM     21  O   UNL d   1     -58.025-102.067 -43.038  0.00  0.00    -0.326 OA
ATOM     22  C   UNL d   1     -57.523-102.381 -42.481  0.00  0.00     0.181 C 
ENDBRANCH  16  21
ENDBRANCH   1  14
TORSDOF 3
ENDMDL
