MODEL 1
REMARK VINA RESULT:      19.8      0.000      0.000
REMARK  3 active torsions:
REMARK  status: ('A' for Active; 'I' for Inactive)
REMARK       I    between atoms: C_2  and  N_1 
REMARK    1  A    between atoms: C_6  and  C_2 
REMARK    2  A    between atoms: O_14  and  C_9 
REMARK    3  A    between atoms: O_16  and  C_11 
ROOT
ATOM      1  C   UNL d   1      46.305 -17.672  43.563  0.00  0.00     0.060 A 
ATOM      2  C   UNL d   1      46.305 -18.233  42.963  0.00  0.00     0.031 A 
ATOM      3  C   UNL d   1      46.328 -19.035  43.142  0.00  0.00     0.116 A 
ATOM      4  C   UNL d   1      46.352 -19.279  43.934  0.00  0.00     0.116 A 
ATOM      5  C   UNL d   1      46.330 -17.916  44.355  0.00  0.00     0.007 A 
ATOM      6  C   UNL d   1      46.353 -18.720  44.539  0.00  0.00     0.026 A 
ENDROOT
BRANCH   1   7
ATOM      7  C   UNL d   1      46.282 -16.871  43.380  0.00  0.00     0.280 C 
ATOM      8  N   UNL d   1      45.922 -16.343  43.897  0.00  0.00    -0.195 N 
ATOM      9  N   UNL d   1      45.855 -15.522  43.788  0.00  0.00    -0.163 NA
ATOM     10  C   UNL d   1      45.564 -16.533  44.613  0.00  0.00     0.088 A 
ATOM     11  C   UNL d   1      45.455 -15.208  44.439  0.00  0.00     0.103 A 
ATOM     12  C   UNL d   1      45.269 -14.411  44.558  0.00  0.00     0.022 C 
ATOM     13  C   UNL d   1      45.275 -15.829  44.949  0.00  0.00     0.040 A 
ATOM     14  C   UNL d   1      45.502 -17.290  44.942  0.00  0.00     0.021 C 
ATOM     15  O   UNL d   1      46.619 -16.598  42.678  0.00  0.00    -0.265 OA
ENDBRANCH   1   7
BRANCH   3  16
ATOM     16  O   UNL d   1      46.327 -19.594  42.538  0.00  0.00    -0.326 OA
ATOM     17  C   UNL d   1      46.365 -19.350  41.751  0.00  0.00     0.181 C 
ENDBRANCH   3  16
BRANCH   4  18
ATOM     18  O   UNL d   1      46.375 -20.080  44.114  0.00  0.00    -0.326 OA
ATOM     19  C   UNL d   1      46.584 -20.330  44.871  0.00  0.00     0.181 C 
ENDBRANCH   4  18
TORSDOF 3
ENDMDL
