MODEL 1
REMARK VINA RESULT:      53.5      0.000      0.000
REMARK  4 active torsions:
REMARK  status: ('A' for Active; 'I' for Inactive)
REMARK    1  A    between atoms: N_2  and  S_1 
REMARK    2  A    between atoms: C_4  and  S_1 
REMARK    3  A    between atoms: O_16  and  C_13 
REMARK    4  A    between atoms: C_19  and  O_16 
ROOT
ATOM      1  S   UNL d   1     -50.524  26.400  34.054  0.00  0.00     0.271 S 
ATOM      2  O   UNL d   1     -50.860  26.526  34.798  0.00  0.00    -0.200 OA
ATOM      3  O   UNL d   1     -50.187  26.271  33.306  0.00  0.00    -0.200 OA
ENDROOT
BRANCH   1   4
ATOM      4  N   UNL d   1     -51.137  25.871  33.869  0.00  0.00    -0.229 N 
ATOM      5  C   UNL d   1     -50.995  25.060  33.863  0.00  0.00     0.092 A 
ATOM      6  C   UNL d   1     -51.605  24.538  33.679  0.00  0.00     0.018 A 
ATOM      7  C   UNL d   1     -51.465  23.724  33.673  0.00  0.00     0.002 A 
ATOM      8  C   UNL d   1     -52.357  24.828  33.500  0.00  0.00     0.003 A 
ATOM      9  C   UNL d   1     -52.075  23.202  33.489  0.00  0.00     0.000 A 
ATOM     10  C   UNL d   1     -52.827  23.492  33.310  0.00  0.00     0.000 A 
ATOM     11  C   UNL d   1     -52.968  24.304  33.315  0.00  0.00     0.000 A 
ATOM     12  C   UNL d   1     -52.499  25.640  33.505  0.00  0.00     0.020 A 
ATOM     13  C   UNL d   1     -51.888  26.160  33.690  0.00  0.00     0.092 A 
ENDBRANCH   1   4
BRANCH   1  14
ATOM     14  C   UNL d   1     -49.918  26.924  34.241  0.00  0.00     0.104 A 
ATOM     15  C   UNL d   1     -49.540  27.351  33.642  0.00  0.00     0.015 A 
ATOM     16  C   UNL d   1     -48.933  27.876  33.829  0.00  0.00     0.025 A 
ATOM     17  C   UNL d   1     -48.702  27.977  34.614  0.00  0.00     0.100 A 
ATOM     18  C   UNL d   1     -49.078  27.553  35.212  0.00  0.00     0.025 A 
ATOM     19  C   UNL d   1     -49.687  27.025  35.027  0.00  0.00     0.015 A 
BRANCH  17  20
ATOM     20  O   UNL d   1     -48.097  28.501  34.801  0.00  0.00    -0.305 OA
BRANCH  20  21
ATOM     21  C   UNL d   1     -48.273  29.235  35.134  0.00  0.00     0.123 C 
ATOM     22  C   UNL d   1     -47.751  29.583  35.668  0.00  0.00     0.029 C 
ENDBRANCH  20  21
ENDBRANCH  17  20
ENDBRANCH   1  14
TORSDOF 4
ENDMDL
