MODEL 1
REMARK VINA RESULT:      -3.2      0.000      0.000
REMARK  2 active torsions:
REMARK  status: ('A' for Active; 'I' for Inactive)
REMARK    1  A    between atoms: C_2  and  C_1 
REMARK    2  A    between atoms: N_6  and  C_2 
ROOT
ATOM      1  C   UNL d   1      30.285  16.929 -24.502  0.00  0.00     0.047 A 
ATOM      2  C   UNL d   1      29.861  17.532 -24.879  0.00  0.00     0.101 A 
ATOM      3  C   UNL d   1      29.756  16.511 -24.027  0.00  0.00     0.021 A 
ATOM      4  N   UNL d   1      29.074  17.484 -24.635  0.00  0.00    -0.244 NA
ATOM      5  C   UNL d   1      29.011  16.851 -24.107  0.00  0.00     0.082 A 
ATOM      6  C   UNL d   1      29.858  15.866 -23.533  0.00  0.00     0.002 A 
ATOM      7  C   UNL d   1      28.370  16.548 -23.696  0.00  0.00     0.019 A 
ATOM      8  C   UNL d   1      29.216  15.560 -23.118  0.00  0.00     0.000 A 
ATOM      9  C   UNL d   1      28.468  15.903 -23.201  0.00  0.00     0.002 A 
ENDROOT
BRANCH   1  10
ATOM     10  C   UNL d   1      31.090  16.769 -24.583  0.00  0.00     0.122 C 
ATOM     11  S   UNL d   1      31.342  16.031 -24.849  0.00  0.00    -0.059 SA
BRANCH  10  12
ATOM     12  N   UNL d   1      31.642  17.355 -24.395  0.00  0.00    -0.292 N 
ATOM     13  C   UNL d   1      31.981  17.377 -23.638  0.00  0.00     0.108 A 
ATOM     14  C   UNL d   1      32.532  17.964 -23.450  0.00  0.00     0.142 A 
ATOM     15  O   UNL d   1      32.744  18.526 -24.018  0.00  0.00    -0.300 OA
ATOM     16  C   UNL d   1      32.404  18.501 -24.772  0.00  0.00     0.142 A 
ATOM     17  C   UNL d   1      31.854  17.916 -24.960  0.00  0.00     0.108 A 
ENDBRANCH  10  12
ENDBRANCH   1  10
TORSDOF 2
ENDMDL
MODEL 2
REMARK VINA RESULT:      -3.0      1.488      3.242
REMARK  2 active torsions:
REMARK  status: ('A' for Active; 'I' for Inactive)
REMARK    1  A    between atoms: C_2  and  C_1 
REMARK    2  A    between atoms: N_6  and  C_2 
ROOT
ATOM      1  C   UNL d   1      31.036  16.791 -24.258  0.00  0.00     0.047 A 
ATOM      2  C   UNL d   1      30.769  17.525 -24.533  0.00  0.00     0.101 A 
ATOM      3  C   UNL d   1      31.782  16.906 -23.925  0.00  0.00     0.021 A 
ATOM      4  N   UNL d   1      31.350  18.088 -24.369  0.00  0.00    -0.244 NA
ATOM      5  C   UNL d   1      31.976  17.702 -23.992  0.00  0.00     0.082 A 
ATOM      6  C   UNL d   1      32.307  16.387 -23.570  0.00  0.00     0.002 A 
ATOM      7  C   UNL d   1      32.692  17.980 -23.705  0.00  0.00     0.019 A 
ATOM      8  C   UNL d   1      33.026  16.663 -23.281  0.00  0.00     0.000 A 
ATOM      9  C   UNL d   1      33.219  17.465 -23.350  0.00  0.00     0.002 A 
ENDROOT
BRANCH   1  10
ATOM     10  C   UNL d   1      30.634  16.072 -24.306  0.00  0.00     0.122 C 
ATOM     11  S   UNL d   1      30.944  15.453 -24.752  0.00  0.00    -0.059 SA
BRANCH  10  12
ATOM     12  N   UNL d   1      29.919  15.979 -23.902  0.00  0.00    -0.292 N 
ATOM     13  C   UNL d   1      29.906  15.595 -23.167  0.00  0.00     0.108 A 
ATOM     14  C   UNL d   1      29.191  15.502 -22.763  0.00  0.00     0.142 A 
ATOM     15  O   UNL d   1      28.492  15.791 -23.093  0.00  0.00    -0.300 OA
ATOM     16  C   UNL d   1      28.507  16.174 -23.827  0.00  0.00     0.142 A 
ATOM     17  C   UNL d   1      29.221  16.267 -24.230  0.00  0.00     0.108 A 
ENDBRANCH  10  12
ENDBRANCH   1  10
TORSDOF 2
ENDMDL
MODEL 3
REMARK VINA RESULT:      -2.9      1.476      3.454
REMARK  2 active torsions:
REMARK  status: ('A' for Active; 'I' for Inactive)
REMARK    1  A    between atoms: C_2  and  C_1 
REMARK    2  A    between atoms: N_6  and  C_2 
ROOT
ATOM      1  C   UNL d   1      31.187  16.482 -24.013  0.00  0.00     0.047 A 
ATOM      2  C   UNL d   1      31.610  16.235 -23.346  0.00  0.00     0.101 A 
ATOM      3  C   UNL d   1      31.551  17.164 -24.301  0.00  0.00     0.021 A 
ATOM      4  N   UNL d   1      32.232  16.764 -23.225  0.00  0.00    -0.244 NA
ATOM      5  C   UNL d   1      32.193  17.339 -23.818  0.00  0.00     0.082 A 
ATOM      6  C   UNL d   1      31.379  17.647 -24.940  0.00  0.00     0.002 A 
ATOM      7  C   UNL d   1      32.662  17.994 -23.972  0.00  0.00     0.019 A 
ATOM      8  C   UNL d   1      31.848  18.304 -25.097  0.00  0.00     0.000 A 
ATOM      9  C   UNL d   1      32.493  18.478 -24.610  0.00  0.00     0.002 A 
ENDROOT
BRANCH   1  10
ATOM     10  C   UNL d   1      30.522  16.117 -24.337  0.00  0.00     0.122 C 
ATOM     11  S   UNL d   1      30.551  15.800 -25.097  0.00  0.00    -0.059 SA
BRANCH  10  12
ATOM     12  N   UNL d   1      29.826  16.072 -23.892  0.00  0.00    -0.292 N 
ATOM     13  C   UNL d   1      29.200  16.592 -24.049  0.00  0.00     0.108 A 
ATOM     14  C   UNL d   1      28.505  16.547 -23.604  0.00  0.00     0.142 A 
ATOM     15  O   UNL d   1      28.437  15.983 -23.005  0.00  0.00    -0.300 OA
ATOM     16  C   UNL d   1      29.063  15.465 -22.849  0.00  0.00     0.142 A 
ATOM     17  C   UNL d   1      29.757  15.510 -23.294  0.00  0.00     0.108 A 
ENDBRANCH  10  12
ENDBRANCH   1  10
TORSDOF 2
ENDMDL
MODEL 4
REMARK VINA RESULT:      -2.7      1.379      3.655
REMARK  2 active torsions:
REMARK  status: ('A' for Active; 'I' for Inactive)
REMARK    1  A    between atoms: C_2  and  C_1 
REMARK    2  A    between atoms: N_6  and  C_2 
ROOT
ATOM      1  C   UNL d   1      32.202  17.406 -23.959  0.00  0.00     0.047 A 
ATOM      2  C   UNL d   1      32.378  17.354 -23.152  0.00  0.00     0.101 A 
ATOM      3  C   UNL d   1      32.511  18.119 -24.237  0.00  0.00     0.021 A 
ATOM      4  N   UNL d   1      32.794  18.033 -22.935  0.00  0.00    -0.244 NA
ATOM      5  C   UNL d   1      32.876  18.506 -23.609  0.00  0.00     0.082 A 
ATOM      6  C   UNL d   1      32.507  18.463 -24.980  0.00  0.00     0.002 A 
ATOM      7  C   UNL d   1      33.234  19.234 -23.722  0.00  0.00     0.019 A 
ATOM      8  C   UNL d   1      32.867  19.195 -25.096  0.00  0.00     0.000 A 
ATOM      9  C   UNL d   1      33.232  19.582 -24.463  0.00  0.00     0.002 A 
ENDROOT
BRANCH   1  10
ATOM     10  C   UNL d   1      31.793  16.850 -24.410  0.00  0.00     0.122 C 
ATOM     11  S   UNL d   1      32.132  16.540 -25.094  0.00  0.00    -0.059 SA
BRANCH  10  12
ATOM     12  N   UNL d   1      31.040  16.607 -24.170  0.00  0.00    -0.292 N 
ATOM     13  C   UNL d   1      30.366  16.954 -24.506  0.00  0.00     0.108 A 
ATOM     14  C   UNL d   1      29.614  16.711 -24.266  0.00  0.00     0.142 A 
ATOM     15  O   UNL d   1      29.536  16.123 -23.692  0.00  0.00    -0.300 OA
ATOM     16  C   UNL d   1      30.210  15.777 -23.357  0.00  0.00     0.142 A 
ATOM     17  C   UNL d   1      30.961  16.021 -23.598  0.00  0.00     0.108 A 
ENDBRANCH  10  12
ENDBRANCH   1  10
TORSDOF 2
ENDMDL
MODEL 5
REMARK VINA RESULT:      -2.3      1.417      2.105
REMARK  2 active torsions:
REMARK  status: ('A' for Active; 'I' for Inactive)
REMARK    1  A    between atoms: C_2  and  C_1 
REMARK    2  A    between atoms: N_6  and  C_2 
ROOT
ATOM      1  C   UNL d   1      31.955  17.232 -24.031  0.00  0.00     0.047 A 
ATOM      2  C   UNL d   1      31.992  16.565 -23.543  0.00  0.00     0.101 A 
ATOM      3  C   UNL d   1      31.195  17.265 -24.352  0.00  0.00     0.021 A 
ATOM      4  N   UNL d   1      31.257  16.189 -23.564  0.00  0.00    -0.244 NA
ATOM      5  C   UNL d   1      30.765  16.625 -24.066  0.00  0.00     0.082 A 
ATOM      6  C   UNL d   1      30.842  17.796 -24.867  0.00  0.00     0.002 A 
ATOM      7  C   UNL d   1      29.985  16.515 -24.293  0.00  0.00     0.019 A 
ATOM      8  C   UNL d   1      30.059  17.687 -25.096  0.00  0.00     0.000 A 
ATOM      9  C   UNL d   1      29.629  17.043 -24.807  0.00  0.00     0.002 A 
ENDROOT
BRANCH   1  10
ATOM     10  C   UNL d   1      32.563  17.771 -24.176  0.00  0.00     0.122 C 
ATOM     11  S   UNL d   1      32.963  17.761 -24.896  0.00  0.00    -0.059 SA
BRANCH  10  12
ATOM     12  N   UNL d   1      32.767  18.320 -23.591  0.00  0.00    -0.292 N 
ATOM     13  C   UNL d   1      33.037  18.056 -22.853  0.00  0.00     0.108 A 
ATOM     14  C   UNL d   1      33.241  18.605 -22.269  0.00  0.00     0.142 A 
ATOM     15  O   UNL d   1      33.175  19.413 -22.424  0.00  0.00    -0.300 OA
ATOM     16  C   UNL d   1      32.905  19.674 -23.162  0.00  0.00     0.142 A 
ATOM     17  C   UNL d   1      32.701  19.125 -23.745  0.00  0.00     0.108 A 
ENDBRANCH  10  12
ENDBRANCH   1  10
TORSDOF 2
ENDMDL
MODEL 6
REMARK VINA RESULT:      -1.2      2.478      4.494
REMARK  2 active torsions:
REMARK  status: ('A' for Active; 'I' for Inactive)
REMARK    1  A    between atoms: C_2  and  C_1 
REMARK    2  A    between atoms: N_6  and  C_2 
ROOT
ATOM      1  C   UNL d   1      33.047  19.193 -22.848  0.00  0.00     0.047 A 
ATOM      2  C   UNL d   1      33.148  18.691 -22.197  0.00  0.00     0.101 A 
ATOM      3  C   UNL d   1      33.075  19.969 -22.571  0.00  0.00     0.021 A 
ATOM      4  N   UNL d   1      33.237  19.158 -21.523  0.00  0.00    -0.244 NA
ATOM      5  C   UNL d   1      33.191  19.950 -21.757  0.00  0.00     0.082 A 
ATOM      6  C   UNL d   1      33.008  20.689 -22.956  0.00  0.00     0.002 A 
ATOM      7  C   UNL d   1      33.241  20.647 -21.328  0.00  0.00     0.019 A 
ATOM      8  C   UNL d   1      33.058  21.391 -22.528  0.00  0.00     0.000 A 
ATOM      9  C   UNL d   1      33.175  21.369 -21.710  0.00  0.00     0.002 A 
ENDROOT
BRANCH   1  10
ATOM     10  C   UNL d   1      32.939  18.965 -23.633  0.00  0.00     0.122 C 
ATOM     11  S   UNL d   1      33.241  19.427 -24.245  0.00  0.00    -0.059 SA
BRANCH  10  12
ATOM     12  N   UNL d   1      32.525  18.268 -23.801  0.00  0.00    -0.292 N 
ATOM     13  C   UNL d   1      31.704  18.237 -23.687  0.00  0.00     0.108 A 
ATOM     14  C   UNL d   1      31.291  17.542 -23.855  0.00  0.00     0.142 A 
ATOM     15  O   UNL d   1      31.698  16.880 -24.135  0.00  0.00    -0.300 OA
ATOM     16  C   UNL d   1      32.517  16.913 -24.248  0.00  0.00     0.142 A 
ATOM     17  C   UNL d   1      32.930  17.608 -24.081  0.00  0.00     0.108 A 
ENDBRANCH  10  12
ENDBRANCH   1  10
TORSDOF 2
ENDMDL
MODEL 7
REMARK VINA RESULT:      -0.9      2.731      3.883
REMARK  2 active torsions:
REMARK  status: ('A' for Active; 'I' for Inactive)
REMARK    1  A    between atoms: C_2  and  C_1 
REMARK    2  A    between atoms: N_6  and  C_2 
ROOT
ATOM      1  C   UNL d   1      32.926  19.203 -23.216  0.00  0.00     0.047 A 
ATOM      2  C   UNL d   1      33.159  19.673 -23.857  0.00  0.00     0.101 A 
ATOM      3  C   UNL d   1      32.573  18.522 -23.520  0.00  0.00     0.021 A 
ATOM      4  N   UNL d   1      32.950  19.281 -24.552  0.00  0.00    -0.244 NA
ATOM      5  C   UNL d   1      32.587  18.568 -24.341  0.00  0.00     0.082 A 
ATOM      6  C   UNL d   1      32.243  17.868 -23.154  0.00  0.00     0.002 A 
ATOM      7  C   UNL d   1      32.272  17.963 -24.796  0.00  0.00     0.019 A 
ATOM      8  C   UNL d   1      31.926  17.259 -23.609  0.00  0.00     0.000 A 
ATOM      9  C   UNL d   1      31.941  17.308 -24.434  0.00  0.00     0.002 A 
ENDROOT
BRANCH   1  10
ATOM     10  C   UNL d   1      33.025  19.378 -22.416  0.00  0.00     0.122 C 
ATOM     11  S   UNL d   1      33.241  18.786 -21.885  0.00  0.00    -0.059 SA
BRANCH  10  12
ATOM     12  N   UNL d   1      32.905  20.153 -22.151  0.00  0.00    -0.292 N 
ATOM     13  C   UNL d   1      32.447  20.293 -21.474  0.00  0.00     0.108 A 
ATOM     14  C   UNL d   1      32.328  21.067 -21.211  0.00  0.00     0.142 A 
ATOM     15  O   UNL d   1      32.665  21.698 -21.623  0.00  0.00    -0.300 OA
ATOM     16  C   UNL d   1      33.122  21.556 -22.298  0.00  0.00     0.142 A 
ATOM     17  C   UNL d   1      33.241  20.783 -22.562  0.00  0.00     0.108 A 
ENDBRANCH  10  12
ENDBRANCH   1  10
TORSDOF 2
ENDMDL
MODEL 8
REMARK VINA RESULT:      -0.4      4.722      6.137
REMARK  2 active torsions:
REMARK  status: ('A' for Active; 'I' for Inactive)
REMARK    1  A    between atoms: C_2  and  C_1 
REMARK    2  A    between atoms: N_6  and  C_2 
ROOT
ATOM      1  C   UNL d   1      33.015  21.327 -21.686  0.00  0.00     0.047 A 
ATOM      2  C   UNL d   1      33.038  21.937 -22.245  0.00  0.00     0.101 A 
ATOM      3  C   UNL d   1      33.084  20.613 -22.093  0.00  0.00     0.021 A 
ATOM      4  N   UNL d   1      33.120  21.598 -22.993  0.00  0.00    -0.244 NA
ATOM      5  C   UNL d   1      33.148  20.778 -22.896  0.00  0.00     0.082 A 
ATOM      6  C   UNL d   1      33.095  19.836 -21.834  0.00  0.00     0.002 A 
ATOM      7  C   UNL d   1      33.224  20.168 -23.440  0.00  0.00     0.019 A 
ATOM      8  C   UNL d   1      33.171  19.222 -22.378  0.00  0.00     0.000 A 
ATOM      9  C   UNL d   1      33.236  19.391 -23.185  0.00  0.00     0.002 A 
ENDROOT
BRANCH   1  10
ATOM     10  C   UNL d   1      32.938  21.411 -20.869  0.00  0.00     0.122 C 
ATOM     11  S   UNL d   1      32.992  20.752 -20.377  0.00  0.00    -0.059 SA
BRANCH  10  12
ATOM     12  N   UNL d   1      32.807  22.162 -20.548  0.00  0.00    -0.292 N 
ATOM     13  C   UNL d   1      32.244  22.665 -20.889  0.00  0.00     0.108 A 
ATOM     14  C   UNL d   1      32.113  23.415 -20.568  0.00  0.00     0.142 A 
ATOM     15  O   UNL d   1      32.545  23.661 -19.908  0.00  0.00    -0.300 OA
ATOM     16  C   UNL d   1      33.107  23.157 -19.569  0.00  0.00     0.142 A 
ATOM     17  C   UNL d   1      33.237  22.408 -19.890  0.00  0.00     0.108 A 
ENDBRANCH  10  12
ENDBRANCH   1  10
TORSDOF 2
ENDMDL
