MODEL 1
REMARK VINA RESULT:      44.2      0.000      0.000
REMARK  4 active torsions:
REMARK  status: ('A' for Active; 'I' for Inactive)
REMARK    1  A    between atoms: C_9  and  N_2 
REMARK    2  A    between atoms: C_7  and  O_10 
REMARK    3  A    between atoms: C_11  and  C_9 
REMARK    4  A    between atoms: O_10  and  C_11 
ROOT
ATOM      1  C   UNL d   1      58.492  49.700  49.432  0.00  0.00     0.378 A 
ATOM      2  N   UNL d   1      58.476  49.700  50.265  0.00  0.00    -0.249 N 
ATOM      3  O   UNL d   1      57.707  49.694  49.160  0.00  0.00    -0.258 OA
ATOM      4  C   UNL d   1      57.683  49.694  50.502  0.00  0.00     0.092 A 
ATOM      5  C   UNL d   1      57.210  49.690  49.819  0.00  0.00     0.121 A 
ATOM      6  O   UNL d   1      59.172  49.706  48.971  0.00  0.00    -0.237 OA
ATOM      7  C   UNL d   1      57.331  49.691  51.251  0.00  0.00     0.020 A 
ATOM      8  C   UNL d   1      56.382  49.684  49.896  0.00  0.00     0.026 A 
ATOM      9  C   UNL d   1      56.508  49.685  51.315  0.00  0.00     0.002 A 
ATOM     10  C   UNL d   1      56.036  49.681  50.642  0.00  0.00     0.002 A 
ENDROOT
BRANCH   2  11
ATOM     11  C   UNL d   1      59.108  49.705  50.797  0.00  0.00     0.112 C 
BRANCH  11  12
ATOM     12  C   UNL d   1      59.779  49.267  50.636  0.00  0.00     0.142 C 
BRANCH  12  13
ATOM     13  O   UNL d   1      60.173  48.879  51.248  0.00  0.00    -0.304 OA
BRANCH  13  14
ATOM     14  C   UNL d   1      60.577  48.174  51.098  0.00  0.00     0.100 A 
ATOM     15  C   UNL d   1      61.222  48.183  50.594  0.00  0.00     0.023 A 
ATOM     16  C   UNL d   1      61.466  48.883  50.240  0.00  0.00     0.002 C 
ATOM     17  C   UNL d   1      61.632  47.479  50.439  0.00  0.00     0.002 A 
ATOM     18  C   UNL d   1      61.382  46.776  50.798  0.00  0.00     0.000 A 
ATOM     19  C   UNL d   1      60.731  46.779  51.304  0.00  0.00     0.002 A 
ATOM     20  C   UNL d   1      60.332  47.476  51.451  0.00  0.00     0.025 A 
ENDBRANCH  13  14
ENDBRANCH  12  13
ENDBRANCH  11  12
ENDBRANCH   2  11
TORSDOF 4
ENDMDL
