MODEL 1
REMARK VINA RESULT:      45.1      0.000      0.000
REMARK  3 active torsions:
REMARK  status: ('A' for Active; 'I' for Inactive)
REMARK    1  A    between atoms: N_2  and  S_1 
REMARK    2  A    between atoms: C_5  and  S_1 
REMARK    3  A    between atoms: C_4  and  C_3 
ROOT
ATOM      1  C   UNL d   1      57.751  49.361  50.182  0.00  0.00     0.083 A 
ATOM      2  C   UNL d   1      59.186  49.368  50.201  0.00  0.00     0.104 A 
ATOM      3  C   UNL d   1      58.466  49.396  49.780  0.00  0.00     0.018 A 
ATOM      4  C   UNL d   1      57.742  49.299  51.014  0.00  0.00     0.062 A 
ATOM      5  C   UNL d   1      59.171  49.306  51.024  0.00  0.00     0.014 A 
ATOM      6  C   UNL d   1      58.456  49.272  51.426  0.00  0.00     0.012 A 
ATOM      7 CL   UNL d   1      57.027  49.264  51.417  0.00  0.00    -0.082 Cl
ENDROOT
BRANCH   2   8
ATOM      8  S   UNL d   1      59.905  49.403  49.796  0.00  0.00     0.272 S 
ATOM      9  O   UNL d   1      59.523  49.706  49.143  0.00  0.00    -0.200 OA
ATOM     10  O   UNL d   1      60.639  49.439  49.383  0.00  0.00    -0.200 OA
BRANCH   8  11
ATOM     11  N   UNL d   1      60.306  49.086  50.480  0.00  0.00    -0.225 N 
ATOM     12  C   UNL d   1      60.363  49.553  51.186  0.00  0.00     0.116 A 
ATOM     13  C   UNL d   1      60.748  49.248  51.844  0.00  0.00     0.118 A 
ATOM     14  C   UNL d   1      60.810  49.697  52.540  0.00  0.00     0.028 C 
ATOM     15  O   UNL d   1      61.084  48.469  51.809  0.00  0.00    -0.304 OA
ATOM     16  C   UNL d   1      61.022  48.020  51.114  0.00  0.00     0.118 A 
ATOM     17  C   UNL d   1      60.637  48.325  50.457  0.00  0.00     0.116 A 
ATOM     18  C   UNL d   1      61.352  47.264  51.093  0.00  0.00     0.028 C 
ENDBRANCH   8  11
ENDBRANCH   2   8
BRANCH   1  19
ATOM     19  C   UNL d   1      57.026  49.390  49.751  0.00  0.00     0.420 C 
ATOM     20  F   UNL d   1      56.311  49.414  49.315  0.00  0.00    -0.166 F 
ATOM     21  F   UNL d   1      56.625  49.708  50.406  0.00  0.00    -0.166 F 
ATOM     22  F   UNL d   1      57.415  49.071  49.085  0.00  0.00    -0.166 F 
ENDBRANCH   1  19
TORSDOF 3
ENDMDL
MODEL 2
REMARK VINA RESULT:      45.5      1.231      1.706
REMARK  3 active torsions:
REMARK  status: ('A' for Active; 'I' for Inactive)
REMARK    1  A    between atoms: N_2  and  S_1 
REMARK    2  A    between atoms: C_5  and  S_1 
REMARK    3  A    between atoms: C_4  and  C_3 
ROOT
ATOM      1  C   UNL d   1      57.914  49.105  50.528  0.00  0.00     0.083 A 
ATOM      2  C   UNL d   1      59.209  49.400  51.072  0.00  0.00     0.104 A 
ATOM      3  C   UNL d   1      58.435  49.100  51.163  0.00  0.00     0.018 A 
ATOM      4  C   UNL d   1      58.156  49.411  49.790  0.00  0.00     0.062 A 
ATOM      5  C   UNL d   1      59.443  49.701  50.340  0.00  0.00     0.014 A 
ATOM      6  C   UNL d   1      58.922  49.706  49.706  0.00  0.00     0.012 A 
ATOM      7 CL   UNL d   1      57.636  49.416  49.155  0.00  0.00    -0.082 Cl
ENDROOT
BRANCH   2   8
ATOM      8  S   UNL d   1      59.733  49.395  51.711  0.00  0.00     0.272 S 
ATOM      9  O   UNL d   1      59.151  49.706  52.190  0.00  0.00    -0.200 OA
ATOM     10  O   UNL d   1      60.268  49.390  52.362  0.00  0.00    -0.200 OA
BRANCH   8  11
ATOM     11  N   UNL d   1      60.342  49.070  51.208  0.00  0.00    -0.225 N 
ATOM     12  C   UNL d   1      60.689  49.554  50.604  0.00  0.00     0.116 A 
ATOM     13  C   UNL d   1      61.275  49.241  50.121  0.00  0.00     0.118 A 
ATOM     14  C   UNL d   1      61.621  49.707  49.526  0.00  0.00     0.028 C 
ATOM     15  O   UNL d   1      61.525  48.438  50.232  0.00  0.00    -0.304 OA
ATOM     16  C   UNL d   1      61.179  47.973  50.826  0.00  0.00     0.118 A 
ATOM     17  C   UNL d   1      60.594  48.286  51.309  0.00  0.00     0.116 A 
ATOM     18  C   UNL d   1      61.432  47.194  50.925  0.00  0.00     0.028 C 
ENDBRANCH   8  11
ENDBRANCH   2   8
BRANCH   1  19
ATOM     19  C   UNL d   1      57.133  48.801  50.625  0.00  0.00     0.420 C 
ATOM     20  F   UNL d   1      56.354  48.508  50.720  0.00  0.00    -0.166 F 
ATOM     21  F   UNL d   1      57.424  48.029  50.724  0.00  0.00    -0.166 F 
ATOM     22  F   UNL d   1      56.826  49.571  50.527  0.00  0.00    -0.166 F 
ENDBRANCH   1  19
TORSDOF 3
ENDMDL
MODEL 3
REMARK VINA RESULT:      46.9      0.612      1.192
REMARK  3 active torsions:
REMARK  status: ('A' for Active; 'I' for Inactive)
REMARK    1  A    between atoms: N_2  and  S_1 
REMARK    2  A    between atoms: C_5  and  S_1 
REMARK    3  A    between atoms: C_4  and  C_3 
ROOT
ATOM      1  C   UNL d   1      57.457  49.099  50.130  0.00  0.00     0.083 A 
ATOM      2  C   UNL d   1      58.852  49.428  50.077  0.00  0.00     0.104 A 
ATOM      3  C   UNL d   1      58.165  49.124  49.715  0.00  0.00     0.018 A 
ATOM      4  C   UNL d   1      57.422  49.378  50.916  0.00  0.00     0.062 A 
ATOM      5  C   UNL d   1      58.813  49.704  50.854  0.00  0.00     0.014 A 
ATOM      6  C   UNL d   1      58.105  49.679  51.269  0.00  0.00     0.012 A 
ATOM      7 CL   UNL d   1      56.714  49.354  51.331  0.00  0.00    -0.082 Cl
ENDROOT
BRANCH   2   8
ATOM      8  S   UNL d   1      59.564  49.453  49.659  0.00  0.00     0.272 S 
ATOM      9  O   UNL d   1      59.162  49.674  48.985  0.00  0.00    -0.200 OA
ATOM     10  O   UNL d   1      60.291  49.479  49.232  0.00  0.00    -0.200 OA
BRANCH   8  11
ATOM     11  N   UNL d   1      59.986  49.222  50.364  0.00  0.00    -0.225 N 
ATOM     12  C   UNL d   1      60.615  48.654  50.309  0.00  0.00     0.116 A 
ATOM     13  C   UNL d   1      61.021  48.432  50.988  0.00  0.00     0.118 A 
ATOM     14  C   UNL d   1      61.637  47.878  50.944  0.00  0.00     0.028 C 
ATOM     15  O   UNL d   1      60.806  48.773  51.735  0.00  0.00    -0.304 OA
ATOM     16  C   UNL d   1      60.190  49.327  51.778  0.00  0.00     0.118 A 
ATOM     17  C   UNL d   1      59.785  49.549  51.099  0.00  0.00     0.116 A 
ATOM     18  C   UNL d   1      59.992  49.651  52.510  0.00  0.00     0.028 C 
ENDBRANCH   8  11
ENDBRANCH   2   8
BRANCH   1  19
ATOM     19  C   UNL d   1      56.764  48.790  49.759  0.00  0.00     0.420 C 
ATOM     20  F   UNL d   1      56.077  48.491  49.386  0.00  0.00    -0.166 F 
ATOM     21  F   UNL d   1      56.773  48.121  50.253  0.00  0.00    -0.166 F 
ATOM     22  F   UNL d   1      56.742  49.456  49.257  0.00  0.00    -0.166 F 
ENDBRANCH   1  19
TORSDOF 3
ENDMDL
