MODEL 1
REMARK VINA RESULT:      -5.5      0.000      0.000
REMARK  6 active torsions:
REMARK  status: ('A' for Active; 'I' for Inactive)
REMARK    1  A    between atoms: C_11  and  N_4 
REMARK    2  A    between atoms: C_19  and  C_7 
REMARK    3  A    between atoms: C_17  and  C_11 
REMARK    4  A    between atoms: O_21  and  C_16 
REMARK    5  A    between atoms: C_20  and  C_17 
REMARK    6  A    between atoms: C_25  and  C_19 
ROOT
ATOM      1  C   UNL d   1      57.390  -0.570  31.368  0.00  0.00     0.137 A 
ATOM      2  C   UNL d   1      57.688   0.161  31.613  0.00  0.00     0.192 A 
ATOM      3  C   UNL d   1      57.739  -0.972  30.739  0.00  0.00     0.272 A 
ATOM      4  N   UNL d   1      58.387  -0.643  30.353  0.00  0.00    -0.258 N 
ATOM      5  N   UNL d   1      58.333   0.490  31.229  0.00  0.00    -0.204 NA
ATOM      6  C   UNL d   1      56.739  -0.899  31.757  0.00  0.00     0.205 A 
ATOM      7  C   UNL d   1      58.688   0.088  30.594  0.00  0.00     0.152 A 
ATOM      8  C   UNL d   1      56.393  -0.503  32.379  0.00  0.00     0.062 A 
ATOM      9  O   UNL d   1      57.336   0.556  32.240  0.00  0.00    -0.289 OA
ATOM     10  C   UNL d   1      56.687   0.224  32.624  0.00  0.00     0.107 A 
ATOM     11  C   UNL d   1      56.332   0.627  33.260  0.00  0.00     0.049 A 
ATOM     12  C   UNL d   1      55.741  -0.836  32.766  0.00  0.00     0.007 A 
ATOM     13  O   UNL d   1      57.440  -1.700  30.499  0.00  0.00    -0.266 OA
ATOM     14  O   UNL d   1      56.446  -1.626  31.512  0.00  0.00    -0.286 OA
ATOM     15  C   UNL d   1      55.685   0.294  33.641  0.00  0.00     0.096 A 
ATOM     16  C   UNL d   1      55.392  -0.434  33.396  0.00  0.00     0.024 A 
ENDROOT
BRANCH   4  17
ATOM     17  C   UNL d   1      58.736  -1.046  29.723  0.00  0.00     0.084 C 
BRANCH  17  18
ATOM     18  C   UNL d   1      58.438  -1.787  29.480  0.00  0.00     0.019 C 
BRANCH  18  19
ATOM     19  C   UNL d   1      58.949  -2.348  29.151  0.00  0.00     0.002 A 
ATOM     20  C   UNL d   1      58.749  -3.154  29.195  0.00  0.00     0.000 A 
ATOM     21  C   UNL d   1      59.261  -3.724  28.864  0.00  0.00     0.000 A 
ATOM     22  C   UNL d   1      59.965  -3.488  28.495  0.00  0.00     0.000 A 
ATOM     23  C   UNL d   1      60.158  -2.676  28.455  0.00  0.00     0.000 A 
ATOM     24  C   UNL d   1      59.648  -2.114  28.784  0.00  0.00     0.000 A 
ENDBRANCH  18  19
ENDBRANCH  17  18
ENDBRANCH   4  17
BRANCH   7  25
ATOM     25  C   UNL d   1      59.338   0.420  30.209  0.00  0.00     0.038 C 
BRANCH  25  26
ATOM     26  C   UNL d   1      59.991   0.675  30.639  0.00  0.00     0.003 C 
ATOM     27  C   UNL d   1      60.743   0.566  30.336  0.00  0.00     0.000 C 
ENDBRANCH  25  26
ENDBRANCH   7  25
BRANCH  15  28
ATOM     28  O   UNL d   1      55.330   0.682  34.266  0.00  0.00    -0.328 OA
ATOM     29  C   UNL d   1      54.516   0.622  34.372  0.00  0.00     0.181 C 
ENDBRANCH  15  28
TORSDOF 6
ENDMDL
MODEL 2
REMARK VINA RESULT:      -2.6      1.612      2.255
REMARK  6 active torsions:
REMARK  status: ('A' for Active; 'I' for Inactive)
REMARK    1  A    between atoms: C_11  and  N_4 
REMARK    2  A    between atoms: C_19  and  C_7 
REMARK    3  A    between atoms: C_17  and  C_11 
REMARK    4  A    between atoms: O_21  and  C_16 
REMARK    5  A    between atoms: C_20  and  C_17 
REMARK    6  A    between atoms: C_25  and  C_19 
ROOT
ATOM      1  C   UNL d   1      57.538   0.674  32.238  0.00  0.00     0.137 A 
ATOM      2  C   UNL d   1      56.877   0.673  31.741  0.00  0.00     0.192 A 
ATOM      3  C   UNL d   1      58.298   0.675  31.918  0.00  0.00     0.272 A 
ATOM      4  N   UNL d   1      58.399   0.675  31.102  0.00  0.00    -0.258 N 
ATOM      5  N   UNL d   1      56.975   0.672  30.927  0.00  0.00    -0.204 NA
ATOM      6  C   UNL d   1      57.435   0.675  33.057  0.00  0.00     0.205 A 
ATOM      7  C   UNL d   1      57.740   0.673  30.601  0.00  0.00     0.152 A 
ATOM      8  C   UNL d   1      56.686   0.674  33.374  0.00  0.00     0.062 A 
ATOM      9  O   UNL d   1      56.123   0.672  32.065  0.00  0.00    -0.289 OA
ATOM     10  C   UNL d   1      56.026   0.673  32.884  0.00  0.00     0.107 A 
ATOM     11  C   UNL d   1      55.261   0.672  33.209  0.00  0.00     0.049 A 
ATOM     12  C   UNL d   1      56.587   0.674  34.196  0.00  0.00     0.007 A 
ATOM     13  O   UNL d   1      58.954   0.676  32.416  0.00  0.00    -0.266 OA
ATOM     14  O   UNL d   1      58.095   0.676  33.548  0.00  0.00    -0.286 OA
ATOM     15  C   UNL d   1      55.167   0.672  34.025  0.00  0.00     0.096 A 
ATOM     16  C   UNL d   1      55.826   0.673  34.516  0.00  0.00     0.024 A 
ENDROOT
BRANCH   4  17
ATOM     17  C   UNL d   1      59.159   0.675  30.783  0.00  0.00     0.084 C 
BRANCH  17  18
ATOM     18  C   UNL d   1      59.607  -0.029  30.758  0.00  0.00     0.019 C 
BRANCH  18  19
ATOM     19  C   UNL d   1      60.115  -0.172  30.122  0.00  0.00     0.002 A 
ATOM     20  C   UNL d   1      60.146  -0.933  29.790  0.00  0.00     0.000 A 
ATOM     21  C   UNL d   1      60.657  -1.083  29.147  0.00  0.00     0.000 A 
ATOM     22  C   UNL d   1      61.132  -0.474  28.843  0.00  0.00     0.000 A 
ATOM     23  C   UNL d   1      61.095   0.288  29.183  0.00  0.00     0.000 A 
ATOM     24  C   UNL d   1      60.587   0.431  29.819  0.00  0.00     0.000 A 
ENDBRANCH  18  19
ENDBRANCH  17  18
ENDBRANCH   4  17
BRANCH   7  25
ATOM     25  C   UNL d   1      57.837   0.673  29.782  0.00  0.00     0.038 C 
BRANCH  25  26
ATOM     26  C   UNL d   1      57.211   0.472  29.289  0.00  0.00     0.003 C 
ATOM     27  C   UNL d   1      57.297   0.538  28.478  0.00  0.00     0.000 C 
ENDBRANCH  25  26
ENDBRANCH   7  25
BRANCH  15  28
ATOM     28  O   UNL d   1      54.419   0.671  34.354  0.00  0.00    -0.328 OA
ATOM     29  C   UNL d   1      54.278   0.238  35.039  0.00  0.00     0.181 C 
ENDBRANCH  15  28
TORSDOF 6
ENDMDL
