MODEL 1
REMARK VINA RESULT:      85.3      0.000      0.000
REMARK  7 active torsions:
REMARK  status: ('A' for Active; 'I' for Inactive)
REMARK    1  A    between atoms: C_7  and  C_1 
REMARK    2  A    between atoms: N_5  and  C_2 
REMARK       I    between atoms: C_8  and  N_5 
REMARK    3  A    between atoms: N_9  and  C_7 
REMARK    4  A    between atoms: C_11  and  C_7 
REMARK    5  A    between atoms: C_15  and  C_8 
REMARK    6  A    between atoms: O_25  and  C_20 
REMARK    7  A    between atoms: C_29  and  O_25 
ROOT
ATOM      1  C   UNL d   1      45.573 -17.519  43.064  0.00  0.00     0.066 C 
ENDROOT
BRANCH   1   2
ATOM      2  C   UNL d   1      45.321 -16.823  43.420  0.00  0.00     0.041 A 
ATOM      3  C   UNL d   1      45.496 -16.036  43.255  0.00  0.00     0.115 A 
ATOM      4  S   UNL d   1      45.081 -15.570  43.799  0.00  0.00    -0.068 SA
ATOM      5  C   UNL d   1      44.660 -16.079  44.287  0.00  0.00     0.031 A 
ATOM      6  C   UNL d   1      44.805 -16.856  44.057  0.00  0.00     0.009 A 
ATOM      7  C   UNL d   1      44.159 -15.801  44.926  0.00  0.00     0.007 C 
ATOM      8  C   UNL d   1      44.497 -17.569  44.392  0.00  0.00     0.001 C 
BRANCH   3   9
ATOM      9  N   UNL d   1      45.987 -15.735  42.665  0.00  0.00    -0.201 NA
ATOM     10  C   UNL d   1      46.143 -14.926  42.614  0.00  0.00     0.280 C 
ATOM     11  O   UNL d   1      46.646 -14.635  42.008  0.00  0.00    -0.265 OA
BRANCH  10  12
ATOM     12  C   UNL d   1      45.804 -14.417  43.155  0.00  0.00     0.058 A 
ATOM     13  C   UNL d   1      46.194 -14.244  43.849  0.00  0.00     0.005 A 
ATOM     14  C   UNL d   1      45.859 -13.738  44.389  0.00  0.00     0.000 A 
ATOM     15  C   UNL d   1      45.136 -13.403  44.243  0.00  0.00     0.000 A 
ATOM     16  C   UNL d   1      44.735 -13.572  43.545  0.00  0.00     0.000 A 
ATOM     17  C   UNL d   1      45.067 -14.082  42.996  0.00  0.00     0.005 A 
ENDBRANCH  10  12
ENDBRANCH   3   9
ENDBRANCH   1   2
BRANCH   1  18
ATOM     18  N   UNL d   1      45.827 -18.157  43.528  0.00  0.00    -0.301 N 
ATOM     19  C   UNL d   1      45.854 -18.939  43.207  0.00  0.00     0.100 A 
ATOM     20  C   UNL d   1      46.116 -19.567  43.702  0.00  0.00     0.100 A 
ATOM     21  N   UNL d   1      46.346 -19.447  44.486  0.00  0.00    -0.299 N 
ATOM     22  C   UNL d   1      46.318 -18.666  44.807  0.00  0.00     0.100 A 
ATOM     23  C   UNL d   1      46.601 -20.088  44.954  0.00  0.00     0.100 C 
ATOM     24  C   UNL d   1      46.062 -18.041  44.329  0.00  0.00     0.100 A 
ENDBRANCH   1  18
BRANCH   1  25
ATOM     25  C   UNL d   1      45.577 -17.597  42.239  0.00  0.00     0.016 A 
ATOM     26  C   UNL d   1      46.281 -17.753  41.853  0.00  0.00     0.004 A 
ATOM     27  C   UNL d   1      46.309 -17.834  41.042  0.00  0.00     0.025 A 
ATOM     28  C   UNL d   1      45.618 -17.758  40.584  0.00  0.00     0.100 A 
ATOM     29  C   UNL d   1      44.875 -17.595  40.969  0.00  0.00     0.025 A 
ATOM     30  C   UNL d   1      44.863 -17.514  41.809  0.00  0.00     0.004 A 
BRANCH  28  31
ATOM     31  O   UNL d   1      45.646 -17.839  39.767  0.00  0.00    -0.305 OA
BRANCH  31  32
ATOM     32  C   UNL d   1      45.579 -17.172  39.273  0.00  0.00     0.123 C 
ATOM     33  C   UNL d   1      45.487 -17.262  38.456  0.00  0.00     0.029 C 
ENDBRANCH  31  32
ENDBRANCH  28  31
ENDBRANCH   1  25
TORSDOF 7
ENDMDL
MODEL 2
REMARK VINA RESULT:      86.6      3.940      6.714
REMARK  7 active torsions:
REMARK  status: ('A' for Active; 'I' for Inactive)
REMARK    1  A    between atoms: C_7  and  C_1 
REMARK    2  A    between atoms: N_5  and  C_2 
REMARK       I    between atoms: C_8  and  N_5 
REMARK    3  A    between atoms: N_9  and  C_7 
REMARK    4  A    between atoms: C_11  and  C_7 
REMARK    5  A    between atoms: C_15  and  C_8 
REMARK    6  A    between atoms: O_25  and  C_20 
REMARK    7  A    between atoms: C_29  and  O_25 
ROOT
ATOM      1  C   UNL d   1      44.591 -15.896  37.645  0.00  0.00     0.066 C 
ENDROOT
BRANCH   1   2
ATOM      2  C   UNL d   1      43.809 -15.943  37.398  0.00  0.00     0.041 A 
ATOM      3  C   UNL d   1      43.169 -15.442  37.526  0.00  0.00     0.115 A 
ATOM      4  S   UNL d   1      42.515 -15.771  37.143  0.00  0.00    -0.068 SA
ATOM      5  C   UNL d   1      42.764 -16.468  36.786  0.00  0.00     0.031 A 
ATOM      6  C   UNL d   1      43.565 -16.579  36.941  0.00  0.00     0.009 A 
ATOM      7  C   UNL d   1      42.238 -16.972  36.332  0.00  0.00     0.007 C 
ATOM      8  C   UNL d   1      44.064 -17.214  36.692  0.00  0.00     0.001 C 
BRANCH   3   9
ATOM      9  N   UNL d   1      43.151 -14.737  37.952  0.00  0.00    -0.201 NA
ATOM     10  C   UNL d   1      42.496 -14.235  37.918  0.00  0.00     0.280 C 
ATOM     11  O   UNL d   1      42.493 -13.520  38.357  0.00  0.00    -0.265 OA
BRANCH  10  12
ATOM     12  C   UNL d   1      41.857 -14.443  37.453  0.00  0.00     0.058 A 
ATOM     13  C   UNL d   1      41.667 -13.995  36.800  0.00  0.00     0.005 A 
ATOM     14  C   UNL d   1      41.032 -14.199  36.337  0.00  0.00     0.000 A 
ATOM     15  C   UNL d   1      40.583 -14.849  36.520  0.00  0.00     0.000 A 
ATOM     16  C   UNL d   1      40.768 -15.307  37.178  0.00  0.00     0.000 A 
ATOM     17  C   UNL d   1      41.407 -15.106  37.649  0.00  0.00     0.005 A 
ENDBRANCH  10  12
ENDBRANCH   3   9
ENDBRANCH   1   2
BRANCH   1  18
ATOM     18  N   UNL d   1      45.099 -15.328  37.316  0.00  0.00    -0.301 N 
ATOM     19  C   UNL d   1      45.572 -15.513  36.641  0.00  0.00     0.100 A 
ATOM     20  C   UNL d   1      46.078 -14.916  36.330  0.00  0.00     0.100 A 
ATOM     21  N   UNL d   1      46.126 -14.161  36.659  0.00  0.00    -0.299 N 
ATOM     22  C   UNL d   1      45.653 -13.976  37.334  0.00  0.00     0.100 A 
ATOM     23  C   UNL d   1      46.636 -13.589  36.330  0.00  0.00     0.100 C 
ATOM     24  C   UNL d   1      45.153 -14.555  37.648  0.00  0.00     0.100 A 
ENDBRANCH   1  18
BRANCH   1  25
ATOM     25  C   UNL d   1      44.887 -16.411  38.222  0.00  0.00     0.016 A 
ATOM     26  C   UNL d   1      45.651 -16.695  38.155  0.00  0.00     0.004 A 
ATOM     27  C   UNL d   1      45.962 -17.203  38.712  0.00  0.00     0.025 A 
ATOM     28  C   UNL d   1      45.507 -17.447  39.366  0.00  0.00     0.100 A 
ATOM     29  C   UNL d   1      44.709 -17.162  39.451  0.00  0.00     0.025 A 
ATOM     30  C   UNL d   1      44.401 -16.636  38.867  0.00  0.00     0.004 A 
BRANCH  28  31
ATOM     31  O   UNL d   1      45.821 -17.959  39.927  0.00  0.00    -0.305 OA
BRANCH  31  32
ATOM     32  C   UNL d   1      45.752 -17.790  40.739  0.00  0.00     0.123 C 
ATOM     33  C   UNL d   1      46.319 -18.066  41.275  0.00  0.00     0.029 C 
ENDBRANCH  31  32
ENDBRANCH  28  31
ENDBRANCH   1  25
TORSDOF 7
ENDMDL
MODEL 3
REMARK VINA RESULT:      87.2      3.840      6.245
REMARK  7 active torsions:
REMARK  status: ('A' for Active; 'I' for Inactive)
REMARK    1  A    between atoms: C_7  and  C_1 
REMARK    2  A    between atoms: N_5  and  C_2 
REMARK       I    between atoms: C_8  and  N_5 
REMARK    3  A    between atoms: N_9  and  C_7 
REMARK    4  A    between atoms: C_11  and  C_7 
REMARK    5  A    between atoms: C_15  and  C_8 
REMARK    6  A    between atoms: O_25  and  C_20 
REMARK    7  A    between atoms: C_29  and  O_25 
ROOT
ATOM      1  C   UNL d   1      44.257 -15.904  37.595  0.00  0.00     0.066 C 
ENDROOT
BRANCH   1   2
ATOM      2  C   UNL d   1      44.766 -15.319  37.323  0.00  0.00     0.041 A 
ATOM      3  C   UNL d   1      44.717 -14.498  37.356  0.00  0.00     0.115 A 
ATOM      4  S   UNL d   1      45.392 -14.194  36.990  0.00  0.00    -0.068 SA
ATOM      5  C   UNL d   1      45.845 -14.832  36.738  0.00  0.00     0.031 A 
ATOM      6  C   UNL d   1      45.461 -15.531  36.942  0.00  0.00     0.009 A 
ATOM      7  C   UNL d   1      46.594 -14.738  36.331  0.00  0.00     0.007 C 
ATOM      8  C   UNL d   1      45.710 -16.327  36.799  0.00  0.00     0.001 C 
BRANCH   3   9
ATOM      9  N   UNL d   1      44.118 -14.037  37.686  0.00  0.00    -0.201 NA
ATOM     10  C   UNL d   1      44.295 -13.425  38.212  0.00  0.00     0.280 C 
ATOM     11  O   UNL d   1      43.675 -12.964  38.539  0.00  0.00    -0.265 OA
BRANCH  10  12
ATOM     12  C   UNL d   1      45.075 -13.276  38.406  0.00  0.00     0.058 A 
ATOM     13  C   UNL d   1      45.575 -12.946  37.853  0.00  0.00     0.005 A 
ATOM     14  C   UNL d   1      46.350 -12.797  38.044  0.00  0.00     0.000 A 
ATOM     15  C   UNL d   1      46.632 -12.974  38.782  0.00  0.00     0.000 A 
ATOM     16  C   UNL d   1      46.134 -13.307  39.347  0.00  0.00     0.000 A 
ATOM     17  C   UNL d   1      45.351 -13.460  39.161  0.00  0.00     0.005 A 
ENDBRANCH  10  12
ENDBRANCH   3   9
ENDBRANCH   1   2
BRANCH   1  18
ATOM     18  N   UNL d   1      43.490 -15.967  37.286  0.00  0.00    -0.301 N 
ATOM     19  C   UNL d   1      42.861 -15.496  37.597  0.00  0.00     0.100 A 
ATOM     20  C   UNL d   1      42.093 -15.581  37.263  0.00  0.00     0.100 A 
ATOM     21  N   UNL d   1      41.935 -16.106  36.646  0.00  0.00    -0.299 N 
ATOM     22  C   UNL d   1      42.563 -16.577  36.336  0.00  0.00     0.100 A 
ATOM     23  C   UNL d   1      41.164 -16.170  36.334  0.00  0.00     0.100 C 
ATOM     24  C   UNL d   1      43.321 -16.501  36.656  0.00  0.00     0.100 A 
ENDBRANCH   1  18
BRANCH   1  25
ATOM     25  C   UNL d   1      44.498 -16.438  38.180  0.00  0.00     0.016 A 
ATOM     26  C   UNL d   1      43.944 -16.746  38.698  0.00  0.00     0.004 A 
ATOM     27  C   UNL d   1      44.159 -17.274  39.281  0.00  0.00     0.025 A 
ATOM     28  C   UNL d   1      44.953 -17.513  39.365  0.00  0.00     0.100 A 
ATOM     29  C   UNL d   1      45.544 -17.203  38.836  0.00  0.00     0.025 A 
ATOM     30  C   UNL d   1      45.305 -16.658  38.237  0.00  0.00     0.004 A 
BRANCH  28  31
ATOM     31  O   UNL d   1      45.170 -18.045  39.954  0.00  0.00    -0.305 OA
BRANCH  31  32
ATOM     32  C   UNL d   1      45.267 -17.789  40.740  0.00  0.00     0.123 C 
ATOM     33  C   UNL d   1      45.477 -18.326  41.333  0.00  0.00     0.029 C 
ENDBRANCH  31  32
ENDBRANCH  28  31
ENDBRANCH   1  25
TORSDOF 7
ENDMDL
