MODEL 1
REMARK VINA RESULT:       0.8      0.000      0.000
REMARK  5 active torsions:
REMARK  status: ('A' for Active; 'I' for Inactive)
REMARK    1  A    between atoms: N_10  and  C_4 
REMARK    2  A    between atoms: C_20  and  N_5 
REMARK    3  A    between atoms: C_12  and  S_19 
REMARK    4  A    between atoms: S_19  and  C_23 
REMARK    5  A    between atoms: C_23  and  C_20 
ROOT
ATOM      1  C   UNL d   1      29.712  16.903 -24.006  0.00  0.00     0.191 A 
ATOM      2  C   UNL d   1      30.072  17.618 -24.201  0.00  0.00     0.174 A 
ATOM      3  N   UNL d   1      30.299  16.328 -23.965  0.00  0.00    -0.042 NA
ATOM      4  C   UNL d   1      31.016  16.681 -24.132  0.00  0.00     0.722 A 
ATOM      5  N   UNL d   1      30.882  17.485 -24.280  0.00  0.00    -0.132 N 
ATOM      6  N   UNL d   1      28.896  16.870 -23.892  0.00  0.00    -0.239 N 
ATOM      7  C   UNL d   1      28.439  17.553 -23.972  0.00  0.00     0.358 A 
ATOM      8  N   UNL d   1      28.799  18.268 -24.167  0.00  0.00    -0.152 NA
ATOM      9  C   UNL d   1      29.616  18.301 -24.281  0.00  0.00     0.303 A 
ATOM     10  O   UNL d   1      27.621  17.515 -23.857  0.00  0.00    -0.244 OA
ATOM     11  O   UNL d   1      29.976  19.016 -24.476  0.00  0.00    -0.263 OA
ATOM     12  C   UNL d   1      28.539  16.162 -23.699  0.00  0.00     0.105 C 
ENDROOT
BRANCH   5  13
ATOM     13  C   UNL d   1      31.454  18.052 -24.472  0.00  0.00     0.105 C 
BRANCH  13  14
ATOM     14  C   UNL d   1      31.651  18.646 -23.927  0.00  0.00     0.058 C 
BRANCH  14  15
ATOM     15  S   UNL d   1      32.426  18.960 -23.919  0.00  0.00    -0.041 SA
BRANCH  15  16
ATOM     16  C   UNL d   1      32.610  19.562 -23.383  0.00  0.00     0.215 A 
ATOM     17  N   UNL d   1      32.681  19.403 -22.584  0.00  0.00    -0.214 NA
ATOM     18  C   UNL d   1      32.863  20.096 -22.201  0.00  0.00     0.107 A 
ATOM     19  C   UNL d   1      32.996  20.253 -21.397  0.00  0.00     0.021 A 
ATOM     20  C   UNL d   1      32.908  20.694 -22.744  0.00  0.00     0.120 A 
ATOM     21  C   UNL d   1      33.175  21.025 -21.154  0.00  0.00     0.002 A 
ATOM     22  C   UNL d   1      33.219  21.621 -21.700  0.00  0.00     0.002 A 
ATOM     23  C   UNL d   1      33.086  21.455 -22.499  0.00  0.00     0.026 A 
ATOM     24  O   UNL d   1      32.749  20.361 -23.493  0.00  0.00    -0.283 OA
ENDBRANCH  15  16
ENDBRANCH  14  15
ENDBRANCH  13  14
ENDBRANCH   5  13
BRANCH   4  25
ATOM     25  N   UNL d   1      31.728  16.273 -24.141  0.00  0.00    -0.139 N 
ATOM     26  C   UNL d   1      32.116  16.111 -23.435  0.00  0.00     0.098 A 
ATOM     27  C   UNL d   1      32.833  15.701 -23.435  0.00  0.00     0.018 A 
ATOM     28  C   UNL d   1      33.241  15.528 -22.733  0.00  0.00     0.002 C 
ATOM     29  C   UNL d   1      33.160  15.453 -24.146  0.00  0.00     0.003 A 
ATOM     30  C   UNL d   1      32.775  15.611 -24.862  0.00  0.00     0.020 A 
ATOM     31  C   UNL d   1      32.051  16.027 -24.853  0.00  0.00     0.098 A 
ENDBRANCH   4  25
TORSDOF 5
ENDMDL
MODEL 2
REMARK VINA RESULT:       2.3      1.648      5.351
REMARK  5 active torsions:
REMARK  status: ('A' for Active; 'I' for Inactive)
REMARK    1  A    between atoms: N_10  and  C_4 
REMARK    2  A    between atoms: C_20  and  N_5 
REMARK    3  A    between atoms: C_12  and  S_19 
REMARK    4  A    between atoms: S_19  and  C_23 
REMARK    5  A    between atoms: C_23  and  C_20 
ROOT
ATOM      1  C   UNL d   1      33.225  20.509 -21.556  0.00  0.00     0.191 A 
ATOM      2  C   UNL d   1      33.231  19.779 -21.939  0.00  0.00     0.174 A 
ATOM      3  N   UNL d   1      33.223  21.096 -22.133  0.00  0.00    -0.042 NA
ATOM      4  C   UNL d   1      33.228  20.736 -22.865  0.00  0.00     0.722 A 
ATOM      5  N   UNL d   1      33.233  19.916 -22.752  0.00  0.00    -0.132 N 
ATOM      6  N   UNL d   1      33.221  20.541 -20.732  0.00  0.00    -0.239 N 
ATOM      7  C   UNL d   1      33.224  19.844 -20.290  0.00  0.00     0.358 A 
ATOM      8  N   UNL d   1      33.231  19.115 -20.673  0.00  0.00    -0.152 NA
ATOM      9  C   UNL d   1      33.234  19.081 -21.498  0.00  0.00     0.303 A 
ATOM     10  O   UNL d   1      33.221  19.882 -19.464  0.00  0.00    -0.244 OA
ATOM     11  O   UNL d   1      33.240  18.352 -21.881  0.00  0.00    -0.263 OA
ATOM     12  C   UNL d   1      33.215  21.264 -20.353  0.00  0.00     0.105 C 
ENDROOT
BRANCH   5  13
ATOM     13  C   UNL d   1      33.239  19.337 -23.345  0.00  0.00     0.105 C 
BRANCH  13  14
ATOM     14  C   UNL d   1      32.526  19.009 -23.613  0.00  0.00     0.058 C 
BRANCH  14  15
ATOM     15  S   UNL d   1      32.542  18.358 -24.138  0.00  0.00    -0.041 SA
BRANCH  15  16
ATOM     16  C   UNL d   1      31.866  17.887 -24.214  0.00  0.00     0.215 A 
ATOM     17  N   UNL d   1      31.929  17.075 -24.286  0.00  0.00    -0.214 NA
ATOM     18  C   UNL d   1      31.180  16.766 -24.350  0.00  0.00     0.107 A 
ATOM     19  C   UNL d   1      30.922  15.982 -24.434  0.00  0.00     0.021 A 
ATOM     20  C   UNL d   1      30.642  17.369 -24.320  0.00  0.00     0.120 A 
ATOM     21  C   UNL d   1      30.111  15.820 -24.488  0.00  0.00     0.002 A 
ATOM     22  C   UNL d   1      29.575  16.426 -24.458  0.00  0.00     0.002 A 
ATOM     23  C   UNL d   1      29.842  17.204 -24.374  0.00  0.00     0.026 A 
ATOM     24  O   UNL d   1      31.071  18.080 -24.234  0.00  0.00    -0.283 OA
ENDBRANCH  15  16
ENDBRANCH  14  15
ENDBRANCH  13  14
ENDBRANCH   5  13
BRANCH   4  25
ATOM     25  N   UNL d   1      33.228  21.153 -23.572  0.00  0.00    -0.139 N 
ATOM     26  C   UNL d   1      33.234  21.975 -23.561  0.00  0.00     0.098 A 
ATOM     27  C   UNL d   1      33.234  22.403 -24.267  0.00  0.00     0.018 A 
ATOM     28  C   UNL d   1      33.240  23.234 -24.279  0.00  0.00     0.002 C 
ATOM     29  C   UNL d   1      33.228  22.005 -24.985  0.00  0.00     0.003 A 
ATOM     30  C   UNL d   1      33.222  21.177 -25.004  0.00  0.00     0.020 A 
ATOM     31  C   UNL d   1      33.222  20.752 -24.286  0.00  0.00     0.098 A 
ENDBRANCH   4  25
TORSDOF 5
ENDMDL
