MODEL 1
REMARK VINA RESULT:      47.6      0.000      0.000
REMARK  5 active torsions:
REMARK  status: ('A' for Active; 'I' for Inactive)
REMARK    1  A    between atoms: C_6  and  N_1 
REMARK    2  A    between atoms: C_5  and  C_6 
REMARK       I    between atoms: N_7  and  C_5 
REMARK    3  A    between atoms: C_8  and  N_7 
REMARK    4  A    between atoms: O_19  and  C_9 
REMARK    5  A    between atoms: O_20  and  C_17 
ROOT
ATOM      1  C   UNL d   1     -55.782-100.433 -44.435  0.00  0.00     0.297 C 
ATOM      2  N   UNL d   1     -56.150 -99.832 -44.006  0.00  0.00    -0.205 NA
ATOM      3  O   UNL d   1     -56.163-100.765 -45.088  0.00  0.00    -0.264 OA
ENDROOT
BRANCH   1   4
ATOM      4  C   UNL d   1     -55.038-100.701 -44.214  0.00  0.00     0.148 C 
BRANCH   4   5
ATOM      5  N   UNL d   1     -54.958-101.425 -43.827  0.00  0.00    -0.235 N 
ATOM      6  C   UNL d   1     -54.875-101.442 -42.997  0.00  0.00     0.273 A 
ATOM      7  C   UNL d   1     -54.794-102.166 -42.610  0.00  0.00     0.086 A 
ATOM      8  O   UNL d   1     -54.874-100.731 -42.568  0.00  0.00    -0.266 OA
ATOM      9  C   UNL d   1     -54.711-102.191 -41.786  0.00  0.00     0.012 C 
ATOM     10  S   UNL d   1     -54.796-102.873 -43.051  0.00  0.00    -0.077 SA
ATOM     11  C   UNL d   1     -54.878-102.847 -43.864  0.00  0.00     0.097 A 
ATOM     12  C   UNL d   1     -54.958-102.123 -44.252  0.00  0.00     0.274 A 
ATOM     13  O   UNL d   1     -55.042-102.098 -45.085  0.00  0.00    -0.266 OA
ENDBRANCH   4   5
ENDBRANCH   1   4
BRANCH   2  14
ATOM     14  C   UNL d   1     -56.898 -99.564 -44.230  0.00  0.00     0.107 A 
ATOM     15  C   UNL d   1     -56.977 -99.073 -44.877  0.00  0.00     0.114 A 
ATOM     16  C   UNL d   1     -57.707 -98.805 -45.105  0.00  0.00     0.050 A 
ATOM     17  C   UNL d   1     -58.383 -99.033 -44.674  0.00  0.00     0.096 A 
ATOM     18  C   UNL d   1     -58.303 -99.524 -44.027  0.00  0.00     0.026 A 
ATOM     19  C   UNL d   1     -57.547 -99.792 -43.804  0.00  0.00     0.023 A 
BRANCH  15  20
ATOM     20  O   UNL d   1     -56.303 -98.836 -45.319  0.00  0.00    -0.327 OA
ATOM     21  C   UNL d   1     -55.570 -98.759 -44.939  0.00  0.00     0.181 C 
ENDBRANCH  15  20
BRANCH  17  22
ATOM     22  O   UNL d   1     -59.137 -98.756 -44.909  0.00  0.00    -0.328 OA
ATOM     23  C   UNL d   1     -59.770 -98.758 -44.380  0.00  0.00     0.181 C 
ENDBRANCH  17  22
ENDBRANCH   2  14
TORSDOF 5
ENDMDL
MODEL 2
REMARK VINA RESULT:      48.8      1.819      4.476
REMARK  5 active torsions:
REMARK  status: ('A' for Active; 'I' for Inactive)
REMARK    1  A    between atoms: C_6  and  N_1 
REMARK    2  A    between atoms: C_5  and  C_6 
REMARK       I    between atoms: N_7  and  C_5 
REMARK    3  A    between atoms: C_8  and  N_7 
REMARK    4  A    between atoms: O_19  and  C_9 
REMARK    5  A    between atoms: O_20  and  C_17 
ROOT
ATOM      1  C   UNL d   1     -57.003 -99.399 -43.998  0.00  0.00     0.297 C 
ATOM      2  N   UNL d   1     -56.187 -99.501 -44.063  0.00  0.00    -0.205 NA
ATOM      3  O   UNL d   1     -57.449 -99.925 -43.546  0.00  0.00    -0.264 OA
ENDROOT
BRANCH   1   4
ATOM      4  C   UNL d   1     -57.372 -98.774 -44.383  0.00  0.00     0.148 C 
BRANCH   4   5
ATOM      5  N   UNL d   1     -58.192 -98.770 -44.474  0.00  0.00    -0.235 N 
ATOM      6  C   UNL d   1     -58.523 -98.771 -45.239  0.00  0.00     0.273 A 
ATOM      7  C   UNL d   1     -59.343 -98.766 -45.329  0.00  0.00     0.086 A 
ATOM      8  O   UNL d   1     -58.025 -98.775 -45.903  0.00  0.00    -0.266 OA
ATOM      9  C   UNL d   1     -59.679 -98.766 -46.086  0.00  0.00     0.012 C 
ATOM     10  S   UNL d   1     -59.833 -98.762 -44.655  0.00  0.00    -0.077 SA
ATOM     11  C   UNL d   1     -59.500 -98.761 -43.908  0.00  0.00     0.097 A 
ATOM     12  C   UNL d   1     -58.680 -98.766 -43.817  0.00  0.00     0.274 A 
ATOM     13  O   UNL d   1     -58.340 -98.765 -43.051  0.00  0.00    -0.266 OA
ENDBRANCH   4   5
ENDBRANCH   1   4
BRANCH   2  14
ATOM     14  C   UNL d   1     -55.818-100.129 -43.675  0.00  0.00     0.107 A 
ATOM     15  C   UNL d   1     -55.776-100.861 -44.034  0.00  0.00     0.114 A 
ATOM     16  C   UNL d   1     -55.417-101.484 -43.661  0.00  0.00     0.050 A 
ATOM     17  C   UNL d   1     -55.086-101.376 -42.903  0.00  0.00     0.096 A 
ATOM     18  C   UNL d   1     -55.128-100.644 -42.545  0.00  0.00     0.026 A 
ATOM     19  C   UNL d   1     -55.501-100.012 -42.940  0.00  0.00     0.023 A 
BRANCH  15  20
ATOM     20  O   UNL d   1     -56.106-100.982 -44.797  0.00  0.00    -0.327 OA
ATOM     21  C   UNL d   1     -55.667-100.776 -45.470  0.00  0.00     0.181 C 
ENDBRANCH  15  20
BRANCH  17  22
ATOM     22  O   UNL d   1     -54.714-102.019 -42.518  0.00  0.00    -0.328 OA
ATOM     23  C   UNL d   1     -55.030-102.780 -42.570  0.00  0.00     0.181 C 
ENDBRANCH  17  22
ENDBRANCH   2  14
TORSDOF 5
ENDMDL
