MODEL 1
REMARK VINA RESULT:       3.8      0.000      0.000
REMARK  4 active torsions:
REMARK  status: ('A' for Active; 'I' for Inactive)
REMARK    1  A    between atoms: C_2  and  C_1 
REMARK    2  A    between atoms: C_3  and  C_2 
REMARK    3  A    between atoms: C_5  and  C_3 
REMARK    4  A    between atoms: O_12  and  C_7 
ROOT
ATOM      1  C   UNL d   1      44.201 -15.681  36.573  0.00  0.00     0.000 A 
ATOM      2  C   UNL d   1      45.745 -15.117  36.730  0.00  0.00     0.094 A 
ATOM      3  C   UNL d   1      44.337 -14.915  36.854  0.00  0.00     0.002 A 
ATOM      4  C   UNL d   1      44.841 -16.164  36.371  0.00  0.00     0.002 A 
ATOM      5  C   UNL d   1      45.105 -14.634  36.933  0.00  0.00     0.024 A 
ATOM      6  C   UNL d   1      45.613 -15.878  36.451  0.00  0.00     0.024 A 
ENDROOT
BRANCH   1   7
ATOM      7  C   UNL d   1      43.426 -15.957  36.497  0.00  0.00     0.006 C 
BRANCH   7   8
ATOM      8  C   UNL d   1      42.807 -15.415  36.428  0.00  0.00     0.070 C 
BRANCH   8   9
ATOM      9  C   UNL d   1      42.053 -15.621  36.677  0.00  0.00     0.211 C 
ATOM     10  O   UNL d   1      41.687 -15.192  37.275  0.00  0.00    -0.644 OA
ATOM     11  O   UNL d   1      41.665 -16.254  36.330  0.00  0.00    -0.644 OA
ENDBRANCH   8   9
ENDBRANCH   7   8
ENDBRANCH   1   7
BRANCH   2  12
ATOM     12  O   UNL d   1      46.512 -14.837  36.808  0.00  0.00    -0.328 OA
ATOM     13  C   UNL d   1      46.647 -14.035  36.936  0.00  0.00     0.181 C 
ENDBRANCH   2  12
TORSDOF 4
ENDMDL
MODEL 2
REMARK VINA RESULT:       3.9      7.355      7.969
REMARK  4 active torsions:
REMARK  status: ('A' for Active; 'I' for Inactive)
REMARK    1  A    between atoms: C_2  and  C_1 
REMARK    2  A    between atoms: C_3  and  C_2 
REMARK    3  A    between atoms: C_5  and  C_3 
REMARK    4  A    between atoms: O_12  and  C_7 
ROOT
ATOM      1  C   UNL d   1      45.410 -13.581  44.307  0.00  0.00     0.000 A 
ATOM      2  C   UNL d   1      45.609 -15.162  44.740  0.00  0.00     0.094 A 
ATOM      3  C   UNL d   1      44.751 -14.050  44.481  0.00  0.00     0.002 A 
ATOM      4  C   UNL d   1      46.169 -13.906  44.350  0.00  0.00     0.002 A 
ATOM      5  C   UNL d   1      44.850 -14.837  44.696  0.00  0.00     0.024 A 
ATOM      6  C   UNL d   1      46.265 -14.698  44.568  0.00  0.00     0.024 A 
ENDROOT
BRANCH   1   7
ATOM      7  C   UNL d   1      45.303 -12.791  44.091  0.00  0.00     0.006 C 
BRANCH   7   8
ATOM      8  C   UNL d   1      45.522 -12.543  43.335  0.00  0.00     0.070 C 
BRANCH   8   9
ATOM      9  C   UNL d   1      44.957 -12.237  42.824  0.00  0.00     0.211 C 
ATOM     10  O   UNL d   1      45.154 -12.082  42.042  0.00  0.00    -0.644 OA
ATOM     11  O   UNL d   1      44.198 -12.086  43.094  0.00  0.00    -0.644 OA
ENDBRANCH   8   9
ENDBRANCH   7   8
ENDBRANCH   1   7
BRANCH   2  12
ATOM     12  O   UNL d   1      45.709 -15.947  44.955  0.00  0.00    -0.328 OA
ATOM     13  C   UNL d   1      45.538 -16.546  44.417  0.00  0.00     0.181 C 
ENDBRANCH   2  12
TORSDOF 4
ENDMDL
MODEL 3
REMARK VINA RESULT:       6.0      7.164      7.632
REMARK  4 active torsions:
REMARK  status: ('A' for Active; 'I' for Inactive)
REMARK    1  A    between atoms: C_2  and  C_1 
REMARK    2  A    between atoms: C_3  and  C_2 
REMARK    3  A    between atoms: C_5  and  C_3 
REMARK    4  A    between atoms: O_12  and  C_7 
ROOT
ATOM      1  C   UNL d   1      46.627 -19.161  42.327  0.00  0.00     0.000 A 
ATOM      2  C   UNL d   1      46.591 -19.857  43.824  0.00  0.00     0.094 A 
ATOM      3  C   UNL d   1      46.593 -18.688  43.004  0.00  0.00     0.002 A 
ATOM      4  C   UNL d   1      46.643 -19.985  42.401  0.00  0.00     0.002 A 
ATOM      5  C   UNL d   1      46.575 -19.034  43.749  0.00  0.00     0.024 A 
ATOM      6  C   UNL d   1      46.625 -20.330  43.153  0.00  0.00     0.024 A 
ENDROOT
BRANCH   1   7
ATOM      7  C   UNL d   1      46.645 -18.807  41.581  0.00  0.00     0.006 C 
BRANCH   7   8
ATOM      8  C   UNL d   1      45.970 -18.427  41.296  0.00  0.00     0.070 C 
BRANCH   8   9
ATOM      9  C   UNL d   1      45.907 -18.247  40.497  0.00  0.00     0.211 C 
ATOM     10  O   UNL d   1      45.166 -18.135  40.160  0.00  0.00    -0.644 OA
ATOM     11  O   UNL d   1      46.582 -18.180  40.038  0.00  0.00    -0.644 OA
ENDBRANCH   8   9
ENDBRANCH   7   8
ENDBRANCH   1   7
BRANCH   2  12
ATOM     12  O   UNL d   1      46.573 -20.203  44.567  0.00  0.00    -0.328 OA
ATOM     13  C   UNL d   1      45.855 -20.317  44.952  0.00  0.00     0.181 C 
ENDBRANCH   2  12
TORSDOF 4
ENDMDL
