MODEL 1
REMARK VINA RESULT:       0.8      0.000      0.000
REMARK  4 active torsions:
REMARK  status: ('A' for Active; 'I' for Inactive)
REMARK    1  A    between atoms: N_6  and  C_2 
REMARK    2  A    between atoms: N_8  and  C_3 
REMARK    3  A    between atoms: C_10  and  N_8 
REMARK    4  A    between atoms: C_14  and  C_10 
ROOT
ATOM      1  N   UNL d   1     -41.628-122.684 -52.192  0.00  0.00    -0.041 NA
ATOM      2  C   UNL d   1     -41.613-122.257 -52.908  0.00  0.00     0.737 A 
ATOM      3  C   UNL d   1     -41.512-122.289 -51.472  0.00  0.00     0.182 A 
ATOM      4  N   UNL d   1     -41.482-121.433 -52.898  0.00  0.00    -0.060 NA
ATOM      5  C   UNL d   1     -41.382-121.470 -51.464  0.00  0.00     0.055 A 
ATOM      6  C   UNL d   1     -41.367-121.043 -52.170  0.00  0.00     0.103 A 
ATOM      7  C   UNL d   1     -41.267-121.074 -50.743  0.00  0.00     0.005 A 
ATOM      8  C   UNL d   1     -41.236-120.216 -52.163  0.00  0.00     0.020 A 
ATOM      9  C   UNL d   1     -41.138-120.267 -50.732  0.00  0.00     0.000 A 
ATOM     10  C   UNL d   1     -41.123-119.835 -51.446  0.00  0.00     0.002 A 
ENDROOT
BRANCH   3  11
ATOM     11  N   UNL d   1     -41.527-122.727 -50.729  0.00  0.00    -0.225 NA
BRANCH  11  12
ATOM     12  C   UNL d   1     -42.087-123.204 -50.536  0.00  0.00     0.101 C 
BRANCH  12  13
ATOM     13  C   UNL d   1     -42.184-123.398 -49.804  0.00  0.00     0.019 A 
ATOM     14  C   UNL d   1     -41.592-123.622 -49.399  0.00  0.00     0.002 A 
ATOM     15  C   UNL d   1     -41.690-123.814 -48.674  0.00  0.00     0.000 A 
ATOM     16  C   UNL d   1     -42.379-123.781 -48.359  0.00  0.00     0.000 A 
ATOM     17  C   UNL d   1     -42.974-123.552 -48.784  0.00  0.00     0.000 A 
ATOM     18  C   UNL d   1     -42.869-123.362 -49.504  0.00  0.00     0.002 A 
ENDBRANCH  12  13
ENDBRANCH  11  12
ENDBRANCH   3  11
BRANCH   2  19
ATOM     19  N   UNL d   1     -41.732-122.664 -53.653  0.00  0.00    -0.133 N 
ATOM     20  C   UNL d   1     -41.176-123.269 -53.900  0.00  0.00     0.125 A 
ATOM     21  C   UNL d   1     -41.289-123.676 -54.636  0.00  0.00     0.142 A 
ATOM     22  O   UNL d   1     -41.954-123.484 -55.129  0.00  0.00    -0.300 OA
ATOM     23  C   UNL d   1     -42.511-122.880 -54.882  0.00  0.00     0.142 A 
ATOM     24  C   UNL d   1     -42.400-122.470 -54.143  0.00  0.00     0.125 A 
ENDBRANCH   2  19
TORSDOF 4
ENDMDL
