MODEL 1
REMARK VINA RESULT:      18.0      0.000      0.000
REMARK  2 active torsions:
REMARK  status: ('A' for Active; 'I' for Inactive)
REMARK    1  A    between atoms: C_4  and  C_1 
REMARK       I    between atoms: N_8  and  C_4 
REMARK    2  A    between atoms: O_12  and  C_11 
ROOT
ATOM      1  C   UNL d   1     -52.363  24.584  33.314  0.00  0.00     0.120 A 
ATOM      2  C   UNL d   1     -51.557  24.404  33.313  0.00  0.00     0.305 A 
ATOM      3  O   UNL d   1     -50.995  25.019  33.310  0.00  0.00    -0.271 OA
ATOM      4  C   UNL d   1     -52.618  25.377  33.313  0.00  0.00     0.012 A 
ATOM      5  C   UNL d   1     -51.240  25.798  33.309  0.00  0.00     0.125 A 
ATOM      6  C   UNL d   1     -52.053  25.980  33.311  0.00  0.00     0.025 A 
ATOM      7  O   UNL d   1     -51.308  23.623  33.314  0.00  0.00    -0.259 OA
ATOM      8  C   UNL d   1     -50.690  26.416  33.307  0.00  0.00     0.117 A 
ATOM      9  C   UNL d   1     -52.302  26.768  33.310  0.00  0.00     0.002 A 
ATOM     10  C   UNL d   1     -51.741  27.371  33.307  0.00  0.00     0.002 A 
ATOM     11  C   UNL d   1     -50.939  27.196  33.306  0.00  0.00     0.026 A 
ENDROOT
BRANCH   1  12
ATOM     12  C   UNL d   1     -52.915  23.979  33.316  0.00  0.00     0.270 C 
ATOM     13  N   UNL d   1     -53.716  24.148  33.327  0.00  0.00    -0.269 N 
ATOM     14  C   UNL d   1     -53.963  24.931  33.335  0.00  0.00     0.102 C 
ATOM     15  C   UNL d   1     -54.269  23.544  33.329  0.00  0.00     0.102 C 
ATOM     16  O   UNL d   1     -52.669  23.196  33.308  0.00  0.00    -0.266 OA
ENDBRANCH   1  12
BRANCH   8  17
ATOM     17  O   UNL d   1     -49.888  26.241  33.306  0.00  0.00    -0.326 OA
ATOM     18  C   UNL d   1     -49.354  26.760  33.646  0.00  0.00     0.181 C 
ENDBRANCH   8  17
TORSDOF 2
ENDMDL
