MODEL 1
REMARK VINA RESULT:      -0.8      0.000      0.000
REMARK  5 active torsions:
REMARK  status: ('A' for Active; 'I' for Inactive)
REMARK    1  A    between atoms: C_11  and  N_1 
REMARK    2  A    between atoms: C_15  and  C_3 
REMARK    3  A    between atoms: N_4  and  C_7 
REMARK    4  A    between atoms: C_9  and  C_10 
REMARK       I    between atoms: C_10  and  N_12 
REMARK    5  A    between atoms: N_12  and  C_15 
ROOT
ATOM      1  C   UNL d   1      32.981  20.851 -22.503  0.00  0.00     0.141 C 
ENDROOT
BRANCH   1   2
ATOM      2  N   UNL d   1      32.989  20.256 -23.076  0.00  0.00    -0.203 NA
ATOM      3  C   UNL d   1      33.021  19.462 -22.840  0.00  0.00     0.279 C 
ATOM      4  O   UNL d   1      33.044  19.274 -22.054  0.00  0.00    -0.265 OA
BRANCH   3   5
ATOM      5  C   UNL d   1      33.029  18.867 -23.422  0.00  0.00     0.059 A 
ATOM      6  C   UNL d   1      32.834  18.091 -23.215  0.00  0.00     0.027 A 
ATOM      7  C   UNL d   1      32.842  17.513 -23.784  0.00  0.00     0.127 A 
ATOM      8  C   UNL d   1      32.636  17.925 -22.433  0.00  0.00     0.002 C 
ATOM      9  C   UNL d   1      33.044  17.688 -24.574  0.00  0.00     0.024 A 
ATOM     10  C   UNL d   1      33.239  18.457 -24.789  0.00  0.00     0.002 A 
ATOM     11  C   UNL d   1      33.231  19.039 -24.220  0.00  0.00     0.005 A 
BRANCH   7  12
ATOM     12  N   UNL d   1      32.648  16.748 -23.568  0.00  0.00    -0.114 N 
ATOM     13  O   UNL d   1      33.236  16.180 -23.443  0.00  0.00    -0.532 OA
ATOM     14  O   UNL d   1      31.849  16.533 -23.472  0.00  0.00    -0.532 OA
ENDBRANCH   7  12
ENDBRANCH   3   5
ENDBRANCH   1   2
BRANCH   1  15
ATOM     15  C   UNL d   1      32.859  21.638 -22.726  0.00  0.00     0.191 A 
ATOM     16  N   UNL d   1      32.674  22.267 -22.230  0.00  0.00    -0.264 N 
ATOM     17  C   UNL d   1      32.600  22.949 -22.675  0.00  0.00     0.227 A 
ATOM     18  N   UNL d   1      32.742  22.749 -23.473  0.00  0.00    -0.117 NA
ATOM     19  S   UNL d   1      32.420  23.701 -22.398  0.00  0.00    -0.036 SA
ATOM     20  N   UNL d   1      32.903  21.932 -23.505  0.00  0.00    -0.126 NA
BRANCH  16  21
ATOM     21  C   UNL d   1      32.578  22.216 -21.407  0.00  0.00     0.068 A 
ATOM     22  C   UNL d   1      33.241  22.281 -20.918  0.00  0.00     0.020 A 
ATOM     23  C   UNL d   1      33.133  22.229 -20.101  0.00  0.00     0.031 A 
ATOM     24  C   UNL d   1      32.386  22.115 -19.772  0.00  0.00     0.140 A 
ATOM     25  C   UNL d   1      31.730  22.052 -20.276  0.00  0.00     0.031 A 
ATOM     26  F   UNL d   1      32.292  22.065 -18.962  0.00  0.00    -0.204 F 
ATOM     27  C   UNL d   1      31.826  22.103 -21.094  0.00  0.00     0.020 A 
ENDBRANCH  16  21
ENDBRANCH   1  15
TORSDOF 5
ENDMDL
MODEL 2
REMARK VINA RESULT:       0.1      1.658      2.314
REMARK  5 active torsions:
REMARK  status: ('A' for Active; 'I' for Inactive)
REMARK    1  A    between atoms: C_11  and  N_1 
REMARK    2  A    between atoms: C_15  and  C_3 
REMARK    3  A    between atoms: N_4  and  C_7 
REMARK    4  A    between atoms: C_9  and  C_10 
REMARK       I    between atoms: C_10  and  N_12 
REMARK    5  A    between atoms: N_12  and  C_15 
ROOT
ATOM      1  C   UNL d   1      32.922  20.031 -22.385  0.00  0.00     0.141 C 
ENDROOT
BRANCH   1   2
ATOM      2  N   UNL d   1      32.916  19.209 -22.470  0.00  0.00    -0.203 NA
ATOM      3  C   UNL d   1      32.786  18.877 -23.219  0.00  0.00     0.279 C 
ATOM      4  O   UNL d   1      32.666  19.356 -23.859  0.00  0.00    -0.265 OA
BRANCH   3   5
ATOM      5  C   UNL d   1      32.782  18.049 -23.298  0.00  0.00     0.059 A 
ATOM      6  C   UNL d   1      32.321  17.698 -23.888  0.00  0.00     0.027 A 
ATOM      7  C   UNL d   1      32.318  16.891 -23.964  0.00  0.00     0.127 A 
ATOM      8  C   UNL d   1      31.875  18.180 -24.385  0.00  0.00     0.002 C 
ATOM      9  C   UNL d   1      32.772  16.408 -23.457  0.00  0.00     0.024 A 
ATOM     10  C   UNL d   1      33.233  16.748 -22.868  0.00  0.00     0.002 A 
ATOM     11  C   UNL d   1      33.238  17.558 -22.790  0.00  0.00     0.005 A 
BRANCH   7  12
ATOM     12  N   UNL d   1      31.859  16.553 -24.551  0.00  0.00    -0.114 N 
ATOM     13  O   UNL d   1      31.148  16.904 -24.788  0.00  0.00    -0.532 OA
ATOM     14  O   UNL d   1      32.105  15.848 -24.919  0.00  0.00    -0.532 OA
ENDBRANCH   7  12
ENDBRANCH   3   5
ENDBRANCH   1   2
BRANCH   1  15
ATOM     15  C   UNL d   1      33.032  20.368 -21.637  0.00  0.00     0.191 A 
ATOM     16  N   UNL d   1      33.053  21.170 -21.458  0.00  0.00    -0.264 N 
ATOM     17  C   UNL d   1      33.174  21.263 -20.654  0.00  0.00     0.227 A 
ATOM     18  N   UNL d   1      33.230  20.502 -20.315  0.00  0.00    -0.117 NA
ATOM     19  S   UNL d   1      33.231  21.972 -20.243  0.00  0.00    -0.036 SA
ATOM     20  N   UNL d   1      33.142  19.945 -20.928  0.00  0.00    -0.126 NA
BRANCH  16  21
ATOM     21  C   UNL d   1      32.966  21.787 -22.006  0.00  0.00     0.068 A 
ATOM     22  C   UNL d   1      32.605  22.491 -21.769  0.00  0.00     0.020 A 
ATOM     23  C   UNL d   1      32.524  23.097 -22.322  0.00  0.00     0.031 A 
ATOM     24  C   UNL d   1      32.794  23.012 -23.096  0.00  0.00     0.140 A 
ATOM     25  C   UNL d   1      33.155  22.299 -23.320  0.00  0.00     0.031 A 
ATOM     26  F   UNL d   1      32.708  23.619 -23.636  0.00  0.00    -0.204 F 
ATOM     27  C   UNL d   1      33.241  21.686 -22.775  0.00  0.00     0.020 A 
ENDBRANCH  16  21
ENDBRANCH   1  15
TORSDOF 5
ENDMDL
MODEL 3
REMARK VINA RESULT:       1.1      2.803      5.266
REMARK  5 active torsions:
REMARK  status: ('A' for Active; 'I' for Inactive)
REMARK    1  A    between atoms: C_11  and  N_1 
REMARK    2  A    between atoms: C_15  and  C_3 
REMARK    3  A    between atoms: N_4  and  C_7 
REMARK    4  A    between atoms: C_9  and  C_10 
REMARK       I    between atoms: C_10  and  N_12 
REMARK    5  A    between atoms: N_12  and  C_15 
ROOT
ATOM      1  C   UNL d   1      32.048  18.328 -23.264  0.00  0.00     0.141 C 
ENDROOT
BRANCH   1   2
ATOM      2  N   UNL d   1      32.315  19.110 -23.276  0.00  0.00    -0.203 NA
ATOM      3  C   UNL d   1      32.439  19.510 -22.561  0.00  0.00     0.279 C 
ATOM      4  O   UNL d   1      32.299  19.136 -21.858  0.00  0.00    -0.265 OA
BRANCH   3   5
ATOM      5  C   UNL d   1      32.708  20.297 -22.579  0.00  0.00     0.059 A 
ATOM      6  C   UNL d   1      32.724  20.740 -21.880  0.00  0.00     0.027 A 
ATOM      7  C   UNL d   1      32.986  21.507 -21.901  0.00  0.00     0.127 A 
ATOM      8  C   UNL d   1      32.472  20.388 -21.180  0.00  0.00     0.002 C 
ATOM      9  C   UNL d   1      33.240  21.857 -22.614  0.00  0.00     0.024 A 
ATOM     10  C   UNL d   1      33.227  21.425 -23.313  0.00  0.00     0.002 A 
ATOM     11  C   UNL d   1      32.964  20.655 -23.295  0.00  0.00     0.005 A 
BRANCH   7  12
ATOM     12  N   UNL d   1      32.998  21.935 -21.204  0.00  0.00    -0.114 N 
ATOM     13  O   UNL d   1      32.939  21.556 -20.471  0.00  0.00    -0.532 OA
ATOM     14  O   UNL d   1      33.071  22.764 -21.227  0.00  0.00    -0.532 OA
ENDBRANCH   7  12
ENDBRANCH   3   5
ENDBRANCH   1   2
BRANCH   1  15
ATOM     15  C   UNL d   1      32.369  17.774 -23.788  0.00  0.00     0.191 A 
ATOM     16  N   UNL d   1      31.972  17.153 -24.151  0.00  0.00    -0.264 N 
ATOM     17  C   UNL d   1      32.494  16.740 -24.626  0.00  0.00     0.227 A 
ATOM     18  N   UNL d   1      33.240  17.108 -24.564  0.00  0.00    -0.117 NA
ATOM     19  S   UNL d   1      32.325  16.080 -25.086  0.00  0.00    -0.036 SA
ATOM     20  N   UNL d   1      33.163  17.752 -24.042  0.00  0.00    -0.126 NA
BRANCH  16  21
ATOM     21  C   UNL d   1      31.167  16.973 -24.049  0.00  0.00     0.068 A 
ATOM     22  C   UNL d   1      30.602  17.392 -24.484  0.00  0.00     0.020 A 
ATOM     23  C   UNL d   1      29.806  17.205 -24.375  0.00  0.00     0.031 A 
ATOM     24  C   UNL d   1      29.570  16.617 -23.848  0.00  0.00     0.140 A 
ATOM     25  C   UNL d   1      30.149  16.206 -23.419  0.00  0.00     0.031 A 
ATOM     26  F   UNL d   1      28.779  16.441 -23.748  0.00  0.00    -0.204 F 
ATOM     27  C   UNL d   1      30.949  16.384 -23.520  0.00  0.00     0.020 A 
ENDBRANCH  16  21
ENDBRANCH   1  15
TORSDOF 5
ENDMDL
MODEL 4
REMARK VINA RESULT:       1.3      2.425      4.926
REMARK  5 active torsions:
REMARK  status: ('A' for Active; 'I' for Inactive)
REMARK    1  A    between atoms: C_11  and  N_1 
REMARK    2  A    between atoms: C_15  and  C_3 
REMARK    3  A    between atoms: N_4  and  C_7 
REMARK    4  A    between atoms: C_9  and  C_10 
REMARK       I    between atoms: C_10  and  N_12 
REMARK    5  A    between atoms: N_12  and  C_15 
ROOT
ATOM      1  C   UNL d   1      32.746  20.190 -22.260  0.00  0.00     0.141 C 
ENDROOT
BRANCH   1   2
ATOM      2  N   UNL d   1      32.844  20.904 -21.856  0.00  0.00    -0.203 NA
ATOM      3  C   UNL d   1      32.226  21.196 -21.386  0.00  0.00     0.279 C 
ATOM      4  O   UNL d   1      31.533  20.782 -21.326  0.00  0.00    -0.265 OA
BRANCH   3   5
ATOM      5  C   UNL d   1      32.330  21.915 -20.982  0.00  0.00     0.059 A 
ATOM      6  C   UNL d   1      32.580  21.908 -20.193  0.00  0.00     0.027 A 
ATOM      7  C   UNL d   1      32.681  22.610 -19.801  0.00  0.00     0.127 A 
ATOM      8  C   UNL d   1      32.720  21.184 -19.826  0.00  0.00     0.002 C 
ATOM      9  C   UNL d   1      32.537  23.340 -20.179  0.00  0.00     0.024 A 
ATOM     10  C   UNL d   1      32.289  23.357 -20.962  0.00  0.00     0.002 A 
ATOM     11  C   UNL d   1      32.187  22.653 -21.358  0.00  0.00     0.005 A 
BRANCH   7  12
ATOM     12  N   UNL d   1      32.928  22.592 -19.022  0.00  0.00    -0.114 N 
ATOM     13  O   UNL d   1      33.216  21.893 -18.684  0.00  0.00    -0.532 OA
ATOM     14  O   UNL d   1      32.892  23.282 -18.557  0.00  0.00    -0.532 OA
ENDBRANCH   7  12
ENDBRANCH   3   5
ENDBRANCH   1   2
BRANCH   1  15
ATOM     15  C   UNL d   1      32.872  20.157 -23.077  0.00  0.00     0.191 A 
ATOM     16  N   UNL d   1      32.849  19.486 -23.551  0.00  0.00    -0.264 N 
ATOM     17  C   UNL d   1      33.005  19.699 -24.326  0.00  0.00     0.227 A 
ATOM     18  N   UNL d   1      33.129  20.524 -24.343  0.00  0.00    -0.117 NA
ATOM     19  S   UNL d   1      33.035  19.198 -24.977  0.00  0.00    -0.036 SA
ATOM     20  N   UNL d   1      33.046  20.809 -23.565  0.00  0.00    -0.126 NA
BRANCH  16  21
ATOM     21  C   UNL d   1      32.693  18.716 -23.285  0.00  0.00     0.068 A 
ATOM     22  C   UNL d   1      33.232  18.345 -22.780  0.00  0.00     0.020 A 
ATOM     23  C   UNL d   1      33.067  17.579 -22.522  0.00  0.00     0.031 A 
ATOM     24  C   UNL d   1      32.383  17.185 -22.757  0.00  0.00     0.140 A 
ATOM     25  C   UNL d   1      31.850  17.570 -23.264  0.00  0.00     0.031 A 
ATOM     26  F   UNL d   1      32.229  16.426 -22.495  0.00  0.00    -0.204 F 
ATOM     27  C   UNL d   1      32.006  18.336 -23.529  0.00  0.00     0.020 A 
ENDBRANCH  16  21
ENDBRANCH   1  15
TORSDOF 5
ENDMDL
