MODEL 1
REMARK VINA RESULT:      32.8      0.000      0.000
REMARK  1 active torsions:
REMARK  status: ('A' for Active; 'I' for Inactive)
REMARK    1  A    between atoms: C_13  and  N_3 
ROOT
ATOM      1  C   UNL d   1      14.541  13.196  -1.312  0.00  0.00     0.166 A 
ATOM      2  C   UNL d   1      14.350  13.638  -1.977  0.00  0.00     0.117 A 
ATOM      3  N   UNL d   1      14.301  12.419  -1.473  0.00  0.00    -0.289 N 
ATOM      4  C   UNL d   1      14.004  13.158  -2.529  0.00  0.00     0.038 A 
ATOM      5  N   UNL d   1      14.905  13.542  -0.650  0.00  0.00    -0.225 NA
ATOM      6  C   UNL d   1      13.974  12.397  -2.215  0.00  0.00     0.067 A 
ATOM      7  N   UNL d   1      14.534  14.445  -1.961  0.00  0.00    -0.241 NA
ATOM      8  C   UNL d   1      15.077  14.331  -0.653  0.00  0.00     0.101 A 
ATOM      9  C   UNL d   1      14.886  14.783  -1.321  0.00  0.00     0.099 A 
ATOM     10  C   UNL d   1      13.646  11.780  -2.658  0.00  0.00     0.018 A 
ATOM     11  C   UNL d   1      13.707  13.299  -3.286  0.00  0.00     0.015 A 
ATOM     12  C   UNL d   1      13.380  12.687  -3.730  0.00  0.00     0.058 A 
ATOM     13  C   UNL d   1      13.349  11.927  -3.416  0.00  0.00     0.013 A 
ATOM     14 CL   UNL d   1      13.082  12.828  -4.486  0.00  0.00    -0.082 Cl
ATOM     15  C   UNL d   1      15.430  14.677  -0.014  0.00  0.00     0.021 A 
ATOM     16  C   UNL d   1      15.058  15.581  -1.327  0.00  0.00     0.021 A 
ATOM     17  C   UNL d   1      15.602  15.499  -0.034  0.00  0.00     0.002 A 
ATOM     18  C   UNL d   1      15.423  15.955  -0.676  0.00  0.00     0.002 A 
ENDROOT
BRANCH   3  19
ATOM     19  C   UNL d   1      14.382  11.792  -0.970  0.00  0.00     0.082 C 
ATOM     20  C   UNL d   1      13.930  11.792  -0.256  0.00  0.00     0.021 C 
ENDBRANCH   3  19
TORSDOF 1
ENDMDL
MODEL 2
REMARK VINA RESULT:      34.3      1.500      3.805
REMARK  1 active torsions:
REMARK  status: ('A' for Active; 'I' for Inactive)
REMARK    1  A    between atoms: C_13  and  N_3 
ROOT
ATOM      1  C   UNL d   1      14.061  13.574  -2.854  0.00  0.00     0.166 A 
ATOM      2  C   UNL d   1      14.066  12.810  -2.556  0.00  0.00     0.117 A 
ATOM      3  N   UNL d   1      14.419  14.051  -2.278  0.00  0.00    -0.289 N 
ATOM      4  C   UNL d   1      14.412  12.809  -1.824  0.00  0.00     0.038 A 
ATOM      5  N   UNL d   1      13.738  13.747  -3.601  0.00  0.00    -0.225 NA
ATOM      6  C   UNL d   1      14.632  13.583  -1.651  0.00  0.00     0.067 A 
ATOM      7  N   UNL d   1      13.735  12.216  -3.029  0.00  0.00    -0.241 NA
ATOM      8  C   UNL d   1      13.420  13.155  -4.048  0.00  0.00     0.101 A 
ATOM      9  C   UNL d   1      13.422  12.380  -3.751  0.00  0.00     0.099 A 
ATOM     10  C   UNL d   1      15.004  13.757  -0.932  0.00  0.00     0.018 A 
ATOM     11  C   UNL d   1      14.564  12.210  -1.278  0.00  0.00     0.015 A 
ATOM     12  C   UNL d   1      14.934  12.378  -0.561  0.00  0.00     0.058 A 
ATOM     13  C   UNL d   1      15.154  13.152  -0.388  0.00  0.00     0.013 A 
ATOM     14 CL   UNL d   1      15.085  11.779  -0.015  0.00  0.00    -0.082 Cl
ATOM     15  C   UNL d   1      13.104  13.312  -4.774  0.00  0.00     0.021 A 
ATOM     16  C   UNL d   1      13.102  11.779  -4.202  0.00  0.00     0.021 A 
ATOM     17  C   UNL d   1      12.778  12.684  -5.226  0.00  0.00     0.002 A 
ATOM     18  C   UNL d   1      12.771  11.923  -4.954  0.00  0.00     0.002 A 
ENDROOT
BRANCH   3  19
ATOM     19  C   UNL d   1      14.533  14.848  -2.338  0.00  0.00     0.082 C 
ATOM     20  C   UNL d   1      14.652  15.289  -1.627  0.00  0.00     0.021 C 
ENDBRANCH   3  19
TORSDOF 1
ENDMDL
