MODEL 1
REMARK VINA RESULT:      -9.7      0.000      0.000
REMARK  1 active torsions:
REMARK  status: ('A' for Active; 'I' for Inactive)
REMARK    1  A    between atoms: C_7  and  C_1 
ROOT
ATOM      1  C   UNL d   1     -48.786  13.740  22.945  0.00  0.00     0.062 A 
ATOM      2  C   UNL d   1     -48.748  12.964  23.187  0.00  0.00     0.199 A 
ATOM      3  C   UNL d   1     -48.106  14.184  22.821  0.00  0.00     0.103 A 
ATOM      4  C   UNL d   1     -48.002  12.597  23.317  0.00  0.00     0.062 A 
ATOM      5  C   UNL d   1     -47.317  13.015  23.201  0.00  0.00     0.106 A 
ATOM      6  O   UNL d   1     -47.360  13.817  22.951  0.00  0.00    -0.307 OA
ATOM      7  C   UNL d   1     -46.586  12.655  23.328  0.00  0.00     0.067 A 
ATOM      8  C   UNL d   1     -47.982  11.794  23.567  0.00  0.00     0.009 A 
ATOM      9  O   UNL d   1     -49.484  12.534  23.306  0.00  0.00    -0.286 OA
ATOM     10  C   UNL d   1     -46.551  11.882  23.569  0.00  0.00     0.198 A 
ATOM     11  C   UNL d   1     -47.237  11.427  23.696  0.00  0.00     0.042 A 
ATOM     12  C   UNL d   1     -48.147  14.988  22.571  0.00  0.00     0.027 C 
ATOM     13  O   UNL d   1     -45.809  11.516  23.698  0.00  0.00    -0.286 OA
ENDROOT
BRANCH   1  14
ATOM     14  C   UNL d   1     -49.520  14.079  22.825  0.00  0.00     0.005 A 
ATOM     15  C   UNL d   1     -49.887  14.043  22.086  0.00  0.00     0.000 A 
ATOM     16  C   UNL d   1     -49.506  13.654  21.447  0.00  0.00     0.000 C 
ATOM     17  C   UNL d   1     -50.627  14.388  21.968  0.00  0.00     0.000 A 
ATOM     18  C   UNL d   1     -50.989  14.762  22.587  0.00  0.00     0.000 A 
ATOM     19  C   UNL d   1     -50.654  14.813  23.321  0.00  0.00     0.000 A 
ATOM     20  C   UNL d   1     -49.904  14.465  23.444  0.00  0.00     0.000 A 
ENDBRANCH   1  14
TORSDOF 1
ENDMDL
MODEL 2
REMARK VINA RESULT:      -9.7      0.823      1.515
REMARK  1 active torsions:
REMARK  status: ('A' for Active; 'I' for Inactive)
REMARK    1  A    between atoms: C_7  and  C_1 
ROOT
ATOM      1  C   UNL d   1     -49.065  12.838  22.936  0.00  0.00     0.062 A 
ATOM      2  C   UNL d   1     -48.332  13.156  22.783  0.00  0.00     0.199 A 
ATOM      3  C   UNL d   1     -49.146  12.114  23.317  0.00  0.00     0.103 A 
ATOM      4  C   UNL d   1     -47.634  12.746  23.016  0.00  0.00     0.062 A 
ATOM      5  C   UNL d   1     -47.691  12.031  23.393  0.00  0.00     0.106 A 
ATOM      6  O   UNL d   1     -48.449  11.705  23.549  0.00  0.00    -0.307 OA
ATOM      7  C   UNL d   1     -47.007  11.629  23.621  0.00  0.00     0.067 A 
ATOM      8  C   UNL d   1     -46.886  13.091  22.849  0.00  0.00     0.009 A 
ATOM      9  O   UNL d   1     -48.290  13.916  22.382  0.00  0.00    -0.286 OA
ATOM     10  C   UNL d   1     -46.278  11.949  23.467  0.00  0.00     0.198 A 
ATOM     11  C   UNL d   1     -46.189  12.682  23.081  0.00  0.00     0.042 A 
ATOM     12  C   UNL d   1     -49.906  11.785  23.474  0.00  0.00     0.027 C 
ATOM     13  O   UNL d   1     -45.584  11.541  23.698  0.00  0.00    -0.286 OA
ENDROOT
BRANCH   1  14
ATOM     14  C   UNL d   1     -49.730  13.251  22.703  0.00  0.00     0.005 A 
ATOM     15  C   UNL d   1     -50.082  13.108  21.969  0.00  0.00     0.000 A 
ATOM     16  C   UNL d   1     -49.756  12.532  21.453  0.00  0.00     0.000 C 
ATOM     17  C   UNL d   1     -50.754  13.527  21.738  0.00  0.00     0.000 A 
ATOM     18  C   UNL d   1     -51.064  14.080  22.240  0.00  0.00     0.000 A 
ATOM     19  C   UNL d   1     -50.742  14.241  22.963  0.00  0.00     0.000 A 
ATOM     20  C   UNL d   1     -50.061  13.819  23.201  0.00  0.00     0.000 A 
ENDBRANCH   1  14
TORSDOF 1
ENDMDL
MODEL 3
REMARK VINA RESULT:      -8.8      1.226      3.821
REMARK  1 active torsions:
REMARK  status: ('A' for Active; 'I' for Inactive)
REMARK    1  A    between atoms: C_7  and  C_1 
ROOT
ATOM      1  C   UNL d   1     -47.904  13.381  22.508  0.00  0.00     0.062 A 
ATOM      2  C   UNL d   1     -48.083  14.096  22.851  0.00  0.00     0.199 A 
ATOM      3  C   UNL d   1     -48.450  12.981  22.042  0.00  0.00     0.103 A 
ATOM      4  C   UNL d   1     -48.840  14.446  22.735  0.00  0.00     0.062 A 
ATOM      5  C   UNL d   1     -49.395  14.069  22.279  0.00  0.00     0.106 A 
ATOM      6  O   UNL d   1     -49.207  13.330  21.926  0.00  0.00    -0.307 OA
ATOM      7  C   UNL d   1     -50.137  14.412  22.165  0.00  0.00     0.067 A 
ATOM      8  C   UNL d   1     -49.006  15.185  23.098  0.00  0.00     0.009 A 
ATOM      9  O   UNL d   1     -47.482  14.482  23.332  0.00  0.00    -0.286 OA
ATOM     10  C   UNL d   1     -50.312  15.125  22.509  0.00  0.00     0.198 A 
ATOM     11  C   UNL d   1     -49.762  15.534  22.982  0.00  0.00     0.042 A 
ATOM     12  C   UNL d   1     -48.264  12.240  21.687  0.00  0.00     0.027 C 
ATOM     13  O   UNL d   1     -51.064  15.472  22.393  0.00  0.00    -0.286 OA
ENDROOT
BRANCH   1  14
ATOM     14  C   UNL d   1     -47.164  13.058  22.632  0.00  0.00     0.005 A 
ATOM     15  C   UNL d   1     -47.043  12.489  23.219  0.00  0.00     0.000 A 
ATOM     16  C   UNL d   1     -47.686  12.237  23.697  0.00  0.00     0.000 C 
ATOM     17  C   UNL d   1     -46.294  12.165  23.342  0.00  0.00     0.000 A 
ATOM     18  C   UNL d   1     -45.679  12.412  22.879  0.00  0.00     0.000 A 
ATOM     19  C   UNL d   1     -45.767  12.966  22.297  0.00  0.00     0.000 A 
ATOM     20  C   UNL d   1     -46.524  13.297  22.170  0.00  0.00     0.000 A 
ENDBRANCH   1  14
TORSDOF 1
ENDMDL
MODEL 4
REMARK VINA RESULT:      -7.9      1.445      3.582
REMARK  1 active torsions:
REMARK  status: ('A' for Active; 'I' for Inactive)
REMARK    1  A    between atoms: C_7  and  C_1 
ROOT
ATOM      1  C   UNL d   1     -47.347  12.678  22.700  0.00  0.00     0.062 A 
ATOM      2  C   UNL d   1     -48.013  12.949  22.320  0.00  0.00     0.199 A 
ATOM      3  C   UNL d   1     -47.394  12.123  23.304  0.00  0.00     0.103 A 
ATOM      4  C   UNL d   1     -48.774  12.663  22.541  0.00  0.00     0.062 A 
ATOM      5  C   UNL d   1     -48.845  12.115  23.135  0.00  0.00     0.106 A 
ATOM      6  O   UNL d   1     -48.154  11.837  23.525  0.00  0.00    -0.307 OA
ATOM      7  C   UNL d   1     -49.590  11.834  23.351  0.00  0.00     0.067 A 
ATOM      8  C   UNL d   1     -49.450  12.954  22.136  0.00  0.00     0.009 A 
ATOM      9  O   UNL d   1     -47.920  13.530  21.692  0.00  0.00    -0.286 OA
ATOM     10  C   UNL d   1     -50.252  12.106  22.970  0.00  0.00     0.198 A 
ATOM     11  C   UNL d   1     -50.210  12.668  22.357  0.00  0.00     0.042 A 
ATOM     12  C   UNL d   1     -46.703  11.843  23.697  0.00  0.00     0.027 C 
ATOM     13  O   UNL d   1     -51.008  11.822  23.190  0.00  0.00    -0.286 OA
ENDROOT
BRANCH   1  14
ATOM     14  C   UNL d   1     -46.618  12.967  22.471  0.00  0.00     0.005 A 
ATOM     15  C   UNL d   1     -46.337  13.687  22.763  0.00  0.00     0.000 A 
ATOM     16  C   UNL d   1     -46.804  14.132  23.302  0.00  0.00     0.000 C 
ATOM     17  C   UNL d   1     -45.600  13.976  22.530  0.00  0.00     0.000 A 
ATOM     18  C   UNL d   1     -45.156  13.544  22.012  0.00  0.00     0.000 A 
ATOM     19  C   UNL d   1     -45.404  12.836  21.709  0.00  0.00     0.000 A 
ATOM     20  C   UNL d   1     -46.150  12.541  21.943  0.00  0.00     0.000 A 
ENDBRANCH   1  14
TORSDOF 1
ENDMDL
MODEL 5
REMARK VINA RESULT:      -6.9      8.690      9.903
REMARK  1 active torsions:
REMARK  status: ('A' for Active; 'I' for Inactive)
REMARK    1  A    between atoms: C_7  and  C_1 
ROOT
ATOM      1  C   UNL d   1     -39.963  14.980  20.148  0.00  0.00     0.062 A 
ATOM      2  C   UNL d   1     -39.724  14.602  19.469  0.00  0.00     0.199 A 
ATOM      3  C   UNL d   1     -40.574  15.531  20.140  0.00  0.00     0.103 A 
ATOM      4  C   UNL d   1     -40.100  14.770  18.735  0.00  0.00     0.062 A 
ATOM      5  C   UNL d   1     -40.704  15.310  18.702  0.00  0.00     0.106 A 
ATOM      6  O   UNL d   1     -40.949  15.699  19.406  0.00  0.00    -0.307 OA
ATOM      7  C   UNL d   1     -41.073  15.475  17.983  0.00  0.00     0.067 A 
ATOM      8  C   UNL d   1     -39.839  14.370  18.044  0.00  0.00     0.009 A 
ATOM      9  O   UNL d   1     -39.082  14.032  19.521  0.00  0.00    -0.286 OA
ATOM     10  C   UNL d   1     -40.832  15.097  17.307  0.00  0.00     0.198 A 
ATOM     11  C   UNL d   1     -40.215  14.538  17.310  0.00  0.00     0.042 A 
ATOM     12  C   UNL d   1     -40.821  15.922  20.844  0.00  0.00     0.027 C 
ATOM     13  O   UNL d   1     -41.206  15.264  16.577  0.00  0.00    -0.286 OA
ENDROOT
BRANCH   1  14
ATOM     14  C   UNL d   1     -39.586  14.804  20.851  0.00  0.00     0.005 A 
ATOM     15  C   UNL d   1     -38.953  15.261  21.118  0.00  0.00     0.000 A 
ATOM     16  C   UNL d   1     -38.689  15.917  20.665  0.00  0.00     0.000 C 
ATOM     17  C   UNL d   1     -38.575  15.081  21.829  0.00  0.00     0.000 A 
ATOM     18  C   UNL d   1     -38.833  14.448  22.261  0.00  0.00     0.000 A 
ATOM     19  C   UNL d   1     -39.450  13.982  22.025  0.00  0.00     0.000 A 
ATOM     20  C   UNL d   1     -39.836  14.162  21.306  0.00  0.00     0.000 A 
ENDBRANCH   1  14
TORSDOF 1
ENDMDL
MODEL 6
REMARK VINA RESULT:      -6.8      8.810     10.260
REMARK  1 active torsions:
REMARK  status: ('A' for Active; 'I' for Inactive)
REMARK    1  A    between atoms: C_7  and  C_1 
ROOT
ATOM      1  C   UNL d   1     -40.012  14.769  18.785  0.00  0.00     0.062 A 
ATOM      2  C   UNL d   1     -39.463  14.188  18.636  0.00  0.00     0.199 A 
ATOM      3  C   UNL d   1     -40.312  15.239  18.181  0.00  0.00     0.103 A 
ATOM      4  C   UNL d   1     -39.188  14.054  17.851  0.00  0.00     0.062 A 
ATOM      5  C   UNL d   1     -39.471  14.506  17.240  0.00  0.00     0.106 A 
ATOM      6  O   UNL d   1     -40.038  15.106  17.397  0.00  0.00    -0.307 OA
ATOM      7  C   UNL d   1     -39.202  14.375  16.471  0.00  0.00     0.067 A 
ATOM      8  C   UNL d   1     -38.621  13.449  17.718  0.00  0.00     0.009 A 
ATOM      9  O   UNL d   1     -39.174  13.718  19.296  0.00  0.00    -0.286 OA
ATOM     10  C   UNL d   1     -38.654  13.794  16.326  0.00  0.00     0.198 A 
ATOM     11  C   UNL d   1     -38.347  13.315  16.934  0.00  0.00     0.042 A 
ATOM     12  C   UNL d   1     -40.881  15.841  18.337  0.00  0.00     0.027 C 
ATOM     13  O   UNL d   1     -38.381  13.661  15.546  0.00  0.00    -0.286 OA
ENDROOT
BRANCH   1  14
ATOM     14  C   UNL d   1     -40.266  14.884  19.553  0.00  0.00     0.005 A 
ATOM     15  C   UNL d   1     -39.913  15.453  20.036  0.00  0.00     0.000 A 
ATOM     16  C   UNL d   1     -39.282  15.922  19.739  0.00  0.00     0.000 C 
ATOM     17  C   UNL d   1     -40.173  15.566  20.811  0.00  0.00     0.000 A 
ATOM     18  C   UNL d   1     -40.779  15.112  21.091  0.00  0.00     0.000 A 
ATOM     19  C   UNL d   1     -41.145  14.547  20.642  0.00  0.00     0.000 A 
ATOM     20  C   UNL d   1     -40.884  14.430  19.856  0.00  0.00     0.000 A 
ENDBRANCH   1  14
TORSDOF 1
ENDMDL
