MODEL 1
REMARK VINA RESULT:      23.9      0.000      0.000
REMARK  5 active torsions:
REMARK  status: ('A' for Active; 'I' for Inactive)
REMARK    1  A    between atoms: N_8  and  C_1 
REMARK    2  A    between atoms: C_3  and  S_13 
REMARK       I    between atoms: C_12  and  N_8 
REMARK    3  A    between atoms: C_16  and  C_9 
REMARK    4  A    between atoms: C_15  and  C_12 
REMARK    5  A    between atoms: S_13  and  C_15 
ROOT
ATOM      1  C   UNL d   1     -55.249 -98.758 -44.824  0.00  0.00     0.100 C 
ENDROOT
BRANCH   1   2
ATOM      2  S   UNL d   1     -54.778 -99.357 -45.145  0.00  0.00    -0.056 SA
BRANCH   2   3
ATOM      3  C   UNL d   1     -54.764-100.091 -44.781  0.00  0.00     0.141 A 
ATOM      4  N   UNL d   1     -54.763-100.245 -43.967  0.00  0.00    -0.232 NA
ATOM      5  C   UNL d   1     -54.747-101.059 -43.848  0.00  0.00     0.088 A 
ATOM      6  C   UNL d   1     -54.739-101.532 -43.167  0.00  0.00     0.020 A 
ATOM      7  C   UNL d   1     -54.737-101.425 -44.600  0.00  0.00     0.049 A 
ATOM      8  C   UNL d   1     -54.722-102.354 -43.232  0.00  0.00     0.002 A 
ATOM      9  C   UNL d   1     -54.712-102.707 -43.972  0.00  0.00     0.001 A 
ATOM     10  C   UNL d   1     -54.719-102.239 -44.664  0.00  0.00     0.008 A 
ATOM     11  S   UNL d   1     -54.747-100.823 -45.172  0.00  0.00    -0.060 SA
ENDBRANCH   2   3
ENDBRANCH   1   2
BRANCH   1  12
ATOM     12  C   UNL d   1     -56.065 -98.782 -44.936  0.00  0.00     0.288 C 
ATOM     13  N   UNL d   1     -56.571 -98.765 -44.286  0.00  0.00    -0.181 NA
ATOM     14  O   UNL d   1     -56.380 -98.822 -45.693  0.00  0.00    -0.265 OA
BRANCH  13  15
ATOM     15  C   UNL d   1     -57.384 -98.788 -44.389  0.00  0.00     0.219 A 
ATOM     16  S   UNL d   1     -57.952 -98.755 -43.797  0.00  0.00    -0.026 SA
ATOM     17  C   UNL d   1     -58.697 -98.795 -44.149  0.00  0.00     0.135 A 
ATOM     18  N   UNL d   1     -58.584 -98.853 -44.967  0.00  0.00    -0.139 NA
ATOM     19  N   UNL d   1     -57.774 -98.848 -45.115  0.00  0.00    -0.121 NA
BRANCH  17  20
ATOM     20  C   UNL d   1     -59.425 -98.781 -43.764  0.00  0.00     0.028 C 
ATOM     21  C   UNL d   1     -59.446 -98.851 -42.939  0.00  0.00     0.002 C 
ENDBRANCH  17  20
ENDBRANCH  13  15
ENDBRANCH   1  12
TORSDOF 5
ENDMDL
MODEL 2
REMARK VINA RESULT:      26.5      1.089      1.355
REMARK  5 active torsions:
REMARK  status: ('A' for Active; 'I' for Inactive)
REMARK    1  A    between atoms: N_8  and  C_1 
REMARK    2  A    between atoms: C_3  and  S_13 
REMARK       I    between atoms: C_12  and  N_8 
REMARK    3  A    between atoms: C_16  and  C_9 
REMARK    4  A    between atoms: C_15  and  C_12 
REMARK    5  A    between atoms: S_13  and  C_15 
ROOT
ATOM      1  C   UNL d   1     -55.628 -98.776 -44.401  0.00  0.00     0.100 C 
ENDROOT
BRANCH   1   2
ATOM      2  S   UNL d   1     -55.291 -99.310 -44.934  0.00  0.00    -0.056 SA
BRANCH   2   3
ATOM      3  C   UNL d   1     -55.160-100.083 -44.694  0.00  0.00     0.141 A 
ATOM      4  N   UNL d   1     -55.108-100.754 -45.178  0.00  0.00    -0.232 NA
ATOM      5  C   UNL d   1     -54.973-101.414 -44.705  0.00  0.00     0.088 A 
ATOM      6  C   UNL d   1     -54.873-102.221 -44.873  0.00  0.00     0.020 A 
ATOM      7  C   UNL d   1     -54.939-101.156 -43.911  0.00  0.00     0.049 A 
ATOM      8  C   UNL d   1     -54.743-102.760 -44.263  0.00  0.00     0.002 A 
ATOM      9  C   UNL d   1     -54.712-102.500 -43.486  0.00  0.00     0.001 A 
ATOM     10  C   UNL d   1     -54.811-101.690 -43.306  0.00  0.00     0.008 A 
ATOM     11  S   UNL d   1     -55.056-100.334 -43.910  0.00  0.00    -0.060 SA
ENDBRANCH   2   3
ENDBRANCH   1   2
BRANCH   1  12
ATOM     12  C   UNL d   1     -56.441 -98.794 -44.271  0.00  0.00     0.288 C 
ATOM     13  N   UNL d   1     -56.961 -98.780 -44.911  0.00  0.00    -0.181 NA
ATOM     14  O   UNL d   1     -56.740 -98.826 -43.507  0.00  0.00    -0.265 OA
BRANCH  13  15
ATOM     15  C   UNL d   1     -57.772 -98.797 -44.789  0.00  0.00     0.219 A 
ATOM     16  S   UNL d   1     -58.351 -98.821 -45.371  0.00  0.00    -0.026 SA
ATOM     17  C   UNL d   1     -59.089 -98.833 -45.002  0.00  0.00     0.135 A 
ATOM     18  N   UNL d   1     -58.960 -98.816 -44.185  0.00  0.00    -0.139 NA
ATOM     19  N   UNL d   1     -58.148 -98.794 -44.054  0.00  0.00    -0.121 NA
BRANCH  17  20
ATOM     20  C   UNL d   1     -59.824 -98.857 -45.373  0.00  0.00     0.028 C 
ATOM     21  C   UNL d   1     -59.865 -98.758 -46.194  0.00  0.00     0.002 C 
ENDBRANCH  17  20
ENDBRANCH  13  15
ENDBRANCH   1  12
TORSDOF 5
ENDMDL
