MODEL 1
REMARK VINA RESULT:      37.7      0.000      0.000
REMARK  3 active torsions:
REMARK  status: ('A' for Active; 'I' for Inactive)
REMARK    1  A    between atoms: N_2  and  C_1 
REMARK       I    between atoms: C_4  and  N_2 
REMARK    2  A    between atoms: C_8  and  C_4 
REMARK    3  A    between atoms: C_10  and  C_5 
ROOT
ATOM      1  C   UNL d   1     -54.715-101.840 -41.725  0.00  0.00     0.197 A 
ATOM      2  N   UNL d   1     -54.719-101.052 -41.925  0.00  0.00    -0.221 NA
ATOM      3  C   UNL d   1     -54.723-101.045 -42.784  0.00  0.00     0.090 A 
ATOM      4  S   UNL d   1     -54.717-102.325 -42.398  0.00  0.00    -0.046 SA
ATOM      5  C   UNL d   1     -54.721-101.842 -43.048  0.00  0.00     0.058 A 
ENDROOT
BRANCH   1   6
ATOM      6  N   UNL d   1     -54.711-102.130 -40.928  0.00  0.00    -0.183 NA
ATOM      7  C   UNL d   1     -54.764-101.570 -40.299  0.00  0.00     0.281 C 
ATOM      8  O   UNL d   1     -54.819-100.758 -40.460  0.00  0.00    -0.265 OA
BRANCH   7   9
ATOM      9  C   UNL d   1     -54.763-101.816 -39.512  0.00  0.00     0.058 A 
ATOM     10  C   UNL d   1     -54.716-101.246 -38.928  0.00  0.00     0.006 A 
ATOM     11  C   UNL d   1     -54.714-101.487 -38.125  0.00  0.00     0.012 A 
ATOM     12  C   UNL d   1     -54.758-102.279 -37.914  0.00  0.00     0.058 A 
ATOM     13  C   UNL d   1     -54.805-102.857 -38.523  0.00  0.00     0.012 A 
ATOM     14 CL   UNL d   1     -54.757-102.518 -37.194  0.00  0.00    -0.082 Cl
ATOM     15  C   UNL d   1     -54.807-102.617 -39.323  0.00  0.00     0.006 A 
ENDBRANCH   7   9
ENDBRANCH   1   6
BRANCH   3  16
ATOM     16  C   UNL d   1     -54.727-100.389 -43.276  0.00  0.00     0.018 A 
ATOM     17  C   UNL d   1     -54.713 -99.625 -42.969  0.00  0.00     0.002 A 
ATOM     18  C   UNL d   1     -54.718 -98.956 -43.470  0.00  0.00     0.000 A 
ATOM     19  C   UNL d   1     -54.737 -99.077 -44.295  0.00  0.00     0.000 A 
ATOM     20  C   UNL d   1     -54.750 -99.839 -44.596  0.00  0.00     0.000 A 
ATOM     21  C   UNL d   1     -54.745-100.498 -44.081  0.00  0.00     0.002 A 
ENDBRANCH   3  16
TORSDOF 3
ENDMDL
