MODEL 1
REMARK VINA RESULT:      36.7      0.000      0.000
REMARK  4 active torsions:
REMARK  status: ('A' for Active; 'I' for Inactive)
REMARK    1  A    between atoms: C_2  and  C_1 
REMARK       I    between atoms: N_3  and  C_1 
REMARK       I    between atoms: N_4  and  C_2 
REMARK    2  A    between atoms: C_8  and  N_3 
REMARK    3  A    between atoms: C_9  and  N_4 
REMARK    4  A    between atoms: C_10  and  C_9 
ROOT
ATOM      1  C   UNL d   1      60.114  49.290  50.119  0.00  0.00     0.337 C 
ATOM      2  N   UNL d   1      60.761  49.701  50.424  0.00  0.00    -0.204 NA
ATOM      3  O   UNL d   1      59.948  49.325  49.311  0.00  0.00    -0.260 OA
ENDROOT
BRANCH   1   4
ATOM      4  C   UNL d   1      59.637  48.846  50.619  0.00  0.00     0.337 C 
ATOM      5  N   UNL d   1      58.830  49.023  50.689  0.00  0.00    -0.201 NA
ATOM      6  O   UNL d   1      59.959  48.223  51.053  0.00  0.00    -0.260 OA
BRANCH   5   7
ATOM      7  C   UNL d   1      58.508  49.646  50.255  0.00  0.00     0.121 C 
BRANCH   7   8
ATOM      8  C   UNL d   1      57.725  49.634  50.033  0.00  0.00     0.101 A 
ATOM      9  N   UNL d   1      57.529  49.668  49.232  0.00  0.00    -0.242 NA
ATOM     10  C   UNL d   1      56.737  49.656  49.000  0.00  0.00     0.099 A 
ATOM     11  C   UNL d   1      56.145  49.610  49.566  0.00  0.00     0.021 A 
ATOM     12  C   UNL d   1      56.341  49.577  50.367  0.00  0.00     0.003 A 
ATOM     13  C   UNL d   1      57.133  49.589  50.599  0.00  0.00     0.021 A 
ENDBRANCH   7   8
ENDBRANCH   5   7
ENDBRANCH   1   4
BRANCH   2  14
ATOM     14  C   UNL d   1      60.927  49.666  51.232  0.00  0.00     0.085 A 
ATOM     15  C   UNL d   1      60.310  49.630  51.779  0.00  0.00     0.019 A 
ATOM     16  C   UNL d   1      60.477  49.594  52.587  0.00  0.00     0.002 A 
ATOM     17  C   UNL d   1      61.260  49.596  52.846  0.00  0.00     0.000 A 
ATOM     18  C   UNL d   1      61.868  49.632  52.301  0.00  0.00     0.002 A 
ATOM     19  C   UNL d   1      61.426  49.561  53.654  0.00  0.00     0.000 C 
ATOM     20  C   UNL d   1      61.702  49.667  51.494  0.00  0.00     0.019 A 
ENDBRANCH   2  14
TORSDOF 4
ENDMDL
