MODEL 1
REMARK VINA RESULT:      -5.4      0.000      0.000
REMARK  6 active torsions:
REMARK  status: ('A' for Active; 'I' for Inactive)
REMARK    1  A    between atoms: C_2  and  S_1 
REMARK    2  A    between atoms: N_3  and  S_1 
REMARK    3  A    between atoms: C_10  and  N_3 
REMARK    4  A    between atoms: C_16  and  C_11 
REMARK    5  A    between atoms: C_17  and  C_16 
REMARK    6  A    between atoms: C_18  and  C_17 
ROOT
ATOM      1  C   UNL d   1     -41.179-122.546 -51.400  0.00  0.00     0.094 A 
ATOM      2  C   UNL d   1     -41.286-122.708 -53.022  0.00  0.00     0.000 A 
ATOM      3  C   UNL d   1     -41.123-123.295 -51.744  0.00  0.00     0.020 A 
ATOM      4  C   UNL d   1     -41.288-121.885 -51.873  0.00  0.00     0.020 A 
ATOM      5  C   UNL d   1     -41.341-121.965 -52.669  0.00  0.00     0.002 A 
ATOM      6  C   UNL d   1     -41.175-123.374 -52.539  0.00  0.00     0.002 A 
ENDROOT
BRANCH   1   7
ATOM      7  N   UNL d   1     -41.123-122.460 -50.542  0.00  0.00    -0.158 NA
BRANCH   7   8
ATOM      8  S   UNL d   1     -41.705-122.790 -50.063  0.00  0.00     0.291 S 
ATOM      9  O   UNL d   1     -42.159-122.086 -50.212  0.00  0.00    -0.198 OA
ATOM     10  O   UNL d   1     -41.206-123.468 -49.951  0.00  0.00    -0.198 OA
BRANCH   8  11
ATOM     11  C   UNL d   1     -42.291-123.109 -49.587  0.00  0.00     0.135 A 
ATOM     12  S   UNL d   1     -42.738-123.793 -49.624  0.00  0.00    -0.073 SA
ATOM     13  C   UNL d   1     -43.250-123.815 -48.975  0.00  0.00     0.036 A 
ATOM     14  C   UNL d   1     -43.126-123.164 -48.545  0.00  0.00     0.008 A 
ATOM     15  C   UNL d   1     -42.536-122.712 -48.906  0.00  0.00     0.020 A 
ENDBRANCH   8  11
ENDBRANCH   7   8
ENDBRANCH   1   7
BRANCH   2  16
ATOM     16  C   UNL d   1     -41.342-122.793 -53.880  0.00  0.00     0.000 C 
BRANCH  16  17
ATOM     17  C   UNL d   1     -41.806-122.268 -54.317  0.00  0.00     0.000 C 
BRANCH  17  18
ATOM     18  C   UNL d   1     -41.900-122.379 -55.129  0.00  0.00     0.000 C 
ATOM     19  C   UNL d   1     -42.230-121.788 -55.591  0.00  0.00     0.000 C 
ENDBRANCH  17  18
ENDBRANCH  16  17
ENDBRANCH   2  16
TORSDOF 6
ENDMDL
MODEL 2
REMARK VINA RESULT:      -4.9      2.101      4.607
REMARK  6 active torsions:
REMARK  status: ('A' for Active; 'I' for Inactive)
REMARK    1  A    between atoms: C_2  and  S_1 
REMARK    2  A    between atoms: N_3  and  S_1 
REMARK    3  A    between atoms: C_10  and  N_3 
REMARK    4  A    between atoms: C_16  and  C_11 
REMARK    5  A    between atoms: C_17  and  C_16 
REMARK    6  A    between atoms: C_18  and  C_17 
ROOT
ATOM      1  C   UNL d   1     -41.316-123.053 -52.562  0.00  0.00     0.094 A 
ATOM      2  C   UNL d   1     -41.682-122.829 -50.985  0.00  0.00     0.000 A 
ATOM      3  C   UNL d   1     -41.126-122.339 -52.192  0.00  0.00     0.020 A 
ATOM      4  C   UNL d   1     -41.688-123.647 -52.137  0.00  0.00     0.020 A 
ATOM      5  C   UNL d   1     -41.867-123.537 -51.364  0.00  0.00     0.002 A 
ATOM      6  C   UNL d   1     -41.305-122.229 -51.419  0.00  0.00     0.002 A 
ENDROOT
BRANCH   1   7
ATOM      7  N   UNL d   1     -41.123-123.171 -53.396  0.00  0.00    -0.158 NA
BRANCH   7   8
ATOM      8  S   UNL d   1     -41.559-122.780 -53.972  0.00  0.00     0.291 S 
ATOM      9  O   UNL d   1     -41.963-123.518 -54.100  0.00  0.00    -0.198 OA
ATOM     10  O   UNL d   1     -41.123-122.072 -53.800  0.00  0.00    -0.198 OA
BRANCH   8  11
ATOM     11  C   UNL d   1     -42.000-122.399 -54.549  0.00  0.00     0.135 A 
ATOM     12  S   UNL d   1     -42.791-122.203 -54.618  0.00  0.00    -0.073 SA
ATOM     13  C   UNL d   1     -42.911-121.815 -55.339  0.00  0.00     0.036 A 
ATOM     14  C   UNL d   1     -42.215-121.771 -55.709  0.00  0.00     0.008 A 
ATOM     15  C   UNL d   1     -41.637-122.127 -55.238  0.00  0.00     0.020 A 
ENDBRANCH   8  11
ENDBRANCH   7   8
ENDBRANCH   1   7
BRANCH   2  16
ATOM     16  C   UNL d   1     -41.875-122.710 -50.152  0.00  0.00     0.000 C 
BRANCH  16  17
ATOM     17  C   UNL d   1     -41.682-123.291 -49.597  0.00  0.00     0.000 C 
BRANCH  17  18
ATOM     18  C   UNL d   1     -42.056-123.299 -48.862  0.00  0.00     0.000 C 
ATOM     19  C   UNL d   1     -41.613-123.275 -48.173  0.00  0.00     0.000 C 
ENDBRANCH  17  18
ENDBRANCH  16  17
ENDBRANCH   2  16
TORSDOF 6
ENDMDL
