MODEL 1
REMARK VINA RESULT:      -6.1      0.000      0.000
REMARK  5 active torsions:
REMARK  status: ('A' for Active; 'I' for Inactive)
REMARK    1  A    between atoms: C_7  and  C_1 
REMARK    2  A    between atoms: C_13  and  C_2 
REMARK    3  A    between atoms: C_12  and  N_3 
REMARK    4  A    between atoms: C_4  and  C_7 
REMARK    5  A    between atoms: O_17  and  C_13 
ROOT
ATOM      1  N   UNL d   1     -39.153  14.624  20.955  0.00  0.00    -0.305 N 
ATOM      2  C   UNL d   1     -39.389  14.474  19.650  0.00  0.00     0.018 A 
ATOM      3  C   UNL d   1     -39.659  15.224  20.720  0.00  0.00     0.064 A 
ATOM      4  C   UNL d   1     -38.981  14.155  20.298  0.00  0.00     0.064 A 
ATOM      5  C   UNL d   1     -39.807  15.130  19.904  0.00  0.00     0.019 A 
ATOM      6  C   UNL d   1     -39.970  15.815  21.199  0.00  0.00     0.019 C 
ATOM      7  C   UNL d   1     -38.492  13.489  20.285  0.00  0.00     0.019 C 
ENDROOT
BRANCH   2   8
ATOM      8  C   UNL d   1     -39.378  14.182  18.876  0.00  0.00     0.006 C 
BRANCH   8   9
ATOM      9  C   UNL d   1     -39.962  14.400  18.344  0.00  0.00     0.065 A 
ATOM     10  C   UNL d   1     -39.846  14.837  17.653  0.00  0.00     0.086 A 
ATOM     11  C   UNL d   1     -40.583  14.931  17.283  0.00  0.00     0.090 A 
ATOM     12  C   UNL d   1     -40.717  15.331  16.581  0.00  0.00     0.021 C 
ATOM     13  N   UNL d   1     -41.153  14.553  17.743  0.00  0.00    -0.208 NA
ATOM     14  C   UNL d   1     -40.770  14.222  18.403  0.00  0.00     0.279 A 
ATOM     15  O   UNL d   1     -41.122  13.796  19.007  0.00  0.00    -0.265 OA
BRANCH  10  16
ATOM     16  C   UNL d   1     -39.127  15.130  17.377  0.00  0.00     0.297 C 
ATOM     17  O   UNL d   1     -38.914  15.921  17.513  0.00  0.00    -0.259 OA
BRANCH  16  18
ATOM     18  O   UNL d   1     -38.604  14.642  16.959  0.00  0.00    -0.296 OA
ATOM     19  C   UNL d   1     -37.940  14.958  16.586  0.00  0.00     0.185 C 
ENDBRANCH  16  18
ENDBRANCH  10  16
ENDBRANCH   8   9
ENDBRANCH   2   8
BRANCH   1  20
ATOM     20  C   UNL d   1     -38.869  14.514  21.723  0.00  0.00     0.092 A 
ATOM     21  C   UNL d   1     -39.214  13.967  22.210  0.00  0.00     0.156 A 
ATOM     22  F   UNL d   1     -39.852  13.518  21.944  0.00  0.00    -0.203 F 
ATOM     23  C   UNL d   1     -38.930  13.853  22.986  0.00  0.00     0.031 A 
ATOM     24  C   UNL d   1     -38.286  14.312  23.247  0.00  0.00     0.002 A 
ATOM     25  C   UNL d   1     -37.940  14.867  22.743  0.00  0.00     0.002 A 
ATOM     26  C   UNL d   1     -38.231  14.968  21.981  0.00  0.00     0.020 A 
ENDBRANCH   1  20
TORSDOF 5
ENDMDL
MODEL 2
REMARK VINA RESULT:      -5.1      8.204      9.517
REMARK  5 active torsions:
REMARK  status: ('A' for Active; 'I' for Inactive)
REMARK    1  A    between atoms: C_7  and  C_1 
REMARK    2  A    between atoms: C_13  and  C_2 
REMARK    3  A    between atoms: C_12  and  N_3 
REMARK    4  A    between atoms: C_4  and  C_7 
REMARK    5  A    between atoms: O_17  and  C_13 
ROOT
ATOM      1  N   UNL d   1     -48.749  13.497  22.337  0.00  0.00    -0.305 N 
ATOM      2  C   UNL d   1     -47.518  13.133  22.700  0.00  0.00     0.018 A 
ATOM      3  C   UNL d   1     -48.413  13.088  21.712  0.00  0.00     0.064 A 
ATOM      4  C   UNL d   1     -48.201  13.530  22.953  0.00  0.00     0.064 A 
ATOM      5  C   UNL d   1     -47.642  12.860  21.939  0.00  0.00     0.019 A 
ATOM      6  C   UNL d   1     -48.768  12.927  20.987  0.00  0.00     0.019 C 
ATOM      7  C   UNL d   1     -48.310  13.890  23.689  0.00  0.00     0.019 C 
ENDROOT
BRANCH   2   8
ATOM      8  C   UNL d   1     -46.824  13.029  23.139  0.00  0.00     0.006 C 
BRANCH   8   9
ATOM      9  C   UNL d   1     -46.092  13.094  22.776  0.00  0.00     0.065 A 
ATOM     10  C   UNL d   1     -45.537  12.488  22.700  0.00  0.00     0.086 A 
ATOM     11  C   UNL d   1     -44.878  12.793  22.298  0.00  0.00     0.090 A 
ATOM     12  C   UNL d   1     -44.200  12.376  22.107  0.00  0.00     0.021 C 
ATOM     13  N   UNL d   1     -45.025  13.586  22.127  0.00  0.00    -0.208 NA
ATOM     14  C   UNL d   1     -45.779  13.776  22.423  0.00  0.00     0.279 A 
ATOM     15  O   UNL d   1     -46.150  14.504  22.377  0.00  0.00    -0.265 OA
BRANCH  10  16
ATOM     16  C   UNL d   1     -45.619  11.715  22.972  0.00  0.00     0.297 C 
ATOM     17  O   UNL d   1     -46.151  11.193  22.606  0.00  0.00    -0.259 OA
BRANCH  16  18
ATOM     18  O   UNL d   1     -45.173  11.444  23.616  0.00  0.00    -0.296 OA
ATOM     19  C   UNL d   1     -44.996  10.643  23.698  0.00  0.00     0.185 C 
ENDBRANCH  16  18
ENDBRANCH  10  16
ENDBRANCH   8   9
ENDBRANCH   2   8
BRANCH   1  20
ATOM     20  C   UNL d   1     -49.510  13.819  22.341  0.00  0.00     0.092 A 
ATOM     21  C   UNL d   1     -50.136  13.381  22.612  0.00  0.00     0.156 A 
ATOM     22  F   UNL d   1     -50.017  12.613  22.885  0.00  0.00    -0.203 F 
ATOM     23  C   UNL d   1     -50.905  13.703  22.619  0.00  0.00     0.031 A 
ATOM     24  C   UNL d   1     -51.016  14.480  22.341  0.00  0.00     0.002 A 
ATOM     25  C   UNL d   1     -50.372  14.919  22.066  0.00  0.00     0.002 A 
ATOM     26  C   UNL d   1     -49.619  14.588  22.067  0.00  0.00     0.020 A 
ENDBRANCH   1  20
TORSDOF 5
ENDMDL
MODEL 3
REMARK VINA RESULT:      -4.5      1.862      4.414
REMARK  5 active torsions:
REMARK  status: ('A' for Active; 'I' for Inactive)
REMARK    1  A    between atoms: C_7  and  C_1 
REMARK    2  A    between atoms: C_13  and  C_2 
REMARK    3  A    between atoms: C_12  and  N_3 
REMARK    4  A    between atoms: C_4  and  C_7 
REMARK    5  A    between atoms: O_17  and  C_13 
ROOT
ATOM      1  N   UNL d   1     -39.017  15.120  17.402  0.00  0.00    -0.305 N 
ATOM      2  C   UNL d   1     -39.248  15.248  18.710  0.00  0.00     0.018 A 
ATOM      3  C   UNL d   1     -39.760  14.813  17.557  0.00  0.00     0.064 A 
ATOM      4  C   UNL d   1     -38.693  15.392  18.111  0.00  0.00     0.064 A 
ATOM      5  C   UNL d   1     -39.905  14.893  18.376  0.00  0.00     0.019 A 
ATOM      6  C   UNL d   1     -40.276  14.484  17.009  0.00  0.00     0.019 C 
ATOM      7  C   UNL d   1     -37.951  15.743  18.209  0.00  0.00     0.019 C 
ENDROOT
BRANCH   2   8
ATOM      8  C   UNL d   1     -39.157  15.431  19.513  0.00  0.00     0.006 C 
BRANCH   8   9
ATOM      9  C   UNL d   1     -39.705  15.165  20.061  0.00  0.00     0.065 A 
ATOM     10  C   UNL d   1     -39.546  14.664  20.697  0.00  0.00     0.086 A 
ATOM     11  C   UNL d   1     -40.255  14.537  21.108  0.00  0.00     0.090 A 
ATOM     12  C   UNL d   1     -40.343  14.073  21.776  0.00  0.00     0.021 C 
ATOM     13  N   UNL d   1     -40.852  14.958  20.727  0.00  0.00    -0.208 NA
ATOM     14  C   UNL d   1     -40.514  15.350  20.076  0.00  0.00     0.279 A 
ATOM     15  O   UNL d   1     -40.903  15.832  19.541  0.00  0.00    -0.265 OA
BRANCH  10  16
ATOM     16  C   UNL d   1     -38.812  14.345  20.894  0.00  0.00     0.297 C 
ATOM     17  O   UNL d   1     -38.214  14.825  21.212  0.00  0.00    -0.259 OA
BRANCH  16  18
ATOM     18  O   UNL d   1     -38.657  13.539  20.777  0.00  0.00    -0.296 OA
ATOM     19  C   UNL d   1     -37.949  13.205  21.036  0.00  0.00     0.185 C 
ENDBRANCH  16  18
ENDBRANCH  10  16
ENDBRANCH   8   9
ENDBRANCH   2   8
BRANCH   1  20
ATOM     20  C   UNL d   1     -38.660  15.150  16.658  0.00  0.00     0.092 A 
ATOM     21  C   UNL d   1     -38.301  14.490  16.353  0.00  0.00     0.156 A 
ATOM     22  F   UNL d   1     -38.291  13.787  16.782  0.00  0.00    -0.203 F 
ATOM     23  C   UNL d   1     -37.939  14.515  15.602  0.00  0.00     0.031 A 
ATOM     24  C   UNL d   1     -37.955  15.230  15.175  0.00  0.00     0.002 A 
ATOM     25  C   UNL d   1     -38.322  15.897  15.493  0.00  0.00     0.002 A 
ATOM     26  C   UNL d   1     -38.675  15.857  16.235  0.00  0.00     0.020 A 
ENDBRANCH   1  20
TORSDOF 5
ENDMDL
MODEL 4
REMARK VINA RESULT:      -3.7      1.483      2.283
REMARK  5 active torsions:
REMARK  status: ('A' for Active; 'I' for Inactive)
REMARK    1  A    between atoms: C_7  and  C_1 
REMARK    2  A    between atoms: C_13  and  C_2 
REMARK    3  A    between atoms: C_12  and  N_3 
REMARK    4  A    between atoms: C_4  and  C_7 
REMARK    5  A    between atoms: O_17  and  C_13 
ROOT
ATOM      1  N   UNL d   1     -39.571  14.871  19.552  0.00  0.00    -0.305 N 
ATOM      2  C   UNL d   1     -38.915  14.780  18.394  0.00  0.00     0.018 A 
ATOM      3  C   UNL d   1     -40.025  14.421  19.041  0.00  0.00     0.064 A 
ATOM      4  C   UNL d   1     -38.881  15.098  19.159  0.00  0.00     0.064 A 
ATOM      5  C   UNL d   1     -39.614  14.363  18.316  0.00  0.00     0.019 A 
ATOM      6  C   UNL d   1     -40.756  14.082  19.206  0.00  0.00     0.019 C 
ATOM      7  C   UNL d   1     -38.268  15.557  19.469  0.00  0.00     0.019 C 
ENDROOT
BRANCH   2   8
ATOM      8  C   UNL d   1     -38.339  14.867  17.805  0.00  0.00     0.006 C 
BRANCH   8   9
ATOM      9  C   UNL d   1     -38.246  14.289  17.231  0.00  0.00     0.065 A 
ATOM     10  C   UNL d   1     -38.313  14.403  16.416  0.00  0.00     0.086 A 
ATOM     11  C   UNL d   1     -38.177  13.675  16.043  0.00  0.00     0.090 A 
ATOM     12  C   UNL d   1     -38.190  13.543  15.235  0.00  0.00     0.021 C 
ATOM     13  N   UNL d   1     -38.026  13.112  16.625  0.00  0.00    -0.208 NA
ATOM     14  C   UNL d   1     -38.068  13.490  17.364  0.00  0.00     0.279 A 
ATOM     15  O   UNL d   1     -37.956  13.142  18.097  0.00  0.00    -0.265 OA
BRANCH  10  16
ATOM     16  C   UNL d   1     -38.484  15.115  16.037  0.00  0.00     0.297 C 
ATOM     17  O   UNL d   1     -39.207  15.501  16.171  0.00  0.00    -0.259 OA
BRANCH  16  18
ATOM     18  O   UNL d   1     -37.940  15.458  15.515  0.00  0.00    -0.296 OA
ATOM     19  C   UNL d   1     -38.197  15.922  14.884  0.00  0.00     0.185 C 
ENDBRANCH  16  18
ENDBRANCH  10  16
ENDBRANCH   8   9
ENDBRANCH   2   8
BRANCH   1  20
ATOM     20  C   UNL d   1     -39.776  15.061  20.329  0.00  0.00     0.092 A 
ATOM     21  C   UNL d   1     -39.509  14.606  20.944  0.00  0.00     0.156 A 
ATOM     22  F   UNL d   1     -39.031  13.951  20.798  0.00  0.00    -0.203 F 
ATOM     23  C   UNL d   1     -39.714  14.795  21.730  0.00  0.00     0.031 A 
ATOM     24  C   UNL d   1     -40.197  15.459  21.868  0.00  0.00     0.002 A 
ATOM     25  C   UNL d   1     -40.465  15.918  21.236  0.00  0.00     0.002 A 
ATOM     26  C   UNL d   1     -40.254  15.718  20.466  0.00  0.00     0.020 A 
ENDBRANCH   1  20
TORSDOF 5
ENDMDL
