MODEL 1
REMARK VINA RESULT:      -3.4      0.000      0.000
REMARK  3 active torsions:
REMARK  status: ('A' for Active; 'I' for Inactive)
REMARK    1  A    between atoms: C_9  and  N_1 
REMARK    2  A    between atoms: C_5  and  C_9 
REMARK       I    between atoms: N_8  and  C_5 
REMARK    3  A    between atoms: O_14  and  C_12 
ROOT
ATOM      1  N   UNL d   1      33.155  20.967 -22.014  0.00  0.00    -0.268 N 
ATOM      2  C   UNL d   1      33.004  21.752 -22.200  0.00  0.00     0.265 A 
ATOM      3  C   UNL d   1      32.918  22.307 -21.591  0.00  0.00     0.059 A 
ATOM      4  C   UNL d   1      32.983  22.072 -20.805  0.00  0.00     0.028 A 
ATOM      5  C   UNL d   1      33.134  21.286 -20.619  0.00  0.00     0.021 A 
ATOM      6  C   UNL d   1      33.220  20.733 -21.219  0.00  0.00     0.083 A 
ATOM      7  O   UNL d   1      32.939  21.989 -22.985  0.00  0.00    -0.267 OA
ATOM      8  C   UNL d   1      32.897  22.628 -20.204  0.00  0.00     0.094 A 
ATOM      9  C   UNL d   1      32.767  23.094 -21.785  0.00  0.00     0.005 A 
ATOM     10  C   UNL d   1      32.680  23.656 -21.182  0.00  0.00     0.002 A 
ATOM     11  C   UNL d   1      32.744  23.424 -20.396  0.00  0.00     0.024 A 
ENDROOT
BRANCH   1  12
ATOM     12  C   UNL d   1      33.241  20.414 -22.614  0.00  0.00     0.144 C 
BRANCH  12  13
ATOM     13  C   UNL d   1      33.086  19.610 -22.469  0.00  0.00     0.283 C 
ATOM     14  N   UNL d   1      33.075  19.082 -23.099  0.00  0.00    -0.271 N 
ATOM     15  C   UNL d   1      32.908  18.275 -22.864  0.00  0.00     0.083 A 
ATOM     16  C   UNL d   1      33.211  19.397 -23.759  0.00  0.00     0.083 A 
ATOM     17  C   UNL d   1      32.846  17.651 -23.217  0.00  0.00     0.019 A 
ATOM     18  C   UNL d   1      32.926  17.520 -24.040  0.00  0.00     0.002 A 
ATOM     19  C   UNL d   1      33.107  18.137 -24.646  0.00  0.00     0.002 A 
ATOM     20  C   UNL d   1      33.239  19.009 -24.520  0.00  0.00     0.019 A 
ATOM     21  O   UNL d   1      32.947  19.344 -21.713  0.00  0.00    -0.265 OA
ENDBRANCH  12  13
ENDBRANCH   1  12
BRANCH   8  22
ATOM     22  O   UNL d   1      32.960  22.405 -19.415  0.00  0.00    -0.328 OA
ATOM     23  C   UNL d   1      32.982  22.972 -18.828  0.00  0.00     0.181 C 
ENDBRANCH   8  22
TORSDOF 3
ENDMDL
MODEL 2
REMARK VINA RESULT:      -3.4      1.032      4.733
REMARK  3 active torsions:
REMARK  status: ('A' for Active; 'I' for Inactive)
REMARK    1  A    between atoms: C_9  and  N_1 
REMARK    2  A    between atoms: C_5  and  C_9 
REMARK       I    between atoms: N_8  and  C_5 
REMARK    3  A    between atoms: O_14  and  C_12 
ROOT
ATOM      1  N   UNL d   1      33.222  19.841 -22.834  0.00  0.00    -0.268 N 
ATOM      2  C   UNL d   1      33.220  19.705 -23.643  0.00  0.00     0.265 A 
ATOM      3  C   UNL d   1      33.202  18.927 -23.927  0.00  0.00     0.059 A 
ATOM      4  C   UNL d   1      33.185  18.295 -23.400  0.00  0.00     0.028 A 
ATOM      5  C   UNL d   1      33.187  18.431 -22.590  0.00  0.00     0.021 A 
ATOM      6  C   UNL d   1      33.206  19.200 -22.304  0.00  0.00     0.083 A 
ATOM      7  O   UNL d   1      33.237  20.336 -24.171  0.00  0.00    -0.267 OA
ATOM      8  C   UNL d   1      33.167  17.524 -23.688  0.00  0.00     0.094 A 
ATOM      9  C   UNL d   1      33.200  18.797 -24.741  0.00  0.00     0.005 A 
ATOM     10  C   UNL d   1      33.181  18.022 -25.034  0.00  0.00     0.002 A 
ATOM     11  C   UNL d   1      33.165  17.389 -24.510  0.00  0.00     0.024 A 
ENDROOT
BRANCH   1  12
ATOM     12  C   UNL d   1      33.241  20.610 -22.549  0.00  0.00     0.144 C 
BRANCH  12  13
ATOM     13  C   UNL d   1      32.825  20.811 -21.857  0.00  0.00     0.283 C 
ATOM     14  N   UNL d   1      32.796  21.597 -21.619  0.00  0.00    -0.271 N 
ATOM     15  C   UNL d   1      32.349  21.719 -20.898  0.00  0.00     0.083 A 
ATOM     16  C   UNL d   1      33.162  22.063 -22.069  0.00  0.00     0.083 A 
ATOM     17  C   UNL d   1      32.182  22.294 -20.500  0.00  0.00     0.019 A 
ATOM     18  C   UNL d   1      32.400  23.090 -20.639  0.00  0.00     0.002 A 
ATOM     19  C   UNL d   1      32.885  23.383 -21.317  0.00  0.00     0.002 A 
ATOM     20  C   UNL d   1      33.241  22.910 -21.983  0.00  0.00     0.019 A 
ATOM     21  O   UNL d   1      32.450  20.239 -21.418  0.00  0.00    -0.265 OA
ENDBRANCH  12  13
ENDBRANCH   1  12
BRANCH   8  22
ATOM     22  O   UNL d   1      33.150  16.885 -23.171  0.00  0.00    -0.328 OA
ATOM     23  C   UNL d   1      33.056  16.126 -23.458  0.00  0.00     0.181 C 
ENDBRANCH   8  22
TORSDOF 3
ENDMDL
MODEL 3
REMARK VINA RESULT:      -2.7      1.031      2.045
REMARK  3 active torsions:
REMARK  status: ('A' for Active; 'I' for Inactive)
REMARK    1  A    between atoms: C_9  and  N_1 
REMARK    2  A    between atoms: C_5  and  C_9 
REMARK       I    between atoms: N_8  and  C_5 
REMARK    3  A    between atoms: O_14  and  C_12 
ROOT
ATOM      1  N   UNL d   1      33.232  19.827 -22.515  0.00  0.00    -0.268 N 
ATOM      2  C   UNL d   1      33.235  19.992 -21.711  0.00  0.00     0.265 A 
ATOM      3  C   UNL d   1      33.236  20.781 -21.456  0.00  0.00     0.059 A 
ATOM      4  C   UNL d   1      33.233  21.393 -22.006  0.00  0.00     0.028 A 
ATOM      5  C   UNL d   1      33.230  21.227 -22.811  0.00  0.00     0.021 A 
ATOM      6  C   UNL d   1      33.229  20.447 -23.067  0.00  0.00     0.083 A 
ATOM      7  O   UNL d   1      33.238  19.381 -21.160  0.00  0.00    -0.267 OA
ATOM      8  C   UNL d   1      33.234  22.175 -21.747  0.00  0.00     0.094 A 
ATOM      9  C   UNL d   1      33.239  20.940 -20.647  0.00  0.00     0.005 A 
ATOM     10  C   UNL d   1      33.240  21.725 -20.384  0.00  0.00     0.002 A 
ATOM     11  C   UNL d   1      33.237  22.339 -20.931  0.00  0.00     0.024 A 
ENDROOT
BRANCH   1  12
ATOM     12  C   UNL d   1      33.231  19.048 -22.771  0.00  0.00     0.144 C 
BRANCH  12  13
ATOM     13  C   UNL d   1      33.109  18.870 -23.575  0.00  0.00     0.283 C 
ATOM     14  N   UNL d   1      32.853  18.119 -23.787  0.00  0.00    -0.271 N 
ATOM     15  C   UNL d   1      32.753  18.019 -24.633  0.00  0.00     0.083 A 
ATOM     16  C   UNL d   1      32.754  17.659 -23.211  0.00  0.00     0.083 A 
ATOM     17  C   UNL d   1      32.545  17.474 -25.054  0.00  0.00     0.019 A 
ATOM     18  C   UNL d   1      32.320  16.704 -24.816  0.00  0.00     0.002 A 
ATOM     19  C   UNL d   1      32.293  16.406 -23.986  0.00  0.00     0.002 A 
ATOM     20  C   UNL d   1      32.494  16.846 -23.237  0.00  0.00     0.019 A 
ATOM     21  O   UNL d   1      33.241  19.432 -24.148  0.00  0.00    -0.265 OA
ENDBRANCH  12  13
ENDBRANCH   1  12
BRANCH   8  22
ATOM     22  O   UNL d   1      33.231  22.794 -22.287  0.00  0.00    -0.328 OA
ATOM     23  C   UNL d   1      33.222  23.567 -22.025  0.00  0.00     0.181 C 
ENDBRANCH   8  22
TORSDOF 3
ENDMDL
MODEL 4
REMARK VINA RESULT:      -2.7      0.864      1.304
REMARK  3 active torsions:
REMARK  status: ('A' for Active; 'I' for Inactive)
REMARK    1  A    between atoms: C_9  and  N_1 
REMARK    2  A    between atoms: C_5  and  C_9 
REMARK       I    between atoms: N_8  and  C_5 
REMARK    3  A    between atoms: O_14  and  C_12 
ROOT
ATOM      1  N   UNL d   1      33.167  19.954 -22.788  0.00  0.00    -0.268 N 
ATOM      2  C   UNL d   1      33.199  20.731 -23.048  0.00  0.00     0.265 A 
ATOM      3  C   UNL d   1      33.201  21.348 -22.495  0.00  0.00     0.059 A 
ATOM      4  C   UNL d   1      33.170  21.180 -21.690  0.00  0.00     0.028 A 
ATOM      5  C   UNL d   1      33.137  20.402 -21.430  0.00  0.00     0.021 A 
ATOM      6  C   UNL d   1      33.135  19.788 -21.975  0.00  0.00     0.083 A 
ATOM      7  O   UNL d   1      33.231  20.901 -23.853  0.00  0.00    -0.267 OA
ATOM      8  C   UNL d   1      33.172  21.797 -21.144  0.00  0.00     0.094 A 
ATOM      9  C   UNL d   1      33.234  22.127 -22.763  0.00  0.00     0.005 A 
ATOM     10  C   UNL d   1      33.236  22.749 -22.216  0.00  0.00     0.002 A 
ATOM     11  C   UNL d   1      33.205  22.585 -21.411  0.00  0.00     0.024 A 
ENDROOT
BRANCH   1  12
ATOM     12  C   UNL d   1      33.165  19.341 -23.333  0.00  0.00     0.144 C 
BRANCH  12  13
ATOM     13  C   UNL d   1      33.152  18.550 -23.075  0.00  0.00     0.283 C 
ATOM     14  N   UNL d   1      33.054  17.948 -23.627  0.00  0.00    -0.271 N 
ATOM     15  C   UNL d   1      33.052  17.164 -23.279  0.00  0.00     0.083 A 
ATOM     16  C   UNL d   1      32.984  18.188 -24.327  0.00  0.00     0.083 A 
ATOM     17  C   UNL d   1      32.985  16.498 -23.541  0.00  0.00     0.019 A 
ATOM     18  C   UNL d   1      32.878  16.273 -24.340  0.00  0.00     0.002 A 
ATOM     19  C   UNL d   1      32.827  16.822 -25.029  0.00  0.00     0.002 A 
ATOM     20  C   UNL d   1      32.876  17.712 -25.029  0.00  0.00     0.019 A 
ATOM     21  O   UNL d   1      33.235  18.370 -22.287  0.00  0.00    -0.265 OA
ENDBRANCH  12  13
ENDBRANCH   1  12
BRANCH   8  22
ATOM     22  O   UNL d   1      33.141  21.642 -20.337  0.00  0.00    -0.328 OA
ATOM     23  C   UNL d   1      33.167  22.256 -19.800  0.00  0.00     0.181 C 
ENDBRANCH   8  22
TORSDOF 3
ENDMDL
MODEL 5
REMARK VINA RESULT:      -1.9      0.943      4.842
REMARK  3 active torsions:
REMARK  status: ('A' for Active; 'I' for Inactive)
REMARK    1  A    between atoms: C_9  and  N_1 
REMARK    2  A    between atoms: C_5  and  C_9 
REMARK       I    between atoms: N_8  and  C_5 
REMARK    3  A    between atoms: O_14  and  C_12 
ROOT
ATOM      1  N   UNL d   1      33.235  20.377 -22.084  0.00  0.00    -0.268 N 
ATOM      2  C   UNL d   1      33.236  19.580 -21.887  0.00  0.00     0.265 A 
ATOM      3  C   UNL d   1      33.231  19.010 -22.489  0.00  0.00     0.059 A 
ATOM      4  C   UNL d   1      33.226  19.244 -23.278  0.00  0.00     0.028 A 
ATOM      5  C   UNL d   1      33.225  20.041 -23.475  0.00  0.00     0.021 A 
ATOM      6  C   UNL d   1      33.230  20.608 -22.882  0.00  0.00     0.083 A 
ATOM      7  O   UNL d   1      33.241  19.346 -21.098  0.00  0.00    -0.267 OA
ATOM      8  C   UNL d   1      33.221  18.673 -23.872  0.00  0.00     0.094 A 
ATOM      9  C   UNL d   1      33.232  18.212 -22.284  0.00  0.00     0.005 A 
ATOM     10  C   UNL d   1      33.227  17.636 -22.879  0.00  0.00     0.002 A 
ATOM     11  C   UNL d   1      33.222  17.865 -23.669  0.00  0.00     0.024 A 
ENDROOT
BRANCH   1  12
ATOM     12  C   UNL d   1      33.240  20.944 -21.491  0.00  0.00     0.144 C 
BRANCH  12  13
ATOM     13  C   UNL d   1      32.826  21.659 -21.591  0.00  0.00     0.283 C 
ATOM     14  N   UNL d   1      32.796  22.197 -20.970  0.00  0.00    -0.271 N 
ATOM     15  C   UNL d   1      32.351  22.906 -21.155  0.00  0.00     0.083 A 
ATOM     16  C   UNL d   1      33.159  21.975 -20.360  0.00  0.00     0.083 A 
ATOM     17  C   UNL d   1      32.185  23.504 -20.792  0.00  0.00     0.019 A 
ATOM     18  C   UNL d   1      32.400  23.701 -20.008  0.00  0.00     0.002 A 
ATOM     19  C   UNL d   1      32.882  23.200 -19.463  0.00  0.00     0.002 A 
ATOM     20  C   UNL d   1      33.236  22.398 -19.622  0.00  0.00     0.019 A 
ATOM     21  O   UNL d   1      32.453  21.827 -22.294  0.00  0.00    -0.265 OA
ENDBRANCH  12  13
ENDBRANCH   1  12
BRANCH   8  22
ATOM     22  O   UNL d   1      33.216  18.893 -24.664  0.00  0.00    -0.328 OA
ATOM     23  C   UNL d   1      32.525  18.853 -25.097  0.00  0.00     0.181 C 
ENDBRANCH   8  22
TORSDOF 3
ENDMDL
MODEL 6
REMARK VINA RESULT:      -1.8      1.657      4.900
REMARK  3 active torsions:
REMARK  status: ('A' for Active; 'I' for Inactive)
REMARK    1  A    between atoms: C_9  and  N_1 
REMARK    2  A    between atoms: C_5  and  C_9 
REMARK       I    between atoms: N_8  and  C_5 
REMARK    3  A    between atoms: O_14  and  C_12 
ROOT
ATOM      1  N   UNL d   1      33.201  22.119 -21.134  0.00  0.00    -0.268 N 
ATOM      2  C   UNL d   1      33.207  21.386 -21.503  0.00  0.00     0.265 A 
ATOM      3  C   UNL d   1      33.217  21.346 -22.331  0.00  0.00     0.059 A 
ATOM      4  C   UNL d   1      33.221  22.037 -22.778  0.00  0.00     0.028 A 
ATOM      5  C   UNL d   1      33.214  22.770 -22.408  0.00  0.00     0.021 A 
ATOM      6  C   UNL d   1      33.204  22.814 -21.589  0.00  0.00     0.083 A 
ATOM      7  O   UNL d   1      33.204  20.695 -21.057  0.00  0.00    -0.267 OA
ATOM      8  C   UNL d   1      33.231  21.990 -23.601  0.00  0.00     0.094 A 
ATOM      9  C   UNL d   1      33.224  20.606 -22.696  0.00  0.00     0.005 A 
ATOM     10  C   UNL d   1      33.234  20.557 -23.523  0.00  0.00     0.002 A 
ATOM     11  C   UNL d   1      33.238  21.245 -23.972  0.00  0.00     0.024 A 
ENDROOT
BRANCH   1  12
ATOM     12  C   UNL d   1      33.191  22.164 -20.315  0.00  0.00     0.144 C 
BRANCH  12  13
ATOM     13  C   UNL d   1      32.778  22.776 -19.933  0.00  0.00     0.283 C 
ATOM     14  N   UNL d   1      32.766  22.803 -19.112  0.00  0.00    -0.271 N 
ATOM     15  C   UNL d   1      32.320  23.464 -18.798  0.00  0.00     0.083 A 
ATOM     16  C   UNL d   1      33.143  22.250 -18.786  0.00  0.00     0.083 A 
ATOM     17  C   UNL d   1      32.166  23.699 -18.136  0.00  0.00     0.019 A 
ATOM     18  C   UNL d   1      32.401  23.360 -17.408  0.00  0.00     0.002 A 
ATOM     19  C   UNL d   1      32.894  22.633 -17.311  0.00  0.00     0.002 A 
ATOM     20  C   UNL d   1      33.240  22.115 -17.948  0.00  0.00     0.019 A 
ATOM     21  O   UNL d   1      32.389  23.346 -20.364  0.00  0.00    -0.265 OA
ENDBRANCH  12  13
ENDBRANCH   1  12
BRANCH   8  22
ATOM     22  O   UNL d   1      33.235  22.673 -24.058  0.00  0.00    -0.328 OA
ATOM     23  C   UNL d   1      33.185  22.623 -24.871  0.00  0.00     0.181 C 
ENDBRANCH   8  22
TORSDOF 3
ENDMDL
