MODEL 1
REMARK VINA RESULT:       7.2      0.000      0.000
REMARK  8 active torsions:
REMARK  status: ('A' for Active; 'I' for Inactive)
REMARK    1  A    between atoms: C_6  and  N_1 
REMARK    2  A    between atoms: C_7  and  C_2 
REMARK    3  A    between atoms: C_8  and  C_6 
REMARK    4  A    between atoms: O_14  and  C_8 
REMARK    5  A    between atoms: O_15  and  C_8 
REMARK    6  A    between atoms: O_18  and  C_11 
REMARK    7  A    between atoms: C_20  and  O_14 
REMARK    8  A    between atoms: C_19  and  O_15 
ROOT
ATOM      1  N   UNL d   1     -42.380-123.506 -49.624  0.00  0.00    -0.286 N 
ATOM      2  C   UNL d   1     -41.668-123.283 -49.981  0.00  0.00     0.148 A 
ATOM      3  N   UNL d   1     -41.123-123.204 -49.367  0.00  0.00    -0.227 NA
ATOM      4  C   UNL d   1     -42.271-123.560 -48.828  0.00  0.00     0.083 A 
ATOM      5  C   UNL d   1     -41.483-123.371 -48.667  0.00  0.00     0.099 A 
ATOM      6  C   UNL d   1     -42.786-123.758 -48.212  0.00  0.00     0.019 A 
ATOM      7  C   UNL d   1     -41.234-123.386 -47.894  0.00  0.00     0.021 A 
ATOM      8  C   UNL d   1     -42.502-123.762 -47.459  0.00  0.00     0.002 A 
ATOM      9  C   UNL d   1     -41.714-123.573 -47.298  0.00  0.00     0.002 A 
ENDROOT
BRANCH   1  10
ATOM     10  C   UNL d   1     -43.072-123.645 -50.018  0.00  0.00     0.133 C 
BRANCH  10  11
ATOM     11  C   UNL d   1     -43.747-123.203 -49.802  0.00  0.00     0.222 C 
BRANCH  11  12
ATOM     12  O   UNL d   1     -43.760-122.380 -49.891  0.00  0.00    -0.282 OA
BRANCH  12  13
ATOM     13  C   UNL d   1     -44.147-121.698 -50.112  0.00  0.00     0.125 C 
ATOM     14  C   UNL d   1     -43.776-121.167 -50.630  0.00  0.00     0.029 C 
ENDBRANCH  12  13
ENDBRANCH  11  12
BRANCH  11  15
ATOM     15  O   UNL d   1     -44.432-123.588 -49.487  0.00  0.00    -0.282 OA
BRANCH  15  16
ATOM     16  C   UNL d   1     -45.174-123.816 -49.759  0.00  0.00     0.125 C 
ATOM     17  C   UNL d   1     -45.825-123.806 -49.256  0.00  0.00     0.029 C 
ENDBRANCH  15  16
ENDBRANCH  11  15
ENDBRANCH  10  11
ENDBRANCH   1  10
BRANCH   2  18
ATOM     18  C   UNL d   1     -41.532-123.164 -50.786  0.00  0.00     0.035 A 
ATOM     19  C   UNL d   1     -41.419-123.816 -51.285  0.00  0.00     0.005 A 
ATOM     20  C   UNL d   1     -41.283-123.697 -52.090  0.00  0.00     0.024 A 
ATOM     21  C   UNL d   1     -41.260-122.926 -52.396  0.00  0.00     0.094 A 
ATOM     22  C   UNL d   1     -41.373-122.280 -51.896  0.00  0.00     0.024 A 
ATOM     23  C   UNL d   1     -41.509-122.399 -51.091  0.00  0.00     0.005 A 
BRANCH  21  24
ATOM     24  O   UNL d   1     -41.124-122.807 -53.201  0.00  0.00    -0.328 OA
ATOM     25  C   UNL d   1     -41.421-123.348 -53.754  0.00  0.00     0.181 C 
ENDBRANCH  21  24
ENDBRANCH   2  18
TORSDOF 8
ENDMDL
