MODEL 1
REMARK VINA RESULT:      -3.3      0.000      0.000
REMARK  5 active torsions:
REMARK  status: ('A' for Active; 'I' for Inactive)
REMARK    1  A    between atoms: C_3  and  C_1 
REMARK    2  A    between atoms: C_5  and  C_3 
REMARK    3  A    between atoms: N_8  and  C_5 
REMARK    4  A    between atoms: C_19  and  N_11 
REMARK    5  A    between atoms: C_18  and  C_19 
ROOT
ATOM      1  C   UNL d   1      33.107  20.117 -22.224  0.00  0.00     0.110 C 
ATOM      2  C   UNL d   1      33.175  19.507 -21.674  0.00  0.00     0.105 C 
ATOM      3  N   UNL d   1      33.240  18.909 -21.122  0.00  0.00    -0.191 NA
ENDROOT
BRANCH   1   4
ATOM      4  C   UNL d   1      32.905  20.877 -21.975  0.00  0.00     0.122 A 
ATOM      5  N   UNL d   1      32.413  21.067 -21.341  0.00  0.00    -0.238 NA
ATOM      6  C   UNL d   1      32.363  21.892 -21.289  0.00  0.00     0.088 A 
ATOM      7  C   UNL d   1      31.958  22.388 -20.772  0.00  0.00     0.020 A 
ATOM      8  C   UNL d   1      32.824  22.212 -21.893  0.00  0.00     0.049 A 
ATOM      9  C   UNL d   1      32.019  23.208 -20.865  0.00  0.00     0.002 A 
ATOM     10  C   UNL d   1      32.480  23.529 -21.470  0.00  0.00     0.001 A 
ATOM     11  C   UNL d   1      32.885  23.031 -21.986  0.00  0.00     0.008 A 
ATOM     12  S   UNL d   1      33.161  21.586 -22.320  0.00  0.00    -0.066 SA
ENDBRANCH   1   4
BRANCH   1  13
ATOM     13  C   UNL d   1      33.240  19.965 -23.022  0.00  0.00     0.093 C 
BRANCH  13  14
ATOM     14  N   UNL d   1      32.960  19.269 -23.364  0.00  0.00    -0.299 N 
ATOM     15  C   UNL d   1      32.465  19.306 -24.018  0.00  0.00     0.100 A 
ATOM     16  C   UNL d   1      32.183  18.606 -24.362  0.00  0.00     0.100 A 
ATOM     17  N   UNL d   1      32.403  17.871 -24.042  0.00  0.00    -0.300 N 
ATOM     18  C   UNL d   1      32.901  17.842 -23.384  0.00  0.00     0.100 A 
ATOM     19  C   UNL d   1      33.180  18.535 -23.044  0.00  0.00     0.100 A 
BRANCH  17  20
ATOM     20  C   UNL d   1      32.125  17.172 -24.381  0.00  0.00     0.080 C 
BRANCH  20  21
ATOM     21  C   UNL d   1      31.443  16.817 -24.091  0.00  0.00     0.020 A 
ATOM     22  C   UNL d   1      30.714  17.038 -24.385  0.00  0.00     0.028 A 
ATOM     23  C   UNL d   1      30.029  16.685 -24.097  0.00  0.00     0.119 A 
ATOM     24  O   UNL d   1      29.231  16.798 -24.291  0.00  0.00    -0.300 OA
ATOM     25  C   UNL d   1      30.079  16.108 -23.511  0.00  0.00     0.119 A 
ATOM     26  C   UNL d   1      28.786  16.284 -23.816  0.00  0.00     0.304 A 
ATOM     27  O   UNL d   1      29.309  15.860 -23.337  0.00  0.00    -0.300 OA
ATOM     28  C   UNL d   1      30.816  15.886 -23.214  0.00  0.00     0.026 A 
ATOM     29  C   UNL d   1      31.504  16.242 -23.505  0.00  0.00     0.004 A 
ENDBRANCH  20  21
ENDBRANCH  17  20
ENDBRANCH  13  14
ENDBRANCH   1  13
TORSDOF 5
ENDMDL
MODEL 2
REMARK VINA RESULT:      -0.8      2.535      5.762
REMARK  5 active torsions:
REMARK  status: ('A' for Active; 'I' for Inactive)
REMARK    1  A    between atoms: C_3  and  C_1 
REMARK    2  A    between atoms: C_5  and  C_3 
REMARK    3  A    between atoms: N_8  and  C_5 
REMARK    4  A    between atoms: C_19  and  N_11 
REMARK    5  A    between atoms: C_18  and  C_19 
ROOT
ATOM      1  C   UNL d   1      32.874  18.956 -23.385  0.00  0.00     0.110 C 
ATOM      2  C   UNL d   1      33.061  18.939 -22.583  0.00  0.00     0.105 C 
ATOM      3  N   UNL d   1      33.239  18.914 -21.786  0.00  0.00    -0.191 NA
ENDROOT
BRANCH   1   4
ATOM      4  C   UNL d   1      32.358  18.395 -23.701  0.00  0.00     0.122 A 
ATOM      5  N   UNL d   1      31.691  18.550 -24.160  0.00  0.00    -0.238 NA
ATOM      6  C   UNL d   1      31.337  17.828 -24.358  0.00  0.00     0.088 A 
ATOM      7  C   UNL d   1      30.667  17.646 -24.800  0.00  0.00     0.020 A 
ATOM      8  C   UNL d   1      31.787  17.225 -24.021  0.00  0.00     0.049 A 
ATOM      9  C   UNL d   1      30.451  16.853 -24.901  0.00  0.00     0.002 A 
ATOM     10  C   UNL d   1      30.902  16.250 -24.564  0.00  0.00     0.001 A 
ATOM     11  C   UNL d   1      31.572  16.433 -24.123  0.00  0.00     0.008 A 
ATOM     12  S   UNL d   1      32.420  17.572 -23.614  0.00  0.00    -0.066 SA
ENDBRANCH   1   4
BRANCH   1  13
ATOM     13  C   UNL d   1      33.203  19.534 -23.870  0.00  0.00     0.093 C 
BRANCH  13  14
ATOM     14  N   UNL d   1      33.201  20.324 -23.632  0.00  0.00    -0.299 N 
ATOM     15  C   UNL d   1      33.206  20.509 -22.832  0.00  0.00     0.100 A 
ATOM     16  C   UNL d   1      33.204  21.303 -22.592  0.00  0.00     0.100 A 
ATOM     17  N   UNL d   1      33.197  21.906 -23.164  0.00  0.00    -0.300 N 
ATOM     18  C   UNL d   1      33.193  21.712 -23.966  0.00  0.00     0.100 A 
ATOM     19  C   UNL d   1      33.194  20.926 -24.202  0.00  0.00     0.100 A 
BRANCH  17  20
ATOM     20  C   UNL d   1      33.195  22.697 -22.929  0.00  0.00     0.080 C 
BRANCH  20  21
ATOM     21  C   UNL d   1      32.872  22.911 -22.205  0.00  0.00     0.020 A 
ATOM     22  C   UNL d   1      33.240  22.683 -21.513  0.00  0.00     0.028 A 
ATOM     23  C   UNL d   1      32.919  22.896 -20.786  0.00  0.00     0.119 A 
ATOM     24  O   UNL d   1      33.170  22.744 -20.010  0.00  0.00    -0.300 OA
ATOM     25  C   UNL d   1      32.225  23.339 -20.757  0.00  0.00     0.119 A 
ATOM     26  C   UNL d   1      32.622  23.099 -19.499  0.00  0.00     0.304 A 
ATOM     27  O   UNL d   1      32.041  23.464 -19.959  0.00  0.00    -0.300 OA
ATOM     28  C   UNL d   1      31.853  23.569 -21.456  0.00  0.00     0.026 A 
ATOM     29  C   UNL d   1      32.177  23.354 -22.187  0.00  0.00     0.004 A 
ENDBRANCH  20  21
ENDBRANCH  17  20
ENDBRANCH  13  14
ENDBRANCH   1  13
TORSDOF 5
ENDMDL
