MODEL 1
REMARK VINA RESULT:      12.2      0.000      0.000
REMARK  6 active torsions:
REMARK  status: ('A' for Active; 'I' for Inactive)
REMARK    1  A    between atoms: N_2  and  S_1 
REMARK    2  A    between atoms: N_3  and  S_1 
REMARK    3  A    between atoms: C_9  and  N_3 
REMARK    4  A    between atoms: C_4  and  C_7 
REMARK    5  A    between atoms: O_12  and  C_4 
REMARK    6  A    between atoms: C_17  and  O_12 
ROOT
ATOM      1  C   UNL d   1      45.565 -14.332  44.469  0.00  0.00     0.064 A 
ATOM      2  C   UNL d   1      45.742 -15.945  44.797  0.00  0.00     0.095 A 
ATOM      3  C   UNL d   1      46.320 -14.637  44.647  0.00  0.00     0.007 A 
ATOM      4  C   UNL d   1      44.890 -14.824  44.447  0.00  0.00     0.007 A 
ATOM      5  C   UNL d   1      44.986 -15.641  44.612  0.00  0.00     0.020 A 
ATOM      6  C   UNL d   1      46.408 -15.444  44.814  0.00  0.00     0.020 A 
ENDROOT
BRANCH   2   7
ATOM      7  N   UNL d   1      45.832 -16.767  44.954  0.00  0.00    -0.144 NA
BRANCH   7   8
ATOM      8  S   UNL d   1      46.033 -17.286  44.347  0.00  0.00     0.351 S 
ATOM      9  O   UNL d   1      45.779 -17.875  44.862  0.00  0.00    -0.180 OA
ATOM     10  O   UNL d   1      46.288 -16.697  43.830  0.00  0.00    -0.180 OA
BRANCH   8  11
ATOM     11  N   UNL d   1      46.213 -17.858  43.782  0.00  0.00    -0.215 N 
ATOM     12  C   UNL d   1      45.957 -17.690  43.011  0.00  0.00     0.093 C 
ATOM     13  C   UNL d   1      46.075 -18.133  42.327  0.00  0.00     0.020 C 
ATOM     14  C   UNL d   1      46.375 -18.899  42.262  0.00  0.00     0.002 C 
ATOM     15  C   UNL d   1      46.630 -19.407  42.857  0.00  0.00     0.002 C 
ATOM     16  C   UNL d   1      46.647 -19.272  43.667  0.00  0.00     0.020 C 
ATOM     17  C   UNL d   1      46.413 -18.596  44.088  0.00  0.00     0.093 C 
ENDBRANCH   8  11
ENDBRANCH   7   8
ENDBRANCH   2   7
BRANCH   1  18
ATOM     18  C   UNL d   1      45.484 -13.520  44.321  0.00  0.00     0.300 C 
ATOM     19  O   UNL d   1      45.658 -12.980  44.921  0.00  0.00    -0.259 OA
BRANCH  18  20
ATOM     20  O   UNL d   1      45.233 -13.259  43.582  0.00  0.00    -0.271 OA
BRANCH  20  21
ATOM     21  C   UNL d   1      45.137 -12.454  43.430  0.00  0.00     0.126 C 
ATOM     22  C   UNL d   1      44.872 -12.195  42.696  0.00  0.00     0.029 C 
ENDBRANCH  20  21
ENDBRANCH  18  20
ENDBRANCH   1  18
TORSDOF 6
ENDMDL
MODEL 2
REMARK VINA RESULT:      12.3      1.379      4.799
REMARK  6 active torsions:
REMARK  status: ('A' for Active; 'I' for Inactive)
REMARK    1  A    between atoms: N_2  and  S_1 
REMARK    2  A    between atoms: N_3  and  S_1 
REMARK    3  A    between atoms: C_9  and  N_3 
REMARK    4  A    between atoms: C_4  and  C_7 
REMARK    5  A    between atoms: O_12  and  C_4 
REMARK    6  A    between atoms: C_17  and  O_12 
ROOT
ATOM      1  C   UNL d   1      46.080 -17.492  43.720  0.00  0.00     0.064 A 
ATOM      2  C   UNL d   1      45.606 -16.133  44.540  0.00  0.00     0.095 A 
ATOM      3  C   UNL d   1      45.900 -17.540  44.532  0.00  0.00     0.007 A 
ATOM      4  C   UNL d   1      46.022 -16.770  43.304  0.00  0.00     0.007 A 
ATOM      5  C   UNL d   1      45.779 -16.085  43.724  0.00  0.00     0.020 A 
ATOM      6  C   UNL d   1      45.666 -16.860  44.943  0.00  0.00     0.020 A 
ENDROOT
BRANCH   2   7
ATOM      7  N   UNL d   1      45.357 -15.444  44.953  0.00  0.00    -0.144 NA
BRANCH   7   8
ATOM      8  S   UNL d   1      45.454 -14.699  44.615  0.00  0.00     0.351 S 
ATOM      9  O   UNL d   1      44.633 -14.690  44.568  0.00  0.00    -0.180 OA
ATOM     10  O   UNL d   1      46.277 -14.707  44.661  0.00  0.00    -0.180 OA
BRANCH   8  11
ATOM     11  N   UNL d   1      45.482 -13.951  44.271  0.00  0.00    -0.215 N 
ATOM     12  C   UNL d   1      45.959 -13.396  44.662  0.00  0.00     0.093 C 
ATOM     13  C   UNL d   1      46.121 -12.619  44.443  0.00  0.00     0.020 C 
ATOM     14  C   UNL d   1      45.763 -12.172  43.850  0.00  0.00     0.002 C 
ATOM     15  C   UNL d   1      45.160 -12.388  43.331  0.00  0.00     0.002 C 
ATOM     16  C   UNL d   1      44.767 -13.107  43.282  0.00  0.00     0.020 C 
ATOM     17  C   UNL d   1      44.876 -13.794  43.736  0.00  0.00     0.093 C 
ENDBRANCH   8  11
ENDBRANCH   7   8
ENDBRANCH   2   7
BRANCH   1  18
ATOM     18  C   UNL d   1      46.331 -18.175  43.322  0.00  0.00     0.300 C 
ATOM     19  O   UNL d   1      46.551 -18.122  42.528  0.00  0.00    -0.259 OA
BRANCH  18  20
ATOM     20  O   UNL d   1      46.358 -18.895  43.717  0.00  0.00    -0.271 OA
BRANCH  20  21
ATOM     21  C   UNL d   1      46.626 -19.575  43.336  0.00  0.00     0.126 C 
ATOM     22  C   UNL d   1      46.598 -20.306  43.712  0.00  0.00     0.029 C 
ENDBRANCH  20  21
ENDBRANCH  18  20
ENDBRANCH   1  18
TORSDOF 6
ENDMDL
