MODEL 1
REMARK VINA RESULT:      -6.2      0.000      0.000
REMARK  2 active torsions:
REMARK  status: ('A' for Active; 'I' for Inactive)
REMARK       I    between atoms: C_2  and  N_1 
REMARK       I    between atoms: C_3  and  N_1 
REMARK       I    between atoms: N_4  and  C_2 
REMARK    1  A    between atoms: C_9  and  C_3 
REMARK    2  A    between atoms: C_5  and  N_4 
ROOT
ATOM      1  N   UNL d   1     -41.368-121.630 -52.520  0.00  0.00    -0.140 NA
ATOM      2  C   UNL d   1     -41.344-121.553 -51.703  0.00  0.00     0.424 C 
ATOM      3  C   UNL d   1     -41.627-122.326 -52.871  0.00  0.00     0.284 C 
ATOM      4  N   UNL d   1     -41.573-122.155 -51.204  0.00  0.00    -0.329 NA
ATOM      5  O   UNL d   1     -41.122-120.954 -51.170  0.00  0.00    -0.228 OA
ATOM      6  O   UNL d   1     -41.867-122.958 -52.394  0.00  0.00    -0.265 OA
ENDROOT
BRANCH   3   7
ATOM      7  C   UNL d   1     -41.650-122.400 -53.690  0.00  0.00     0.058 A 
ATOM      8  C   UNL d   1     -42.173-121.943 -54.123  0.00  0.00     0.005 A 
ATOM      9  C   UNL d   1     -42.202-122.011 -54.945  0.00  0.00     0.000 A 
ATOM     10  C   UNL d   1     -41.697-122.545 -55.333  0.00  0.00     0.000 A 
ATOM     11  C   UNL d   1     -41.174-123.001 -54.899  0.00  0.00     0.000 A 
ATOM     12  C   UNL d   1     -41.147-122.930 -54.070  0.00  0.00     0.005 A 
ENDBRANCH   3   7
BRANCH   4  13
ATOM     13  C   UNL d   1     -41.775-122.683 -50.610  0.00  0.00     0.219 A 
ATOM     14  N   UNL d   1     -42.542-122.703 -50.321  0.00  0.00    -0.214 NA
ATOM     15  C   UNL d   1     -42.741-123.240 -49.719  0.00  0.00     0.102 A 
ATOM     16  C   UNL d   1     -42.164-123.749 -49.419  0.00  0.00     0.021 A 
ATOM     17  C   UNL d   1     -41.397-123.730 -49.708  0.00  0.00     0.006 A 
ATOM     18  C   UNL d   1     -41.197-123.196 -50.307  0.00  0.00     0.052 A 
ENDBRANCH   4  13
TORSDOF 2
ENDMDL
MODEL 2
REMARK VINA RESULT:      -5.9      0.638      3.924
REMARK  2 active torsions:
REMARK  status: ('A' for Active; 'I' for Inactive)
REMARK       I    between atoms: C_2  and  N_1 
REMARK       I    between atoms: C_3  and  N_1 
REMARK       I    between atoms: N_4  and  C_2 
REMARK    1  A    between atoms: C_9  and  C_3 
REMARK    2  A    between atoms: C_5  and  N_4 
ROOT
ATOM      1  N   UNL d   1     -41.611-121.865 -50.990  0.00  0.00    -0.140 NA
ATOM      2  C   UNL d   1     -41.435-121.539 -51.723  0.00  0.00     0.424 C 
ATOM      3  C   UNL d   1     -41.926-122.621 -50.930  0.00  0.00     0.284 C 
ATOM      4  N   UNL d   1     -41.561-121.943 -52.419  0.00  0.00    -0.329 NA
ATOM      5  O   UNL d   1     -41.123-120.816 -51.991  0.00  0.00    -0.228 OA
ATOM      6  O   UNL d   1     -42.067-123.061 -51.616  0.00  0.00    -0.265 OA
ENDROOT
BRANCH   3   7
ATOM      7  C   UNL d   1     -42.101-122.945 -50.194  0.00  0.00     0.058 A 
ATOM      8  C   UNL d   1     -42.800-122.743 -49.819  0.00  0.00     0.005 A 
ATOM      9  C   UNL d   1     -42.983-123.063 -49.081  0.00  0.00     0.000 A 
ATOM     10  C   UNL d   1     -42.456-123.592 -48.718  0.00  0.00     0.000 A 
ATOM     11  C   UNL d   1     -41.757-123.794 -49.094  0.00  0.00     0.000 A 
ATOM     12  C   UNL d   1     -41.575-123.469 -49.839  0.00  0.00     0.005 A 
ENDBRANCH   3   7
BRANCH   4  13
ATOM     13  C   UNL d   1     -41.644-122.249 -53.175  0.00  0.00     0.219 A 
ATOM     14  N   UNL d   1     -42.237-121.971 -53.669  0.00  0.00    -0.214 NA
ATOM     15  C   UNL d   1     -42.316-122.285 -54.434  0.00  0.00     0.102 A 
ATOM     16  C   UNL d   1     -41.797-122.874 -54.689  0.00  0.00     0.021 A 
ATOM     17  C   UNL d   1     -41.204-123.152 -54.196  0.00  0.00     0.006 A 
ATOM     18  C   UNL d   1     -41.123-122.841 -53.434  0.00  0.00     0.052 A 
ENDBRANCH   4  13
TORSDOF 2
ENDMDL
MODEL 3
REMARK VINA RESULT:      -4.2      1.762      4.751
REMARK  2 active torsions:
REMARK  status: ('A' for Active; 'I' for Inactive)
REMARK       I    between atoms: C_2  and  N_1 
REMARK       I    between atoms: C_3  and  N_1 
REMARK       I    between atoms: N_4  and  C_2 
REMARK    1  A    between atoms: C_9  and  C_3 
REMARK    2  A    between atoms: C_5  and  N_4 
ROOT
ATOM      1  N   UNL d   1     -42.955-122.634 -49.281  0.00  0.00    -0.140 NA
ATOM      2  C   UNL d   1     -43.088-122.439 -50.067  0.00  0.00     0.424 C 
ATOM      3  C   UNL d   1     -42.256-122.996 -49.048  0.00  0.00     0.284 C 
ATOM      4  N   UNL d   1     -42.540-122.592 -50.650  0.00  0.00    -0.329 NA
ATOM      5  O   UNL d   1     -43.707-122.081 -50.493  0.00  0.00    -0.228 OA
ATOM      6  O   UNL d   1     -41.677-123.166 -49.614  0.00  0.00    -0.265 OA
ENDROOT
BRANCH   3   7
ATOM      7  C   UNL d   1     -42.126-123.190 -48.259  0.00  0.00     0.058 A 
ATOM      8  C   UNL d   1     -41.428-122.964 -47.896  0.00  0.00     0.005 A 
ATOM      9  C   UNL d   1     -41.290-123.154 -47.105  0.00  0.00     0.000 A 
ATOM     10  C   UNL d   1     -41.863-123.577 -46.677  0.00  0.00     0.000 A 
ATOM     11  C   UNL d   1     -42.561-123.804 -47.040  0.00  0.00     0.000 A 
ATOM     12  C   UNL d   1     -42.697-123.609 -47.839  0.00  0.00     0.005 A 
ENDBRANCH   3   7
BRANCH   4  13
ATOM     13  C   UNL d   1     -42.070-122.696 -51.314  0.00  0.00     0.219 A 
ATOM     14  N   UNL d   1     -42.032-123.429 -51.680  0.00  0.00    -0.214 NA
ATOM     15  C   UNL d   1     -41.554-123.528 -52.353  0.00  0.00     0.102 A 
ATOM     16  C   UNL d   1     -41.123-122.888 -52.645  0.00  0.00     0.021 A 
ATOM     17  C   UNL d   1     -41.161-122.155 -52.279  0.00  0.00     0.006 A 
ATOM     18  C   UNL d   1     -41.636-122.054 -51.610  0.00  0.00     0.052 A 
ENDBRANCH   4  13
TORSDOF 2
ENDMDL
MODEL 4
REMARK VINA RESULT:      -3.6      1.781      2.761
REMARK  2 active torsions:
REMARK  status: ('A' for Active; 'I' for Inactive)
REMARK       I    between atoms: C_2  and  N_1 
REMARK       I    between atoms: C_3  and  N_1 
REMARK       I    between atoms: N_4  and  C_2 
REMARK    1  A    between atoms: C_9  and  C_3 
REMARK    2  A    between atoms: C_5  and  N_4 
ROOT
ATOM      1  N   UNL d   1     -42.890-122.920 -50.356  0.00  0.00    -0.140 NA
ATOM      2  C   UNL d   1     -43.190-123.073 -49.607  0.00  0.00     0.424 C 
ATOM      3  C   UNL d   1     -42.091-122.766 -50.467  0.00  0.00     0.284 C 
ATOM      4  N   UNL d   1     -42.717-123.079 -48.943  0.00  0.00    -0.329 NA
ATOM      5  O   UNL d   1     -43.940-123.246 -49.292  0.00  0.00    -0.228 OA
ATOM      6  O   UNL d   1     -41.581-122.764 -49.816  0.00  0.00    -0.265 OA
ENDROOT
BRANCH   3   7
ATOM      7  C   UNL d   1     -41.794-122.614 -51.219  0.00  0.00     0.058 A 
ATOM      8  C   UNL d   1     -41.870-121.865 -51.541  0.00  0.00     0.005 A 
ATOM      9  C   UNL d   1     -41.576-121.704 -52.294  0.00  0.00     0.000 A 
ATOM     10  C   UNL d   1     -41.200-122.305 -52.727  0.00  0.00     0.000 A 
ATOM     11  C   UNL d   1     -41.123-123.054 -52.406  0.00  0.00     0.000 A 
ATOM     12  C   UNL d   1     -41.423-123.213 -51.644  0.00  0.00     0.005 A 
ENDBRANCH   3   7
BRANCH   4  13
ATOM     13  C   UNL d   1     -42.344-123.112 -48.214  0.00  0.00     0.219 A 
ATOM     14  N   UNL d   1     -42.414-122.486 -47.688  0.00  0.00    -0.214 NA
ATOM     15  C   UNL d   1     -42.034-122.524 -46.950  0.00  0.00     0.102 A 
ATOM     16  C   UNL d   1     -41.589-123.192 -46.754  0.00  0.00     0.021 A 
ATOM     17  C   UNL d   1     -41.519-123.817 -47.280  0.00  0.00     0.006 A 
ATOM     18  C   UNL d   1     -41.896-123.781 -48.015  0.00  0.00     0.052 A 
ENDBRANCH   4  13
TORSDOF 2
ENDMDL
