MODEL 1
REMARK VINA RESULT:      17.5      0.000      0.000
REMARK  2 active torsions:
REMARK  status: ('A' for Active; 'I' for Inactive)
REMARK    1  A    between atoms: N_2  and  S_1 
REMARK    2  A    between atoms: C_3  and  S_1 
ROOT
ATOM      1  S   UNL d   1     -52.032  24.958  33.388  0.00  0.00     0.272 S 
ATOM      2  O   UNL d   1     -51.618  24.244  33.370  0.00  0.00    -0.200 OA
ATOM      3  O   UNL d   1     -52.449  25.668  33.406  0.00  0.00    -0.200 OA
ENDROOT
BRANCH   1   4
ATOM      4  N   UNL d   1     -52.745  24.544  33.398  0.00  0.00    -0.225 N 
ATOM      5  C   UNL d   1     -53.528  24.988  33.310  0.00  0.00     0.118 A 
ATOM      6  C   UNL d   1     -54.312  24.533  33.321  0.00  0.00     0.142 A 
ATOM      7  O   UNL d   1     -54.314  23.633  33.421  0.00  0.00    -0.300 OA
ATOM      8  C   UNL d   1     -53.529  23.188  33.509  0.00  0.00     0.142 A 
ATOM      9  C   UNL d   1     -52.745  23.644  33.498  0.00  0.00     0.118 A 
ENDBRANCH   1   4
BRANCH   1  10
ATOM     10  C   UNL d   1     -51.321  25.375  33.377  0.00  0.00     0.104 A 
ATOM     11  C   UNL d   1     -51.327  26.198  33.354  0.00  0.00     0.015 A 
ATOM     12  C   UNL d   1     -50.615  26.622  33.344  0.00  0.00     0.028 A 
ATOM     13  C   UNL d   1     -50.618  27.447  33.321  0.00  0.00     0.002 C 
ATOM     14  C   UNL d   1     -49.900  26.211  33.357  0.00  0.00     0.140 A 
ATOM     15  C   UNL d   1     -49.897  25.387  33.380  0.00  0.00     0.030 A 
ATOM     16  F   UNL d   1     -49.186  26.625  33.347  0.00  0.00    -0.204 F 
ATOM     17  C   UNL d   1     -50.605  24.965  33.390  0.00  0.00     0.015 A 
ENDBRANCH   1  10
TORSDOF 2
ENDMDL
MODEL 2
REMARK VINA RESULT:      19.7      1.850      3.588
REMARK  2 active torsions:
REMARK  status: ('A' for Active; 'I' for Inactive)
REMARK    1  A    between atoms: N_2  and  S_1 
REMARK    2  A    between atoms: C_3  and  S_1 
ROOT
ATOM      1  S   UNL d   1     -51.228  25.501  33.385  0.00  0.00     0.272 S 
ATOM      2  O   UNL d   1     -50.651  24.917  33.306  0.00  0.00    -0.200 OA
ATOM      3  O   UNL d   1     -51.801  26.087  33.463  0.00  0.00    -0.200 OA
ENDROOT
BRANCH   1   4
ATOM      4  N   UNL d   1     -50.641  26.081  33.386  0.00  0.00    -0.225 N 
ATOM      5  C   UNL d   1     -50.868  26.954  33.325  0.00  0.00     0.118 A 
ATOM      6  C   UNL d   1     -50.222  27.592  33.326  0.00  0.00     0.142 A 
ATOM      7  O   UNL d   1     -49.351  27.356  33.388  0.00  0.00    -0.300 OA
ATOM      8  C   UNL d   1     -49.124  26.480  33.449  0.00  0.00     0.142 A 
ATOM      9  C   UNL d   1     -49.770  25.843  33.448  0.00  0.00     0.118 A 
ENDBRANCH   1   4
BRANCH   1  10
ATOM     10  C   UNL d   1     -51.817  24.924  33.384  0.00  0.00     0.104 A 
ATOM     11  C   UNL d   1     -52.609  25.145  33.345  0.00  0.00     0.015 A 
ATOM     12  C   UNL d   1     -53.205  24.569  33.344  0.00  0.00     0.028 A 
ATOM     13  C   UNL d   1     -54.000  24.787  33.306  0.00  0.00     0.002 C 
ATOM     14  C   UNL d   1     -52.996  23.772  33.383  0.00  0.00     0.140 A 
ATOM     15  C   UNL d   1     -52.202  23.554  33.421  0.00  0.00     0.030 A 
ATOM     16  F   UNL d   1     -53.583  23.192  33.382  0.00  0.00    -0.204 F 
ATOM     17  C   UNL d   1     -51.609  24.127  33.422  0.00  0.00     0.015 A 
ENDBRANCH   1  10
TORSDOF 2
ENDMDL
