MODEL 1
REMARK VINA RESULT:      85.4      0.000      0.000
REMARK  6 active torsions:
REMARK  status: ('A' for Active; 'I' for Inactive)
REMARK    1  A    between atoms: N_4  and  S_1 
REMARK    2  A    between atoms: C_12  and  S_1 
REMARK    3  A    between atoms: N_3  and  C_2 
REMARK    4  A    between atoms: C_7  and  N_4 
REMARK    5  A    between atoms: C_6  and  C_8 
REMARK       I    between atoms: C_8  and  N_13 
REMARK    6  A    between atoms: N_13  and  C_22 
ROOT
ATOM      1  C   UNL d   1     -56.084 -99.991 -44.276  0.00  0.00     0.106 A 
ATOM      2  C   UNL d   1     -56.269 -99.767 -43.511  0.00  0.00     0.015 A 
ATOM      3  C   UNL d   1     -55.739-100.726 -44.432  0.00  0.00     0.015 A 
ATOM      4  C   UNL d   1     -55.764-101.019 -43.035  0.00  0.00     0.085 A 
ATOM      5  C   UNL d   1     -55.579-101.241 -43.808  0.00  0.00     0.020 A 
ATOM      6  C   UNL d   1     -56.108-100.283 -42.887  0.00  0.00     0.020 A 
ENDROOT
BRANCH   1   7
ATOM      7  S   UNL d   1     -56.244 -99.476 -44.901  0.00  0.00     0.300 S 
ATOM      8  O   UNL d   1     -55.447 -99.468 -45.111  0.00  0.00    -0.198 OA
ATOM      9  O   UNL d   1     -57.049 -99.475 -44.701  0.00  0.00    -0.198 OA
BRANCH   7  10
ATOM     10  N   UNL d   1     -56.411 -98.957 -45.529  0.00  0.00     0.034 NA
BRANCH  10  11
ATOM     11  C   UNL d   1     -57.180 -98.890 -45.819  0.00  0.00     0.760 A 
ATOM     12  N   UNL d   1     -57.829 -98.866 -45.288  0.00  0.00    -0.059 NA
ATOM     13  C   UNL d   1     -58.599 -98.800 -45.578  0.00  0.00     0.102 A 
ATOM     14  C   UNL d   1     -59.238 -98.776 -45.054  0.00  0.00     0.021 C 
ATOM     15  C   UNL d   1     -58.728 -98.757 -46.392  0.00  0.00     0.041 A 
ATOM     16  C   UNL d   1     -58.079 -98.781 -46.923  0.00  0.00     0.120 A 
ATOM     17  N   UNL d   1     -57.316 -98.847 -46.627  0.00  0.00    -0.057 NA
ENDBRANCH  10  11
ENDBRANCH   7  10
ENDBRANCH   1   7
BRANCH   4  18
ATOM     18  N   UNL d   1     -55.600-101.543 -42.404  0.00  0.00    -0.208 NA
ATOM     19  C   UNL d   1     -55.344-101.250 -41.674  0.00  0.00     0.285 C 
ATOM     20  O   UNL d   1     -55.251-100.434 -41.575  0.00  0.00    -0.265 OA
BRANCH  19  21
ATOM     21  C   UNL d   1     -55.184-101.770 -41.054  0.00  0.00     0.089 A 
ATOM     22  S   UNL d   1     -55.442-101.690 -40.268  0.00  0.00    -0.059 SA
ATOM     23  C   UNL d   1     -55.145-102.341 -39.851  0.00  0.00     0.156 A 
ATOM     24  C   UNL d   1     -54.712-102.811 -40.379  0.00  0.00     0.031 A 
ATOM     25  C   UNL d   1     -54.743-102.453 -41.108  0.00  0.00     0.014 A 
BRANCH  23  26
ATOM     26  N   UNL d   1     -55.271-102.486 -39.036  0.00  0.00    -0.107 N 
ATOM     27  O   UNL d   1     -54.715-102.243 -38.473  0.00  0.00    -0.531 OA
ATOM     28  O   UNL d   1     -55.962-102.877 -38.798  0.00  0.00    -0.531 OA
ENDBRANCH  23  26
ENDBRANCH  19  21
ENDBRANCH   4  18
TORSDOF 6
ENDMDL
