MODEL 1
REMARK VINA RESULT:      48.8      0.000      0.000
REMARK  6 active torsions:
REMARK  status: ('A' for Active; 'I' for Inactive)
REMARK    1  A    between atoms: C_3  and  N_1 
REMARK    2  A    between atoms: N_7  and  C_3 
REMARK    3  A    between atoms: C_9  and  C_4 
REMARK    4  A    between atoms: C_10  and  C_5 
REMARK    5  A    between atoms: C_15  and  N_7 
REMARK    6  A    between atoms: O_23  and  C_17 
ROOT
ATOM      1  N   UNL d   1      46.022 -15.457  44.260  0.00  0.00    -0.203 N 
ATOM      2  N   UNL d   1      46.416 -16.189  44.148  0.00  0.00    -0.163 NA
ATOM      3  C   UNL d   1      45.854 -16.784  44.207  0.00  0.00     0.103 A 
ATOM      4  C   UNL d   1      45.214 -15.617  44.388  0.00  0.00     0.087 A 
ATOM      5  C   UNL d   1      45.128 -16.463  44.351  0.00  0.00     0.040 A 
ENDROOT
BRANCH   1   6
ATOM      6  C   UNL d   1      46.373 -14.693  44.247  0.00  0.00     0.222 C 
ATOM      7  S   UNL d   1      46.488 -14.297  44.954  0.00  0.00    -0.037 SA
BRANCH   6   8
ATOM      8  N   UNL d   1      46.595 -14.356  43.531  0.00  0.00    -0.217 NA
BRANCH   8   9
ATOM      9  C   UNL d   1      46.328 -13.606  43.329  0.00  0.00     0.084 A 
ATOM     10  C   UNL d   1      46.374 -12.998  43.899  0.00  0.00     0.019 A 
ATOM     11  C   UNL d   1      46.107 -12.244  43.699  0.00  0.00     0.002 A 
ATOM     12  C   UNL d   1      45.811 -12.118  42.959  0.00  0.00     0.000 A 
ATOM     13  C   UNL d   1      45.767 -12.712  42.404  0.00  0.00     0.002 A 
ATOM     14  C   UNL d   1      46.025 -13.454  42.588  0.00  0.00     0.019 A 
ENDBRANCH   8   9
ENDBRANCH   6   8
ENDBRANCH   1   6
BRANCH   4  15
ATOM     15  C   UNL d   1      44.586 -15.088  44.528  0.00  0.00     0.018 A 
ATOM     16  C   UNL d   1      44.731 -14.304  44.736  0.00  0.00     0.004 A 
ATOM     17  C   UNL d   1      44.099 -13.788  44.872  0.00  0.00     0.024 A 
ATOM     18  C   UNL d   1      43.340 -14.042  44.805  0.00  0.00     0.094 A 
ATOM     19  C   UNL d   1      43.177 -14.844  44.593  0.00  0.00     0.024 A 
ATOM     20  C   UNL d   1      43.810 -15.353  44.459  0.00  0.00     0.004 A 
BRANCH  18  21
ATOM     21  O   UNL d   1      42.718 -13.479  44.954  0.00  0.00    -0.328 OA
ATOM     22  C   UNL d   1      42.049 -13.448  44.449  0.00  0.00     0.181 C 
ENDBRANCH  18  21
ENDBRANCH   4  15
BRANCH   3  23
ATOM     23  C   UNL d   1      46.050 -17.583  44.124  0.00  0.00     0.019 A 
ATOM     24  C   UNL d   1      45.970 -18.104  44.745  0.00  0.00     0.002 A 
ATOM     25  C   UNL d   1      46.165 -18.899  44.663  0.00  0.00     0.007 A 
ATOM     26  C   UNL d   1      46.446 -19.173  43.936  0.00  0.00     0.035 A 
ATOM     27  C   UNL d   1      46.529 -18.648  43.298  0.00  0.00     0.007 A 
ATOM     28 BR   UNL d   1      46.646 -19.971  43.836  0.00  0.00    -0.049 Br
ATOM     29  C   UNL d   1      46.334 -17.848  43.381  0.00  0.00     0.002 A 
ENDBRANCH   3  23
TORSDOF 6
ENDMDL
