MODEL 1
REMARK VINA RESULT:      63.7      0.000      0.000
REMARK  8 active torsions:
REMARK  status: ('A' for Active; 'I' for Inactive)
REMARK    1  A    between atoms: N_6  and  C_1 
REMARK       I    between atoms: C_2  and  N_3 
REMARK    2  A    between atoms: C_7  and  C_2 
REMARK    3  A    between atoms: N_3  and  C_4 
REMARK    4  A    between atoms: C_4  and  N_6 
REMARK    5  A    between atoms: C_10  and  C_8 
REMARK    6  A    between atoms: C_12  and  C_10 
REMARK    7  A    between atoms: O_18  and  C_12 
REMARK    8  A    between atoms: C_21  and  O_18 
ROOT
ATOM      1  C   UNL d   1      60.257  48.725  50.583  0.00  0.00     0.277 C 
ATOM      2  S   UNL d   1      60.599  49.250  51.122  0.00  0.00    -0.023 SA
ENDROOT
BRANCH   1   3
ATOM      3  N   UNL d   1      59.500  48.882  50.293  0.00  0.00    -0.168 NA
ATOM      4  C   UNL d   1      58.938  49.246  50.771  0.00  0.00     0.282 C 
ATOM      5  O   UNL d   1      59.123  49.459  51.542  0.00  0.00    -0.265 OA
BRANCH   4   6
ATOM      6  C   UNL d   1      58.178  49.401  50.473  0.00  0.00     0.064 A 
ATOM      7  C   UNL d   1      57.549  49.495  50.991  0.00  0.00     0.039 A 
ATOM      8 BR   UNL d   1      57.662  49.439  51.800  0.00  0.00    -0.049 Br
ATOM      9  C   UNL d   1      56.796  49.648  50.687  0.00  0.00     0.007 A 
ATOM     10  C   UNL d   1      56.674  49.706  49.867  0.00  0.00     0.001 A 
ATOM     11  C   UNL d   1      57.322  49.608  49.357  0.00  0.00     0.000 A 
ATOM     12  C   UNL d   1      58.072  49.456  49.658  0.00  0.00     0.005 A 
ENDBRANCH   4   6
ENDBRANCH   1   3
BRANCH   1  13
ATOM     13  N   UNL d   1      60.667  48.057  50.340  0.00  0.00    -0.347 NA
BRANCH  13  14
ATOM     14  C   UNL d   1      61.083  47.385  50.096  0.00  0.00     0.248 A 
ATOM     15  N   UNL d   1      60.799  46.605  50.106  0.00  0.00    -0.210 NA
ATOM     16  C   UNL d   1      61.398  46.117  49.815  0.00  0.00     0.096 A 
ATOM     17  C   UNL d   1      62.051  46.593  49.625  0.00  0.00     0.059 A 
ATOM     18  S   UNL d   1      61.849  47.370  49.800  0.00  0.00    -0.033 SA
BRANCH  16  19
ATOM     19  C   UNL d   1      61.358  45.302  49.727  0.00  0.00     0.088 C 
BRANCH  19  20
ATOM     20  C   UNL d   1      61.750  44.800  50.253  0.00  0.00     0.302 C 
ATOM     21  O   UNL d   1      62.569  44.723  50.204  0.00  0.00    -0.259 OA
BRANCH  20  22
ATOM     22  O   UNL d   1      61.330  44.381  50.821  0.00  0.00    -0.271 OA
BRANCH  22  23
ATOM     23  C   UNL d   1      61.458  43.568  50.908  0.00  0.00     0.126 C 
ATOM     24  C   UNL d   1      61.809  43.286  51.596  0.00  0.00     0.029 C 
ENDBRANCH  22  23
ENDBRANCH  20  22
ENDBRANCH  19  20
ENDBRANCH  16  19
ENDBRANCH  13  14
ENDBRANCH   1  13
TORSDOF 8
ENDMDL
MODEL 2
REMARK VINA RESULT:      64.5      3.342      4.750
REMARK  8 active torsions:
REMARK  status: ('A' for Active; 'I' for Inactive)
REMARK    1  A    between atoms: N_6  and  C_1 
REMARK       I    between atoms: C_2  and  N_3 
REMARK    2  A    between atoms: C_7  and  C_2 
REMARK    3  A    between atoms: N_3  and  C_4 
REMARK    4  A    between atoms: C_4  and  N_6 
REMARK    5  A    between atoms: C_10  and  C_8 
REMARK    6  A    between atoms: C_12  and  C_10 
REMARK    7  A    between atoms: O_18  and  C_12 
REMARK    8  A    between atoms: C_21  and  O_18 
ROOT
ATOM      1  C   UNL d   1      56.746  49.196  52.802  0.00  0.00     0.277 C 
ATOM      2  S   UNL d   1      56.037  49.579  52.621  0.00  0.00    -0.023 SA
ENDROOT
BRANCH   1   3
ATOM      3  N   UNL d   1      56.791  48.732  53.484  0.00  0.00    -0.168 NA
ATOM      4  C   UNL d   1      56.438  48.984  54.183  0.00  0.00     0.282 C 
ATOM      5  O   UNL d   1      56.038  49.700  54.212  0.00  0.00    -0.265 OA
BRANCH   4   6
ATOM      6  C   UNL d   1      56.488  48.512  54.865  0.00  0.00     0.064 A 
ATOM      7  C   UNL d   1      56.568  48.867  55.601  0.00  0.00     0.039 A 
ATOM      8 BR   UNL d   1      56.600  49.683  55.670  0.00  0.00    -0.049 Br
ATOM      9  C   UNL d   1      56.617  48.391  56.274  0.00  0.00     0.007 A 
ATOM     10  C   UNL d   1      56.585  47.564  56.212  0.00  0.00     0.001 A 
ATOM     11  C   UNL d   1      56.503  47.221  55.460  0.00  0.00     0.000 A 
ATOM     12  C   UNL d   1      56.455  47.693  54.788  0.00  0.00     0.005 A 
ENDBRANCH   4   6
ENDBRANCH   1   3
BRANCH   1  13
ATOM     13  N   UNL d   1      57.397  49.277  52.309  0.00  0.00    -0.347 NA
BRANCH  13  14
ATOM     14  C   UNL d   1      58.054  49.358  51.812  0.00  0.00     0.248 A 
ATOM     15  N   UNL d   1      58.826  49.104  51.979  0.00  0.00    -0.210 NA
ATOM     16  C   UNL d   1      59.298  49.298  51.330  0.00  0.00     0.096 A 
ATOM     17  C   UNL d   1      58.820  49.671  50.763  0.00  0.00     0.059 A 
ATOM     18  S   UNL d   1      58.057  49.703  51.067  0.00  0.00    -0.033 SA
BRANCH  16  19
ATOM     19  C   UNL d   1      60.102  49.149  51.255  0.00  0.00     0.088 C 
BRANCH  19  20
ATOM     20  C   UNL d   1      60.477  49.209  50.522  0.00  0.00     0.302 C 
ATOM     21  O   UNL d   1      60.156  49.701  49.944  0.00  0.00    -0.259 OA
BRANCH  20  22
ATOM     22  O   UNL d   1      61.161  48.783  50.367  0.00  0.00    -0.271 OA
BRANCH  22  23
ATOM     23  C   UNL d   1      61.125  47.958  50.304  0.00  0.00     0.126 C 
ATOM     24  C   UNL d   1      61.660  47.497  50.724  0.00  0.00     0.029 C 
ENDBRANCH  22  23
ENDBRANCH  20  22
ENDBRANCH  19  20
ENDBRANCH  16  19
ENDBRANCH  13  14
ENDBRANCH   1  13
TORSDOF 8
ENDMDL
