MODEL 1
REMARK VINA RESULT:      44.2      0.000      0.000
REMARK  1 active torsions:
REMARK  status: ('A' for Active; 'I' for Inactive)
REMARK    1  A    between atoms: C_5  and  C_1 
ROOT
ATOM      1  N   UNL d   1     -54.959-101.405 -38.760  0.00  0.00    -0.242 NA
ATOM      2  C   UNL d   1     -54.953-102.091 -39.217  0.00  0.00     0.117 A 
ATOM      3  C   UNL d   1     -55.004-101.477 -37.930  0.00  0.00     0.081 A 
ATOM      4  C   UNL d   1     -54.991-102.826 -38.875  0.00  0.00     0.022 A 
ATOM      5  C   UNL d   1     -55.041-102.203 -37.587  0.00  0.00     0.018 A 
ATOM      6  C   UNL d   1     -55.035-102.872 -38.052  0.00  0.00     0.003 A 
ATOM      7  C   UNL d   1     -55.009-100.796 -37.469  0.00  0.00     0.019 A 
ATOM      8  C   UNL d   1     -55.085-102.250 -36.763  0.00  0.00     0.002 A 
ATOM      9  C   UNL d   1     -55.053-100.855 -36.642  0.00  0.00     0.002 A 
ATOM     10  C   UNL d   1     -55.091-101.586 -36.300  0.00  0.00     0.000 A 
ENDROOT
BRANCH   2  11
ATOM     11  C   UNL d   1     -54.910-102.045 -40.032  0.00  0.00     0.180 A 
ATOM     12  N   UNL d   1     -54.836-101.351 -40.487  0.00  0.00    -0.224 NA
ATOM     13  C   UNL d   1     -54.814-101.567 -41.268  0.00  0.00     0.101 A 
ATOM     14  C   UNL d   1     -54.746-101.115 -41.972  0.00  0.00     0.021 A 
ATOM     15  C   UNL d   1     -54.872-102.389 -41.318  0.00  0.00     0.101 A 
ATOM     16  C   UNL d   1     -54.737-101.486 -42.706  0.00  0.00     0.002 A 
ATOM     17  C   UNL d   1     -54.796-102.308 -42.755  0.00  0.00     0.002 A 
ATOM     18  C   UNL d   1     -54.863-102.767 -42.072  0.00  0.00     0.021 A 
ATOM     19  N   UNL d   1     -54.931-102.691 -40.568  0.00  0.00    -0.224 NA
ENDBRANCH   2  11
TORSDOF 1
ENDMDL
