MODEL 1
REMARK VINA RESULT:     119.5      0.000      0.000
REMARK  8 active torsions:
REMARK  status: ('A' for Active; 'I' for Inactive)
REMARK    1  A    between atoms: C_9  and  S_1 
REMARK    2  A    between atoms: N_10  and  S_1 
REMARK    3  A    between atoms: C_17  and  C_3 
REMARK    4  A    between atoms: C_4  and  N_14 
REMARK    5  A    between atoms: C_8  and  C_16 
REMARK       I    between atoms: N_11  and  C_8 
REMARK    6  A    between atoms: C_27  and  N_10 
REMARK    7  A    between atoms: C_28  and  N_10 
REMARK    8  A    between atoms: N_14  and  N_11 
ROOT
ATOM      1  N   UNL d   1      60.965  47.157  50.708  0.00  0.00     0.049 NA
ENDROOT
BRANCH   1   2
ATOM      2  C   UNL d   1      61.213  46.338  50.544  0.00  0.00     0.768 A 
ATOM      3  N   UNL d   1      61.002  45.736  51.062  0.00  0.00    -0.058 NA
ATOM      4  C   UNL d   1      61.237  44.972  50.904  0.00  0.00     0.101 A 
ATOM      5  C   UNL d   1      61.685  44.779  50.234  0.00  0.00     0.037 A 
ATOM      6  C   UNL d   1      61.887  45.409  49.723  0.00  0.00     0.101 A 
ATOM      7  C   UNL d   1      61.920  44.023  50.074  0.00  0.00     0.010 A 
ATOM      8  N   UNL d   1      61.662  46.178  49.863  0.00  0.00    -0.058 NA
ATOM      9  C   UNL d   1      62.335  45.258  49.040  0.00  0.00     0.020 A 
ATOM     10  C   UNL d   1      62.570  44.502  48.880  0.00  0.00     0.008 A 
ATOM     11  C   UNL d   1      62.358  43.851  49.413  0.00  0.00     0.035 A 
ATOM     12 BR   UNL d   1      62.598  43.051  49.258  0.00  0.00    -0.049 Br
BRANCH   4  13
ATOM     13  C   UNL d   1      61.040  44.339  51.408  0.00  0.00     0.018 A 
ATOM     14  C   UNL d   1      61.595  43.981  51.872  0.00  0.00     0.002 A 
ATOM     15  C   UNL d   1      61.389  43.346  52.376  0.00  0.00     0.000 A 
ATOM     16  C   UNL d   1      60.578  43.087  52.386  0.00  0.00     0.000 A 
ATOM     17  C   UNL d   1      60.038  43.473  51.902  0.00  0.00     0.000 A 
ATOM     18  C   UNL d   1      60.249  44.073  51.430  0.00  0.00     0.002 A 
ENDBRANCH   4  13
ENDBRANCH   1   2
BRANCH   1  19
ATOM     19  N   UNL d   1      61.534  47.750  50.814  0.00  0.00    -0.090 NA
ATOM     20  C   UNL d   1      61.319  48.533  50.875  0.00  0.00     0.297 C 
ATOM     21  O   UNL d   1      61.862  49.110  50.977  0.00  0.00    -0.264 OA
BRANCH  20  22
ATOM     22  C   UNL d   1      60.534  48.735  50.831  0.00  0.00     0.059 A 
ATOM     23  C   UNL d   1      60.312  49.502  51.046  0.00  0.00     0.006 A 
ATOM     24  C   UNL d   1      59.521  49.703  51.001  0.00  0.00     0.013 A 
ATOM     25  C   UNL d   1      58.980  49.151  50.748  0.00  0.00     0.104 A 
ATOM     26  C   UNL d   1      59.194  48.366  50.525  0.00  0.00     0.013 A 
ATOM     27  C   UNL d   1      59.999  48.175  50.576  0.00  0.00     0.006 A 
BRANCH  25  28
ATOM     28  S   UNL d   1      58.161  49.362  50.702  0.00  0.00     0.271 S 
ATOM     29  O   UNL d   1      58.129  49.484  51.522  0.00  0.00    -0.200 OA
ATOM     30  O   UNL d   1      58.148  49.252  49.875  0.00  0.00    -0.200 OA
BRANCH  28  31
ATOM     31  N   UNL d   1      57.338  49.576  50.660  0.00  0.00    -0.229 N 
BRANCH  31  32
ATOM     32  C   UNL d   1      56.964  49.678  49.938  0.00  0.00     0.092 C 
ATOM     33  C   UNL d   1      56.432  49.136  49.664  0.00  0.00     0.021 C 
ENDBRANCH  31  32
BRANCH  31  34
ATOM     34  C   UNL d   1      56.896  49.684  51.349  0.00  0.00     0.092 C 
ATOM     35  C   UNL d   1      56.077  49.588  51.333  0.00  0.00     0.021 C 
ENDBRANCH  31  34
ENDBRANCH  28  31
ENDBRANCH  25  28
ENDBRANCH  20  22
ENDBRANCH   1  19
TORSDOF 8
ENDMDL
MODEL 2
REMARK VINA RESULT:     121.8      2.325      5.456
REMARK  8 active torsions:
REMARK  status: ('A' for Active; 'I' for Inactive)
REMARK    1  A    between atoms: C_9  and  S_1 
REMARK    2  A    between atoms: N_10  and  S_1 
REMARK    3  A    between atoms: C_17  and  C_3 
REMARK    4  A    between atoms: C_4  and  N_14 
REMARK    5  A    between atoms: C_8  and  C_16 
REMARK       I    between atoms: N_11  and  C_8 
REMARK    6  A    between atoms: C_27  and  N_10 
REMARK    7  A    between atoms: C_28  and  N_10 
REMARK    8  A    between atoms: N_14  and  N_11 
ROOT
ATOM      1  N   UNL d   1      60.540  49.378  50.881  0.00  0.00     0.049 NA
ENDROOT
BRANCH   1   2
ATOM      2  C   UNL d   1      59.685  49.434  50.715  0.00  0.00     0.768 A 
ATOM      3  N   UNL d   1      59.151  49.479  51.337  0.00  0.00    -0.058 NA
ATOM      4  C   UNL d   1      58.354  49.531  51.177  0.00  0.00     0.101 A 
ATOM      5  C   UNL d   1      58.061  49.539  50.402  0.00  0.00     0.037 A 
ATOM      6  C   UNL d   1      58.625  49.491  49.786  0.00  0.00     0.101 A 
ATOM      7  C   UNL d   1      57.271  49.590  50.239  0.00  0.00     0.010 A 
ATOM      8  N   UNL d   1      59.424  49.439  49.927  0.00  0.00    -0.058 NA
ATOM      9  C   UNL d   1      58.372  49.497  48.995  0.00  0.00     0.020 A 
ATOM     10  C   UNL d   1      57.582  49.547  48.832  0.00  0.00     0.008 A 
ATOM     11  C   UNL d   1      57.000  49.596  49.473  0.00  0.00     0.035 A 
ATOM     12 BR   UNL d   1      56.168  49.650  49.317  0.00  0.00    -0.049 Br
BRANCH   4  13
ATOM     13  C   UNL d   1      57.786  49.578  51.784  0.00  0.00     0.018 A 
ATOM     14  C   UNL d   1      58.002  49.634  52.560  0.00  0.00     0.002 A 
ATOM     15  C   UNL d   1      57.426  49.681  53.164  0.00  0.00     0.000 A 
ATOM     16  C   UNL d   1      56.605  49.669  52.939  0.00  0.00     0.000 A 
ATOM     17  C   UNL d   1      56.419  49.612  52.140  0.00  0.00     0.000 A 
ATOM     18  C   UNL d   1      56.977  49.568  51.580  0.00  0.00     0.002 A 
ENDBRANCH   4  13
ENDBRANCH   1   2
BRANCH   1  19
ATOM     19  N   UNL d   1      61.090  49.594  50.300  0.00  0.00    -0.090 NA
ATOM     20  C   UNL d   1      61.497  49.030  49.878  0.00  0.00     0.297 C 
ATOM     21  O   UNL d   1      62.029  49.229  49.316  0.00  0.00    -0.264 OA
BRANCH  20  22
ATOM     22  C   UNL d   1      61.361  48.244  50.029  0.00  0.00     0.059 A 
ATOM     23  C   UNL d   1      61.013  47.782  49.437  0.00  0.00     0.006 A 
ATOM     24  C   UNL d   1      60.878  46.992  49.593  0.00  0.00     0.013 A 
ATOM     25  C   UNL d   1      61.087  46.682  50.315  0.00  0.00     0.104 A 
ATOM     26  C   UNL d   1      61.443  47.142  50.927  0.00  0.00     0.013 A 
ATOM     27  C   UNL d   1      61.575  47.942  50.757  0.00  0.00     0.006 A 
BRANCH  25  28
ATOM     28  S   UNL d   1      60.946  45.862  50.473  0.00  0.00     0.271 S 
ATOM     29  O   UNL d   1      61.718  45.667  50.242  0.00  0.00    -0.200 OA
ATOM     30  O   UNL d   1      60.161  46.012  50.713  0.00  0.00    -0.200 OA
BRANCH  28  31
ATOM     31  N   UNL d   1      60.807  45.037  50.630  0.00  0.00    -0.229 N 
BRANCH  31  32
ATOM     32  C   UNL d   1      60.053  44.719  50.588  0.00  0.00     0.092 C 
ATOM     33  C   UNL d   1      59.728  44.334  51.220  0.00  0.00     0.021 C 
ENDBRANCH  31  32
BRANCH  31  34
ATOM     34  C   UNL d   1      61.433  44.536  50.829  0.00  0.00     0.092 C 
ATOM     35  C   UNL d   1      61.372  43.725  50.692  0.00  0.00     0.021 C 
ENDBRANCH  31  34
ENDBRANCH  28  31
ENDBRANCH  25  28
ENDBRANCH  20  22
ENDBRANCH   1  19
TORSDOF 8
ENDMDL
