MODEL 1
REMARK VINA RESULT:      -8.9      0.000      0.000
REMARK  2 active torsions:
REMARK  status: ('A' for Active; 'I' for Inactive)
REMARK    1  A    between atoms: C_3  and  C_1 
REMARK       I    between atoms: C_2  and  N_4 
REMARK    2  A    between atoms: N_4  and  C_12 
ROOT
ATOM      1  C   UNL d   1      54.627  33.188  54.618  0.00  0.00     0.072 A 
ATOM      2  C   UNL d   1      54.876  32.936  53.871  0.00  0.00     0.005 A 
ATOM      3  C   UNL d   1      53.865  33.009  54.881  0.00  0.00     0.005 A 
ATOM      4  C   UNL d   1      53.599  32.329  53.653  0.00  0.00     0.100 A 
ATOM      5  C   UNL d   1      54.362  32.507  53.389  0.00  0.00     0.020 A 
ATOM      6  C   UNL d   1      53.351  32.580  54.398  0.00  0.00     0.020 A 
ENDROOT
BRANCH   1   7
ATOM      7  C   UNL d   1      55.142  33.619  55.103  0.00  0.00     0.419 C 
ATOM      8  F   UNL d   1      55.610  34.010  55.544  0.00  0.00    -0.166 F 
ATOM      9  F   UNL d   1      55.734  34.212  54.886  0.00  0.00    -0.166 F 
ATOM     10  F   UNL d   1      55.231  33.594  55.961  0.00  0.00    -0.166 F 
ENDBRANCH   1   7
BRANCH   4  11
ATOM     11  N   UNL d   1      53.081  31.899  53.173  0.00  0.00    -0.056 NA
ATOM     12  C   UNL d   1      53.086  31.071  53.188  0.00  0.00     0.787 C 
ATOM     13  N   UNL d   1      52.571  30.638  52.711  0.00  0.00     0.064 N 
ATOM     14  N   UNL d   1      53.615  30.679  53.689  0.00  0.00     0.064 N 
ENDBRANCH   4  11
TORSDOF 2
ENDMDL
MODEL 2
REMARK VINA RESULT:      -8.8      1.767      2.117
REMARK  2 active torsions:
REMARK  status: ('A' for Active; 'I' for Inactive)
REMARK    1  A    between atoms: C_3  and  C_1 
REMARK       I    between atoms: C_2  and  N_4 
REMARK    2  A    between atoms: N_4  and  C_12 
ROOT
ATOM      1  C   UNL d   1      53.935  33.544  54.575  0.00  0.00     0.072 A 
ATOM      2  C   UNL d   1      53.832  33.111  53.879  0.00  0.00     0.005 A 
ATOM      3  C   UNL d   1      53.491  34.227  54.707  0.00  0.00     0.005 A 
ATOM      4  C   UNL d   1      52.838  34.046  53.449  0.00  0.00     0.100 A 
ATOM      5  C   UNL d   1      53.283  33.363  53.316  0.00  0.00     0.020 A 
ATOM      6  C   UNL d   1      52.942  34.478  54.144  0.00  0.00     0.020 A 
ENDROOT
BRANCH   1   7
ATOM      7  C   UNL d   1      54.486  33.292  55.141  0.00  0.00     0.419 C 
ATOM      8  F   UNL d   1      54.985  33.064  55.655  0.00  0.00    -0.166 F 
ATOM      9  F   UNL d   1      55.294  33.568  55.282  0.00  0.00    -0.166 F 
ATOM     10  F   UNL d   1      54.405  32.684  55.748  0.00  0.00    -0.166 F 
ENDBRANCH   1   7
BRANCH   4  11
ATOM     11  N   UNL d   1      52.288  34.302  52.888  0.00  0.00    -0.056 NA
ATOM     12  C   UNL d   1      51.524  33.980  52.873  0.00  0.00     0.787 C 
ATOM     13  N   UNL d   1      50.972  34.232  52.315  0.00  0.00     0.064 N 
ATOM     14  N   UNL d   1      51.320  33.400  53.426  0.00  0.00     0.064 N 
ENDBRANCH   4  11
TORSDOF 2
ENDMDL
MODEL 3
REMARK VINA RESULT:      -8.3      3.298      3.832
REMARK  2 active torsions:
REMARK  status: ('A' for Active; 'I' for Inactive)
REMARK    1  A    between atoms: C_3  and  C_1 
REMARK       I    between atoms: C_2  and  N_4 
REMARK    2  A    between atoms: N_4  and  C_12 
ROOT
ATOM      1  C   UNL d   1      51.908  34.117  52.918  0.00  0.00     0.072 A 
ATOM      2  C   UNL d   1      51.948  33.388  53.303  0.00  0.00     0.005 A 
ATOM      3  C   UNL d   1      52.407  34.734  53.147  0.00  0.00     0.005 A 
ATOM      4  C   UNL d   1      52.988  33.894  54.146  0.00  0.00     0.100 A 
ATOM      5  C   UNL d   1      52.488  33.277  53.917  0.00  0.00     0.020 A 
ATOM      6  C   UNL d   1      52.947  34.622  53.761  0.00  0.00     0.020 A 
ENDROOT
BRANCH   1   7
ATOM      7  C   UNL d   1      51.366  34.231  52.301  0.00  0.00     0.419 C 
ATOM      8  F   UNL d   1      50.874  34.334  51.742  0.00  0.00    -0.166 F 
ATOM      9  F   UNL d   1      51.496  34.214  51.445  0.00  0.00    -0.166 F 
ATOM     10  F   UNL d   1      50.520  34.398  52.342  0.00  0.00    -0.166 F 
ENDBRANCH   1   7
BRANCH   4  11
ATOM     11  N   UNL d   1      53.530  33.786  54.760  0.00  0.00    -0.056 NA
ATOM     12  C   UNL d   1      54.244  33.389  54.624  0.00  0.00     0.787 C 
ATOM     13  N   UNL d   1      54.788  33.279  55.234  0.00  0.00     0.064 N 
ATOM     14  N   UNL d   1      54.408  33.101  53.866  0.00  0.00     0.064 N 
ENDBRANCH   4  11
TORSDOF 2
ENDMDL
MODEL 4
REMARK VINA RESULT:      -8.2      2.832      3.531
REMARK  2 active torsions:
REMARK  status: ('A' for Active; 'I' for Inactive)
REMARK    1  A    between atoms: C_3  and  C_1 
REMARK       I    between atoms: C_2  and  N_4 
REMARK    2  A    between atoms: N_4  and  C_12 
ROOT
ATOM      1  C   UNL d   1      53.185  31.150  53.298  0.00  0.00     0.072 A 
ATOM      2  C   UNL d   1      52.624  31.620  52.913  0.00  0.00     0.005 A 
ATOM      3  C   UNL d   1      53.826  31.501  53.683  0.00  0.00     0.005 A 
ATOM      4  C   UNL d   1      53.348  32.792  53.299  0.00  0.00     0.100 A 
ATOM      5  C   UNL d   1      52.707  32.441  52.915  0.00  0.00     0.020 A 
ATOM      6  C   UNL d   1      53.907  32.322  53.683  0.00  0.00     0.020 A 
ENDROOT
BRANCH   1   7
ATOM      7  C   UNL d   1      53.103  30.325  53.297  0.00  0.00     0.419 C 
ATOM      8  F   UNL d   1      53.029  29.577  53.296  0.00  0.00    -0.166 F 
ATOM      9  F   UNL d   1      53.012  29.781  53.965  0.00  0.00    -0.166 F 
ATOM     10  F   UNL d   1      53.087  29.779  52.629  0.00  0.00    -0.166 F 
ENDBRANCH   1   7
BRANCH   4  11
ATOM     11  N   UNL d   1      53.434  33.614  53.303  0.00  0.00    -0.056 NA
ATOM     12  C   UNL d   1      53.032  34.075  53.862  0.00  0.00     0.787 C 
ATOM     13  N   UNL d   1      53.115  34.896  53.869  0.00  0.00     0.064 N 
ATOM     14  N   UNL d   1      52.543  33.703  54.416  0.00  0.00     0.064 N 
ENDBRANCH   4  11
TORSDOF 2
ENDMDL
