MODEL 1
REMARK VINA RESULT:       0.3      0.000      0.000
REMARK  5 active torsions:
REMARK  status: ('A' for Active; 'I' for Inactive)
REMARK    1  A    between atoms: C_8  and  N_1 
REMARK    2  A    between atoms: S_4  and  C_10 
REMARK    3  A    between atoms: C_5  and  C_8 
REMARK       I    between atoms: N_9  and  C_5 
REMARK    4  A    between atoms: C_20  and  C_8 
REMARK    5  A    between atoms: C_19  and  N_9 
ROOT
ATOM      1  C   UNL d   1     -41.868-122.548 -52.122  0.00  0.00     0.140 C 
ENDROOT
BRANCH   1   2
ATOM      2  C   UNL d   1     -41.545-123.197 -51.729  0.00  0.00     0.344 C 
ATOM      3  N   UNL d   1     -41.646-123.271 -50.918  0.00  0.00    -0.363 NA
ATOM      4  O   UNL d   1     -41.123-123.767 -52.152  0.00  0.00    -0.249 OA
BRANCH   3   5
ATOM      5  C   UNL d   1     -41.730-123.370 -50.112  0.00  0.00     0.135 A 
ATOM      6  C   UNL d   1     -42.405-123.716 -49.787  0.00  0.00     0.033 A 
ATOM      7  C   UNL d   1     -42.477-123.809 -48.971  0.00  0.00     0.016 A 
ATOM      8  C   UNL d   1     -41.861-123.551 -48.477  0.00  0.00     0.107 A 
ATOM      9  C   UNL d   1     -41.187-123.206 -48.802  0.00  0.00     0.016 A 
ATOM     10  C   UNL d   1     -41.123-123.116 -49.620  0.00  0.00     0.033 A 
BRANCH   8  11
ATOM     11  S   UNL d   1     -41.933-123.645 -47.660  0.00  0.00     0.302 S 
ATOM     12  O   UNL d   1     -42.706-123.479 -47.709  0.00  0.00    -0.197 OA
ATOM     13  O   UNL d   1     -41.128-123.817 -47.613  0.00  0.00    -0.197 OA
ATOM     14  N   UNL d   1     -42.001-123.739 -46.847  0.00  0.00    -0.043 N 
ENDBRANCH   8  11
ENDBRANCH   3   5
ENDBRANCH   1   2
BRANCH   1  15
ATOM     15  N   UNL d   1     -41.852-122.515 -52.947  0.00  0.00    -0.236 N 
ATOM     16  C   UNL d   1     -41.510-121.921 -53.407  0.00  0.00     0.267 A 
ATOM     17  C   UNL d   1     -41.623-122.115 -54.207  0.00  0.00     0.061 A 
ATOM     18  O   UNL d   1     -41.123-121.251 -53.122  0.00  0.00    -0.267 OA
ATOM     19  C   UNL d   1     -41.408-121.739 -54.917  0.00  0.00     0.005 A 
ATOM     20  C   UNL d   1     -42.040-122.838 -54.238  0.00  0.00     0.061 A 
ATOM     21  C   UNL d   1     -41.603-122.074 -55.640  0.00  0.00     0.000 A 
ATOM     22  C   UNL d   1     -42.015-122.789 -55.666  0.00  0.00     0.000 A 
ATOM     23  C   UNL d   1     -42.233-123.169 -54.970  0.00  0.00     0.005 A 
ATOM     24  C   UNL d   1     -42.182-123.086 -53.460  0.00  0.00     0.267 A 
ATOM     25  O   UNL d   1     -42.576-123.771 -53.240  0.00  0.00    -0.267 OA
ENDBRANCH   1  15
BRANCH   1  26
ATOM     26  C   UNL d   1     -42.204-121.941 -51.691  0.00  0.00     0.022 C 
ATOM     27  C   UNL d   1     -43.013-121.919 -51.555  0.00  0.00     0.002 C 
ATOM     28  C   UNL d   1     -41.724-121.342 -51.387  0.00  0.00     0.002 C 
ENDBRANCH   1  26
TORSDOF 5
ENDMDL
