MODEL 1
REMARK VINA RESULT:      68.8      0.000      0.000
REMARK  6 active torsions:
REMARK  status: ('A' for Active; 'I' for Inactive)
REMARK    1  A    between atoms: C_9  and  N_1 
REMARK    2  A    between atoms: S_14  and  C_3 
REMARK    3  A    between atoms: N_8  and  C_10 
REMARK    4  A    between atoms: C_18  and  C_9 
REMARK    5  A    between atoms: C_19  and  S_14 
REMARK    6  A    between atoms: C_20  and  C_18 
ROOT
ATOM      1  N   UNL d   1      46.240 -13.412  37.210  0.00  0.00    -0.195 NA
ATOM      2  C   UNL d   1      46.158 -14.118  36.766  0.00  0.00     0.086 C 
ATOM      3  C   UNL d   1      46.069 -14.806  36.338  0.00  0.00     0.170 C 
ENDROOT
BRANCH   3   4
ATOM      4  S   UNL d   1      45.405 -15.284  36.451  0.00  0.00    -0.060 SA
BRANCH   4   5
ATOM      5  C   UNL d   1      45.343 -15.762  37.128  0.00  0.00     0.178 A 
ATOM      6  N   UNL d   1      44.604 -16.020  37.389  0.00  0.00    -0.253 N 
ATOM      7  C   UNL d   1      44.545 -16.496  38.063  0.00  0.00     0.268 A 
ATOM      8  C   UNL d   1      45.233 -16.706  38.466  0.00  0.00     0.076 A 
ATOM      9  O   UNL d   1      43.810 -16.752  38.323  0.00  0.00    -0.267 OA
ATOM     10  C   UNL d   1      45.169 -17.176  39.132  0.00  0.00     0.024 A 
ATOM     11  C   UNL d   1      45.965 -16.450  38.208  0.00  0.00     0.088 A 
ATOM     12  C   UNL d   1      45.849 -17.397  39.550  0.00  0.00     0.065 A 
ATOM     13  C   UNL d   1      46.587 -17.132  39.278  0.00  0.00     0.019 A 
ATOM     14  C   UNL d   1      46.647 -16.664  38.614  0.00  0.00     0.021 A 
ATOM     15  N   UNL d   1      46.028 -15.978  37.539  0.00  0.00    -0.222 NA
BRANCH   6  16
ATOM     16  C   UNL d   1      43.927 -15.800  36.974  0.00  0.00     0.085 C 
BRANCH  16  17
ATOM     17  C   UNL d   1      43.258 -15.552  37.388  0.00  0.00     0.019 C 
BRANCH  17  18
ATOM     18  C   UNL d   1      42.510 -15.599  37.035  0.00  0.00     0.002 A 
ATOM     19  C   UNL d   1      42.109 -16.315  37.016  0.00  0.00     0.000 A 
ATOM     20  C   UNL d   1      41.364 -16.365  36.666  0.00  0.00     0.000 A 
ATOM     21  C   UNL d   1      41.019 -15.687  36.331  0.00  0.00     0.000 A 
ATOM     22  C   UNL d   1      41.427 -14.966  36.352  0.00  0.00     0.000 A 
ATOM     23  C   UNL d   1      42.172 -14.916  36.703  0.00  0.00     0.000 A 
ENDBRANCH  17  18
ENDBRANCH  16  17
ENDBRANCH   6  16
BRANCH  12  24
ATOM     24  N   UNL d   1      45.795 -17.869  40.219  0.00  0.00    -0.300 N 
ATOM     25  C   UNL d   1      46.395 -18.413  40.393  0.00  0.00     0.107 A 
ATOM     26  C   UNL d   1      46.333 -18.881  41.065  0.00  0.00     0.142 A 
ATOM     27  O   UNL d   1      45.677 -18.811  41.566  0.00  0.00    -0.300 OA
ATOM     28  C   UNL d   1      45.078 -18.267  41.392  0.00  0.00     0.142 A 
ATOM     29  C   UNL d   1      45.136 -17.793  40.715  0.00  0.00     0.107 A 
ENDBRANCH  12  24
ENDBRANCH   4   5
ENDBRANCH   3   4
TORSDOF 6
ENDMDL
