MODEL 1
REMARK VINA RESULT:      78.0      0.000      0.000
REMARK  9 active torsions:
REMARK  status: ('A' for Active; 'I' for Inactive)
REMARK    1  A    between atoms: N_4  and  C_1 
REMARK       I    between atoms: C_8  and  N_4 
REMARK    2  A    between atoms: C_19  and  N_4 
REMARK    3  A    between atoms: S_6  and  C_11 
REMARK    4  A    between atoms: C_14  and  S_6 
REMARK    5  A    between atoms: C_10  and  C_8 
REMARK    6  A    between atoms: C_11  and  C_10 
REMARK    7  A    between atoms: C_20  and  C_19 
REMARK    8  A    between atoms: C_23  and  C_20 
REMARK    9  A    between atoms: N_21  and  C_23 
ROOT
ATOM      1  N   UNL d   1      60.767  48.270  50.716  0.00  0.00    -0.253 N 
ATOM      2  C   UNL d   1      60.093  48.550  50.324  0.00  0.00     0.267 C 
ATOM      3  O   UNL d   1      59.636  48.046  49.872  0.00  0.00    -0.267 OA
ENDROOT
BRANCH   1   4
ATOM      4  C   UNL d   1      60.973  47.465  50.644  0.00  0.00     0.182 A 
ATOM      5  N   UNL d   1      61.189  47.088  49.946  0.00  0.00    -0.222 NA
ATOM      6  C   UNL d   1      61.350  46.291  50.118  0.00  0.00     0.089 A 
ATOM      7  C   UNL d   1      61.583  45.670  49.649  0.00  0.00     0.018 A 
ATOM      8  C   UNL d   1      61.229  46.184  50.926  0.00  0.00     0.050 A 
ATOM      9  C   UNL d   1      61.704  44.921  49.976  0.00  0.00     0.002 A 
ATOM     10  C   UNL d   1      61.704  45.779  48.837  0.00  0.00     0.002 C 
ATOM     11  C   UNL d   1      61.939  44.292  49.511  0.00  0.00     0.000 C 
ATOM     12  C   UNL d   1      61.584  44.817  50.780  0.00  0.00     0.001 A 
ATOM     13  C   UNL d   1      61.346  45.452  51.250  0.00  0.00     0.008 A 
ATOM     14  S   UNL d   1      60.996  46.907  51.257  0.00  0.00    -0.048 SA
ENDBRANCH   1   4
BRANCH   1  15
ATOM     15  C   UNL d   1      61.228  48.779  51.171  0.00  0.00     0.086 C 
BRANCH  15  16
ATOM     16  C   UNL d   1      60.865  49.375  51.621  0.00  0.00     0.038 C 
BRANCH  16  17
ATOM     17  C   UNL d   1      61.266  49.708  52.261  0.00  0.00     0.082 C 
BRANCH  17  18
ATOM     18  N   UNL d   1      60.990  49.587  53.028  0.00  0.00    -0.300 N 
ATOM     19  C   UNL d   1      61.523  49.435  53.639  0.00  0.00     0.100 C 
ATOM     20  C   UNL d   1      60.182  49.620  53.182  0.00  0.00     0.100 C 
ENDBRANCH  17  18
ENDBRANCH  16  17
ENDBRANCH  15  16
ENDBRANCH   1  15
BRANCH   2  21
ATOM     21  C   UNL d   1      59.891  49.350  50.397  0.00  0.00     0.073 C 
BRANCH  21  22
ATOM     22  C   UNL d   1      59.423  49.703  49.809  0.00  0.00     0.104 C 
BRANCH  22  23
ATOM     23  S   UNL d   1      58.597  49.704  49.874  0.00  0.00     0.211 S 
ATOM     24  O   UNL d   1      58.666  49.700  50.700  0.00  0.00    -0.217 OA
ATOM     25  O   UNL d   1      58.530  49.707  49.039  0.00  0.00    -0.217 OA
BRANCH  23  26
ATOM     26  C   UNL d   1      57.773  49.705  49.939  0.00  0.00     0.088 A 
ATOM     27  C   UNL d   1      57.427  49.705  50.682  0.00  0.00     0.011 A 
ATOM     28  C   UNL d   1      56.596  49.706  50.748  0.00  0.00     0.001 A 
ATOM     29  C   UNL d   1      56.137  49.706  50.069  0.00  0.00     0.000 A 
ATOM     30  C   UNL d   1      56.480  49.706  49.327  0.00  0.00     0.001 A 
ATOM     31  C   UNL d   1      57.302  49.705  49.262  0.00  0.00     0.011 A 
ENDBRANCH  23  26
ENDBRANCH  22  23
ENDBRANCH  21  22
ENDBRANCH   2  21
TORSDOF 9
ENDMDL
