MODEL 1
REMARK VINA RESULT:      -5.0      0.000      0.000
REMARK  4 active torsions:
REMARK  status: ('A' for Active; 'I' for Inactive)
REMARK    1  A    between atoms: C_10  and  N_3 
REMARK    2  A    between atoms: C_12  and  N_7 
REMARK    3  A    between atoms: C_19  and  C_12 
REMARK    4  A    between atoms: C_20  and  C_19 
ROOT
ATOM      1  C   UNL d   1     -41.599-122.379 -52.037  0.00  0.00     0.172 A 
ATOM      2  C   UNL d   1     -41.356-121.901 -51.410  0.00  0.00     0.113 A 
ATOM      3  N   UNL d   1     -41.525-121.932 -52.733  0.00  0.00    -0.212 N 
ATOM      4  N   UNL d   1     -41.853-123.147 -51.897  0.00  0.00    -0.206 NA
ATOM      5  C   UNL d   1     -41.366-122.191 -50.643  0.00  0.00     0.270 A 
ATOM      6  N   UNL d   1     -41.240-121.194 -52.526  0.00  0.00    -0.162 NA
ATOM      7  N   UNL d   1     -41.621-122.965 -50.496  0.00  0.00    -0.255 N 
ATOM      8  C   UNL d   1     -41.135-121.168 -51.730  0.00  0.00     0.129 A 
ATOM      9  C   UNL d   1     -41.865-123.442 -51.123  0.00  0.00     0.187 A 
ATOM     10  O   UNL d   1     -41.123-121.713 -50.016  0.00  0.00    -0.266 OA
ENDROOT
BRANCH   3  11
ATOM     11  C   UNL d   1     -41.693-122.150 -53.499  0.00  0.00     0.085 A 
ATOM     12  C   UNL d   1     -41.361-122.838 -53.816  0.00  0.00     0.021 A 
ATOM     13  C   UNL d   1     -41.533-123.055 -54.590  0.00  0.00     0.031 A 
ATOM     14  C   UNL d   1     -42.026-122.606 -55.055  0.00  0.00     0.140 A 
ATOM     15  C   UNL d   1     -42.365-121.905 -54.734  0.00  0.00     0.031 A 
ATOM     16  F   UNL d   1     -42.189-122.844 -55.843  0.00  0.00    -0.204 F 
ATOM     17  C   UNL d   1     -42.200-121.681 -53.965  0.00  0.00     0.021 A 
ENDBRANCH   3  11
BRANCH   7  18
ATOM     18  C   UNL d   1     -41.635-123.267 -49.719  0.00  0.00     0.085 C 
BRANCH  18  19
ATOM     19  C   UNL d   1     -42.327-123.617 -49.420  0.00  0.00     0.019 C 
BRANCH  19  20
ATOM     20  C   UNL d   1     -42.395-123.751 -48.602  0.00  0.00     0.002 C 
ATOM     21  C   UNL d   1     -43.146-123.817 -48.269  0.00  0.00     0.000 C 
ATOM     22  C   UNL d   1     -41.726-123.817 -48.138  0.00  0.00     0.000 C 
ENDBRANCH  19  20
ENDBRANCH  18  19
ENDBRANCH   7  18
TORSDOF 4
ENDMDL
