MODEL 1
REMARK VINA RESULT:      90.7      0.000      0.000
REMARK  3 active torsions:
REMARK  status: ('A' for Active; 'I' for Inactive)
REMARK    1  A    between atoms: C_11  and  N_1 
REMARK    2  A    between atoms: C_3  and  C_2 
REMARK    3  A    between atoms: C_13  and  C_16 
ROOT
ATOM      1  N   UNL d   1     -55.237-101.518 -40.443  0.00  0.00    -0.260 N 
ATOM      2  C   UNL d   1     -55.110-101.460 -39.122  0.00  0.00     0.093 A 
ATOM      3  C   UNL d   1     -55.438-102.238 -40.178  0.00  0.00     0.153 A 
ATOM      4  C   UNL d   1     -55.029-101.017 -39.809  0.00  0.00     0.272 A 
ATOM      5  S   UNL d   1     -55.363-102.216 -39.356  0.00  0.00    -0.053 SA
ATOM      6  S   UNL d   1     -55.676-102.879 -40.645  0.00  0.00    -0.052 SA
ATOM      7  O   UNL d   1     -54.789-100.229 -39.852  0.00  0.00    -0.266 OA
ENDROOT
BRANCH   2   8
ATOM      8  C   UNL d   1     -54.973-101.227 -38.355  0.00  0.00     0.068 A 
ATOM      9  C   UNL d   1     -54.819-100.458 -38.129  0.00  0.00     0.258 A 
ATOM     10  N   UNL d   1     -54.712-100.430 -37.330  0.00  0.00    -0.321 N 
ATOM     11  O   UNL d   1     -54.780 -99.811 -38.643  0.00  0.00    -0.267 OA
ATOM     12  H   UNL d   1     -54.546 -99.749 -36.891  0.00  0.00     0.169 HD
ATOM     13  C   UNL d   1     -54.799-101.196 -37.036  0.00  0.00     0.059 A 
ATOM     14  C   UNL d   1     -54.960-101.694 -37.661  0.00  0.00     0.021 A 
ATOM     15  C   UNL d   1     -54.748-101.498 -36.256  0.00  0.00     0.017 A 
ATOM     16  C   UNL d   1     -55.074-102.494 -37.536  0.00  0.00     0.002 A 
ATOM     17  C   UNL d   1     -55.027-102.803 -36.775  0.00  0.00     0.000 A 
ATOM     18  C   UNL d   1     -54.864-102.306 -36.134  0.00  0.00     0.002 A 
ENDBRANCH   2   8
BRANCH   1  19
ATOM     19  C   UNL d   1     -55.221-101.259 -41.212  0.00  0.00     0.068 A 
ATOM     20  C   UNL d   1     -54.712-101.583 -41.759  0.00  0.00     0.018 A 
ATOM     21  C   UNL d   1     -54.712-101.301 -42.549  0.00  0.00     0.008 A 
ATOM     22  C   UNL d   1     -55.225-100.702 -42.760  0.00  0.00     0.065 A 
ATOM     23  C   UNL d   1     -55.742-100.374 -42.203  0.00  0.00     0.008 A 
ATOM     24  C   UNL d   1     -55.741-100.647 -41.443  0.00  0.00     0.018 A 
BRANCH  22  25
ATOM     25  C   UNL d   1     -55.212-100.427 -43.568  0.00  0.00     0.211 C 
ATOM     26  O   UNL d   1     -55.698-100.787 -44.136  0.00  0.00    -0.644 OA
ATOM     27  O   UNL d   1     -54.714 -99.801 -43.787  0.00  0.00    -0.644 OA
ENDBRANCH  22  25
ENDBRANCH   1  19
TORSDOF 3
ENDMDL
