MODEL 1
REMARK VINA RESULT:      -0.9      0.000      0.000
REMARK  9 active torsions:
REMARK  status: ('A' for Active; 'I' for Inactive)
REMARK    1  A    between atoms: C_6  and  N_1 
REMARK    2  A    between atoms: C_2  and  O_5 
REMARK    3  A    between atoms: C_8  and  C_3 
REMARK    4  A    between atoms: C_4  and  C_9 
REMARK    5  A    between atoms: O_5  and  C_4 
REMARK    6  A    between atoms: C_7  and  C_8 
REMARK    7  A    between atoms: C_13  and  C_7 
REMARK    8  A    between atoms: C_10  and  C_13 
REMARK    9  A    between atoms: O_25  and  C_23 
ROOT
ATOM      1  C   UNL d   1      58.692  -0.335  30.836  0.00  0.00     0.108 A 
ATOM      2  C   UNL d   1      59.077  -0.478  30.120  0.00  0.00     0.062 A 
ATOM      3  C   UNL d   1      59.095   0.054  31.453  0.00  0.00     0.049 A 
ATOM      4  C   UNL d   1      59.867  -0.231  30.019  0.00  0.00     0.007 A 
ATOM      5  C   UNL d   1      59.877   0.296  31.349  0.00  0.00     0.096 A 
ATOM      6  C   UNL d   1      60.262   0.153  30.632  0.00  0.00     0.024 A 
ENDROOT
BRANCH   1   7
ATOM      7  O   UNL d   1      57.908  -0.577  30.944  0.00  0.00    -0.273 OA
BRANCH   7   8
ATOM      8  C   UNL d   1      57.408  -0.140  31.439  0.00  0.00     0.300 C 
ATOM      9  O   UNL d   1      57.461   0.681  31.464  0.00  0.00    -0.259 OA
BRANCH   8  10
ATOM     10  C   UNL d   1      56.856  -0.534  31.907  0.00  0.00     0.065 A 
ATOM     11  C   UNL d   1      56.441  -0.113  32.480  0.00  0.00     0.029 A 
ATOM     12  C   UNL d   1      55.891  -0.503  32.947  0.00  0.00     0.127 A 
ATOM     13  C   UNL d   1      55.756  -1.312  32.842  0.00  0.00     0.024 A 
ATOM     14  C   UNL d   1      56.174  -1.721  32.269  0.00  0.00     0.002 A 
ATOM     15  C   UNL d   1      56.723  -1.334  31.802  0.00  0.00     0.005 A 
BRANCH  12  16
ATOM     16  N   UNL d   1      55.473  -0.083  33.524  0.00  0.00    -0.114 N 
ATOM     17  O   UNL d   1      55.766  -0.037  34.292  0.00  0.00    -0.532 OA
ATOM     18  O   UNL d   1      54.753   0.294  33.329  0.00  0.00    -0.532 OA
ENDBRANCH  12  16
ENDBRANCH   8  10
ENDBRANCH   7   8
ENDBRANCH   1   7
BRANCH   2  19
ATOM     19  C   UNL d   1      58.678  -0.864  29.505  0.00  0.00     0.198 C 
ATOM     20  O   UNL d   1      58.064  -0.481  29.106  0.00  0.00    -0.286 OA
BRANCH  19  21
ATOM     21  C   UNL d   1      58.895  -1.632  29.292  0.00  0.00     0.043 C 
BRANCH  21  22
ATOM     22  C   UNL d   1      58.369  -2.103  28.865  0.00  0.00     0.010 C 
BRANCH  22  23
ATOM     23  C   UNL d   1      58.547  -2.897  28.730  0.00  0.00     0.030 A 
ATOM     24  S   UNL d   1      59.297  -3.245  28.746  0.00  0.00    -0.086 SA
ATOM     25  C   UNL d   1      59.219  -4.049  28.580  0.00  0.00     0.035 A 
ATOM     26  C   UNL d   1      58.418  -4.209  28.460  0.00  0.00     0.007 A 
ATOM     27  C   UNL d   1      58.002  -3.498  28.552  0.00  0.00     0.007 A 
ENDBRANCH  22  23
ENDBRANCH  21  22
ENDBRANCH  19  21
ENDBRANCH   2  19
BRANCH   5  28
ATOM     28  O   UNL d   1      60.272   0.681  31.962  0.00  0.00    -0.328 OA
ATOM     29  C   UNL d   1      60.930   0.324  32.318  0.00  0.00     0.181 C 
ENDBRANCH   5  28
TORSDOF 9
ENDMDL
MODEL 2
REMARK VINA RESULT:       0.0      2.543      4.884
REMARK  9 active torsions:
REMARK  status: ('A' for Active; 'I' for Inactive)
REMARK    1  A    between atoms: C_6  and  N_1 
REMARK    2  A    between atoms: C_2  and  O_5 
REMARK    3  A    between atoms: C_8  and  C_3 
REMARK    4  A    between atoms: C_4  and  C_9 
REMARK    5  A    between atoms: O_5  and  C_4 
REMARK    6  A    between atoms: C_7  and  C_8 
REMARK    7  A    between atoms: C_13  and  C_7 
REMARK    8  A    between atoms: C_10  and  C_13 
REMARK    9  A    between atoms: O_25  and  C_23 
ROOT
ATOM      1  C   UNL d   1      58.766  -0.976  29.685  0.00  0.00     0.108 A 
ATOM      2  C   UNL d   1      58.237  -0.583  30.182  0.00  0.00     0.062 A 
ATOM      3  C   UNL d   1      59.375  -0.549  29.308  0.00  0.00     0.049 A 
ATOM      4  C   UNL d   1      58.314   0.238  30.304  0.00  0.00     0.007 A 
ATOM      5  C   UNL d   1      59.448   0.263  29.431  0.00  0.00     0.096 A 
ATOM      6  C   UNL d   1      58.919   0.657  29.928  0.00  0.00     0.024 A 
ENDROOT
BRANCH   1   7
ATOM      7  O   UNL d   1      58.695  -1.790  29.560  0.00  0.00    -0.273 OA
BRANCH   7   8
ATOM      8  C   UNL d   1      59.292  -2.197  29.155  0.00  0.00     0.300 C 
ATOM      9  O   UNL d   1      60.007  -1.827  28.987  0.00  0.00    -0.259 OA
BRANCH   8  10
ATOM     10  C   UNL d   1      59.163  -2.977  28.921  0.00  0.00     0.065 A 
ATOM     11  C   UNL d   1      59.796  -3.503  28.910  0.00  0.00     0.029 A 
ATOM     12  C   UNL d   1      59.671  -4.279  28.677  0.00  0.00     0.127 A 
ATOM     13  C   UNL d   1      58.915  -4.529  28.455  0.00  0.00     0.024 A 
ATOM     14  C   UNL d   1      58.292  -3.998  28.469  0.00  0.00     0.002 A 
ATOM     15  C   UNL d   1      58.415  -3.223  28.701  0.00  0.00     0.005 A 
BRANCH  12  16
ATOM     16  N   UNL d   1      60.305  -4.810  28.666  0.00  0.00    -0.114 N 
ATOM     17  O   UNL d   1      61.078  -4.527  28.652  0.00  0.00    -0.532 OA
ATOM     18  O   UNL d   1      60.163  -5.634  28.668  0.00  0.00    -0.532 OA
ENDBRANCH  12  16
ENDBRANCH   8  10
ENDBRANCH   7   8
ENDBRANCH   1   7
BRANCH   2  19
ATOM     19  C   UNL d   1      57.631  -1.005  30.558  0.00  0.00     0.198 C 
ATOM     20  O   UNL d   1      57.357  -1.713  30.233  0.00  0.00    -0.286 OA
BRANCH  19  21
ATOM     21  C   UNL d   1      57.301  -0.716  31.258  0.00  0.00     0.043 C 
BRANCH  21  22
ATOM     22  C   UNL d   1      56.875  -1.224  31.750  0.00  0.00     0.010 C 
BRANCH  22  23
ATOM     23  C   UNL d   1      56.412  -0.912  32.358  0.00  0.00     0.030 A 
ATOM     24  S   UNL d   1      55.913  -1.334  32.865  0.00  0.00    -0.086 SA
ATOM     25  C   UNL d   1      55.558  -0.804  33.388  0.00  0.00     0.035 A 
ATOM     26  C   UNL d   1      55.834  -0.047  33.211  0.00  0.00     0.007 A 
ATOM     27  C   UNL d   1      56.362  -0.112  32.574  0.00  0.00     0.007 A 
ENDBRANCH  22  23
ENDBRANCH  21  22
ENDBRANCH  19  21
ENDBRANCH   2  19
BRANCH   5  28
ATOM     28  O   UNL d   1      60.052   0.682  29.056  0.00  0.00    -0.328 OA
ATOM     29  C   UNL d   1      60.807   0.346  28.987  0.00  0.00     0.181 C 
ENDBRANCH   5  28
TORSDOF 9
ENDMDL
