MODEL 1
REMARK VINA RESULT:      28.0      0.000      0.000
REMARK  5 active torsions:
REMARK  status: ('A' for Active; 'I' for Inactive)
REMARK    1  A    between atoms: C_2  and  S_1 
REMARK    2  A    between atoms: N_4  and  S_1 
REMARK    3  A    between atoms: C_11  and  N_4 
REMARK    4  A    between atoms: O_14  and  C_5 
REMARK    5  A    between atoms: O_15  and  C_7 
ROOT
ATOM      1  C   UNL d   1     -57.485 -98.866 -44.276  0.00  0.00     0.129 A 
ATOM      2  C   UNL d   1     -57.886 -98.895 -43.555  0.00  0.00     0.040 A 
ATOM      3  C   UNL d   1     -57.911 -98.799 -44.974  0.00  0.00     0.107 A 
ATOM      4  C   UNL d   1     -58.731 -98.762 -44.965  0.00  0.00     0.034 A 
ATOM      5  C   UNL d   1     -58.710 -98.858 -43.538  0.00  0.00     0.101 A 
ATOM      6  C   UNL d   1     -59.133 -98.792 -44.244  0.00  0.00     0.059 A 
ATOM      7 BR   UNL d   1     -59.961 -98.755 -44.220  0.00  0.00    -0.047 Br
ENDROOT
BRANCH   1   8
ATOM      8  S   UNL d   1     -56.665 -98.903 -44.286  0.00  0.00     0.287 S 
ATOM      9  O   UNL d   1     -56.657 -98.771 -45.092  0.00  0.00    -0.198 OA
ATOM     10  O   UNL d   1     -56.669 -99.037 -43.472  0.00  0.00    -0.198 OA
BRANCH   8  11
ATOM     11  N   UNL d   1     -55.840 -98.942 -44.287  0.00  0.00    -0.157 NA
BRANCH  11  12
ATOM     12  C   UNL d   1     -55.464 -99.665 -44.417  0.00  0.00     0.113 A 
ATOM     13  C   UNL d   1     -55.221 -99.871 -45.170  0.00  0.00     0.119 A 
ATOM     14  N   UNL d   1     -54.845-100.594 -45.299  0.00  0.00    -0.241 NA
ATOM     15  C   UNL d   1     -54.712-101.115 -44.664  0.00  0.00     0.099 A 
ATOM     16  C   UNL d   1     -54.961-100.900 -43.906  0.00  0.00     0.022 A 
ATOM     17  C   UNL d   1     -55.337-100.177 -43.777  0.00  0.00     0.023 A 
ENDBRANCH  11  12
ENDBRANCH   8  11
ENDBRANCH   1   8
BRANCH   3  18
ATOM     18  O   UNL d   1     -57.510 -98.770 -45.697  0.00  0.00    -0.327 OA
ATOM     19  C   UNL d   1     -57.932 -98.785 -46.405  0.00  0.00     0.181 C 
ENDBRANCH   3  18
BRANCH   5  20
ATOM     20  O   UNL d   1     -59.112 -98.888 -42.815  0.00  0.00    -0.328 OA
ATOM     21  C   UNL d   1     -59.937 -98.870 -42.800  0.00  0.00     0.181 C 
ENDBRANCH   5  20
TORSDOF 5
ENDMDL
