MODEL 1
REMARK VINA RESULT:      31.3      0.000      0.000
REMARK  3 active torsions:
REMARK  status: ('A' for Active; 'I' for Inactive)
REMARK       I    between atoms: N_5  and  C_1 
REMARK       I    between atoms: N_6  and  C_1 
REMARK    1  A    between atoms: C_2  and  N_7 
REMARK    2  A    between atoms: C_9  and  N_5 
REMARK    3  A    between atoms: N_7  and  N_6 
ROOT
ATOM      1  C   UNL d   1      58.123  49.526  50.118  0.00  0.00     0.070 A 
ATOM      2  C   UNL d   1      58.854  49.557  49.732  0.00  0.00     0.032 A 
ATOM      3  C   UNL d   1      59.543  49.646  50.146  0.00  0.00     0.087 A 
ATOM      4  C   UNL d   1      58.124  49.588  50.942  0.00  0.00     0.068 A 
ATOM      5  C   UNL d   1      58.827  49.678  51.365  0.00  0.00     0.014 A 
ATOM      6 CL   UNL d   1      57.408  49.435  49.708  0.00  0.00    -0.081 Cl
ATOM      7  C   UNL d   1      59.536  49.707  50.966  0.00  0.00     0.020 A 
ATOM      8 CL   UNL d   1      57.373  49.557  51.361  0.00  0.00    -0.082 Cl
ENDROOT
BRANCH   3   9
ATOM      9  N   UNL d   1      60.291  49.675  49.717  0.00  0.00    -0.190 NA
ATOM     10  C   UNL d   1      61.015  49.569  50.141  0.00  0.00     0.387 C 
ATOM     11  N   UNL d   1      60.996  49.440  50.945  0.00  0.00    -0.086 NA
ATOM     12  O   UNL d   1      61.733  49.597  49.728  0.00  0.00    -0.241 OA
BRANCH  11  13
ATOM     13  N   UNL d   1      60.287  49.413  51.344  0.00  0.00    -0.111 NA
BRANCH  13  14
ATOM     14  C   UNL d   1      60.246  49.163  52.136  0.00  0.00     0.260 C 
ATOM     15  S   UNL d   1      60.102  49.708  52.736  0.00  0.00    -0.034 SA
ATOM     16  N   UNL d   1      60.353  48.359  52.310  0.00  0.00    -0.113 N 
ENDBRANCH  13  14
ENDBRANCH  11  13
ENDBRANCH   3   9
TORSDOF 3
ENDMDL
