MODEL 1
REMARK VINA RESULT:      63.9      0.000      0.000
REMARK  3 active torsions:
REMARK  status: ('A' for Active; 'I' for Inactive)
REMARK    1  A    between atoms: N_5  and  C_1 
REMARK       I    between atoms: C_6  and  N_5 
REMARK    2  A    between atoms: C_8  and  C_6 
REMARK    3  A    between atoms: O_16  and  C_12 
ROOT
ATOM      1  C   UNL d   1     -50.374  26.545  33.322  0.00  0.00     0.124 A 
ATOM      2  C   UNL d   1     -51.137  26.267  33.315  0.00  0.00     0.093 A 
ATOM      3  S   UNL d   1     -49.846  25.918  33.323  0.00  0.00    -0.067 SA
ATOM      4  C   UNL d   1     -51.120  25.447  33.312  0.00  0.00     0.018 A 
ATOM      5  C   UNL d   1     -50.289  25.222  33.317  0.00  0.00     0.032 A 
ATOM      6  C   UNL d   1     -51.867  26.745  33.313  0.00  0.00     0.103 C 
ATOM      7  N   UNL d   1     -52.556  27.211  33.310  0.00  0.00    -0.191 NA
ATOM      8  C   UNL d   1     -51.548  24.746  33.306  0.00  0.00     0.001 A 
ATOM      9  C   UNL d   1     -50.257  24.397  33.313  0.00  0.00     0.006 A 
ATOM     10  C   UNL d   1     -51.031  24.114  33.307  0.00  0.00     0.001 A 
ENDROOT
BRANCH   1  11
ATOM     11  N   UNL d   1     -50.149  27.376  33.327  0.00  0.00    -0.201 NA
ATOM     12  C   UNL d   1     -49.781  27.681  33.988  0.00  0.00     0.281 C 
ATOM     13  O   UNL d   1     -49.607  27.221  34.674  0.00  0.00    -0.265 OA
BRANCH  12  14
ATOM     14  C   UNL d   1     -49.563  28.488  33.994  0.00  0.00     0.080 A 
ATOM     15  C   UNL d   1     -48.890  28.753  34.464  0.00  0.00     0.099 A 
ATOM     16  C   UNL d   1     -48.676  29.545  34.469  0.00  0.00     0.024 A 
ATOM     17  C   UNL d   1     -49.133  30.080  34.004  0.00  0.00     0.002 A 
ATOM     18  C   UNL d   1     -49.736  29.880  33.574  0.00  0.00     0.000 A 
ATOM     19  C   UNL d   1     -49.986  29.056  33.548  0.00  0.00     0.007 A 
BRANCH  15  20
ATOM     20  O   UNL d   1     -48.438  28.220  34.925  0.00  0.00    -0.328 OA
ATOM     21  C   UNL d   1     -47.991  28.480  35.574  0.00  0.00     0.181 C 
ENDBRANCH  15  20
ENDBRANCH  12  14
ENDBRANCH   1  11
TORSDOF 3
ENDMDL
MODEL 2
REMARK VINA RESULT:      64.0      1.527      4.227
REMARK  3 active torsions:
REMARK  status: ('A' for Active; 'I' for Inactive)
REMARK    1  A    between atoms: N_5  and  C_1 
REMARK       I    between atoms: C_6  and  N_5 
REMARK    2  A    between atoms: C_8  and  C_6 
REMARK    3  A    between atoms: O_16  and  C_12 
ROOT
ATOM      1  C   UNL d   1     -48.982  27.652  34.884  0.00  0.00     0.124 A 
ATOM      2  C   UNL d   1     -48.994  28.029  35.604  0.00  0.00     0.093 A 
ATOM      3  S   UNL d   1     -48.441  28.015  34.387  0.00  0.00    -0.067 SA
ATOM      4  C   UNL d   1     -48.457  28.648  35.588  0.00  0.00     0.018 A 
ATOM      5  C   UNL d   1     -48.101  28.639  34.804  0.00  0.00     0.032 A 
ATOM      6  C   UNL d   1     -49.489  27.823  36.292  0.00  0.00     0.103 C 
ATOM      7  N   UNL d   1     -49.966  27.618  36.942  0.00  0.00    -0.191 NA
ATOM      8  C   UNL d   1     -48.109  29.273  35.991  0.00  0.00     0.001 A 
ATOM      9  C   UNL d   1     -47.557  29.259  34.774  0.00  0.00     0.006 A 
ATOM     10  C   UNL d   1     -47.568  29.642  35.504  0.00  0.00     0.001 A 
ENDROOT
BRANCH   1  11
ATOM     11  N   UNL d   1     -49.465  26.972  34.673  0.00  0.00    -0.201 NA
ATOM     12  C   UNL d   1     -49.767  26.923  33.917  0.00  0.00     0.281 C 
ATOM     13  O   UNL d   1     -49.630  27.509  33.325  0.00  0.00    -0.265 OA
BRANCH  12  14
ATOM     14  C   UNL d   1     -50.236  26.262  33.711  0.00  0.00     0.080 A 
ATOM     15  C   UNL d   1     -51.069  26.367  33.507  0.00  0.00     0.099 A 
ATOM     16  C   UNL d   1     -51.530  25.719  33.306  0.00  0.00     0.024 A 
ATOM     17  C   UNL d   1     -51.162  24.959  33.306  0.00  0.00     0.002 A 
ATOM     18  C   UNL d   1     -50.427  24.829  33.481  0.00  0.00     0.000 A 
ATOM     19  C   UNL d   1     -49.918  25.490  33.697  0.00  0.00     0.007 A 
BRANCH  15  20
ATOM     20  O   UNL d   1     -51.431  27.122  33.508  0.00  0.00    -0.328 OA
ATOM     21  C   UNL d   1     -52.240  27.215  33.350  0.00  0.00     0.181 C 
ENDBRANCH  15  20
ENDBRANCH  12  14
ENDBRANCH   1  11
TORSDOF 3
ENDMDL
