MODEL 1
REMARK VINA RESULT:       8.3      0.000      0.000
REMARK  4 active torsions:
REMARK  status: ('A' for Active; 'I' for Inactive)
REMARK    1  A    between atoms: C_2  and  N_1 
REMARK    2  A    between atoms: C_4  and  C_2 
REMARK    3  A    between atoms: C_10  and  C_4 
REMARK    4  A    between atoms: N_7  and  C_6 
ROOT
ATOM      1  C   UNL d   1      13.267  12.429  -3.949  0.00  0.00     0.064 A 
ATOM      2  C   UNL d   1      12.819  11.911  -3.487  0.00  0.00     0.018 A 
ATOM      3  C   UNL d   1      13.924  12.812  -3.628  0.00  0.00     0.018 A 
ATOM      4  C   UNL d   1      13.693  12.164  -2.381  0.00  0.00     0.002 A 
ATOM      5  C   UNL d   1      14.137  12.680  -2.845  0.00  0.00     0.002 A 
ATOM      6  C   UNL d   1      13.033  11.779  -2.702  0.00  0.00     0.002 A 
ENDROOT
BRANCH   4   7
ATOM      7  C   UNL d   1      13.907  12.032  -1.593  0.00  0.00     0.025 C 
BRANCH   7   8
ATOM      8  C   UNL d   1      14.608  12.345  -1.305  0.00  0.00     0.148 C 
BRANCH   8   9
ATOM      9  N   UNL d   1      14.735  12.370  -0.490  0.00  0.00    -0.112 N 
ATOM     10  O   UNL d   1      14.403  11.796  -0.016  0.00  0.00    -0.532 OA
ATOM     11  O   UNL d   1      15.191  12.973  -0.182  0.00  0.00    -0.532 OA
ENDBRANCH   8   9
ENDBRANCH   7   8
ENDBRANCH   4   7
BRANCH   1  12
ATOM     12  N   UNL d   1      13.044  12.556  -4.739  0.00  0.00    -0.301 N 
ATOM     13  C   UNL d   1      12.904  13.328  -5.008  0.00  0.00     0.100 C 
ATOM     14  C   UNL d   1      12.960  11.920  -5.263  0.00  0.00     0.100 C 
ENDBRANCH   1  12
TORSDOF 4
ENDMDL
