MODEL 1
REMARK VINA RESULT:      53.6      0.000      0.000
REMARK  4 active torsions:
REMARK  status: ('A' for Active; 'I' for Inactive)
REMARK    1  A    between atoms: N_3  and  S_1 
REMARK    2  A    between atoms: C_5  and  S_1 
REMARK    3  A    between atoms: C_2  and  C_9 
REMARK       I    between atoms: N_4  and  C_2 
REMARK    4  A    between atoms: C_11  and  N_3 
ROOT
ATOM      1  C   UNL d   1     -51.368  26.083  33.350  0.00  0.00     0.057 A 
ATOM      2  C   UNL d   1     -49.953  26.925  33.375  0.00  0.00     0.094 A 
ATOM      3  C   UNL d   1     -51.379  26.909  33.320  0.00  0.00     0.006 A 
ATOM      4  C   UNL d   1     -50.653  25.676  33.393  0.00  0.00     0.006 A 
ATOM      5  C   UNL d   1     -50.668  27.328  33.333  0.00  0.00     0.020 A 
ATOM      6  C   UNL d   1     -49.945  26.090  33.406  0.00  0.00     0.020 A 
ENDROOT
BRANCH   2   7
ATOM      7  N   UNL d   1     -49.246  27.339  33.388  0.00  0.00    -0.158 NA
BRANCH   7   8
ATOM      8  S   UNL d   1     -49.012  27.734  34.077  0.00  0.00     0.285 S 
ATOM      9  O   UNL d   1     -49.118  28.461  33.700  0.00  0.00    -0.198 OA
ATOM     10  O   UNL d   1     -48.907  27.005  34.450  0.00  0.00    -0.198 OA
BRANCH   8  11
ATOM     11  C   UNL d   1     -48.780  28.125  34.763  0.00  0.00     0.107 A 
ATOM     12  C   UNL d   1     -48.208  28.723  34.725  0.00  0.00     0.043 A 
ATOM     13  C   UNL d   1     -47.974  29.116  35.414  0.00  0.00     0.141 A 
ATOM     14  F   UNL d   1     -47.399  29.719  35.383  0.00  0.00    -0.204 F 
ATOM     15  C   UNL d   1     -48.311  28.911  36.138  0.00  0.00     0.030 A 
ATOM     16  C   UNL d   1     -48.879  28.318  36.174  0.00  0.00     0.003 A 
ATOM     17  C   UNL d   1     -49.116  27.923  35.489  0.00  0.00     0.013 A 
ENDBRANCH   8  11
ENDBRANCH   7   8
ENDBRANCH   2   7
BRANCH   1  18
ATOM     18  C   UNL d   1     -52.088  25.651  33.337  0.00  0.00     0.265 C 
ATOM     19  N   UNL d   1     -52.069  24.824  33.328  0.00  0.00    -0.272 N 
ATOM     20  C   UNL d   1     -52.777  24.397  33.315  0.00  0.00     0.083 A 
ATOM     21  C   UNL d   1     -51.351  24.425  33.331  0.00  0.00     0.083 A 
ATOM     22  C   UNL d   1     -52.760  23.573  33.306  0.00  0.00     0.019 A 
ATOM     23  C   UNL d   1     -52.039  23.189  33.309  0.00  0.00     0.003 A 
ATOM     24  C   UNL d   1     -51.337  23.609  33.321  0.00  0.00     0.019 A 
ATOM     25  O   UNL d   1     -52.814  26.058  33.335  0.00  0.00    -0.267 OA
ENDBRANCH   1  18
TORSDOF 4
ENDMDL
