MODEL 1
REMARK VINA RESULT:      48.7      0.000      0.000
REMARK  4 active torsions:
REMARK  status: ('A' for Active; 'I' for Inactive)
REMARK    1  A    between atoms: N_10  and  C_3 
REMARK    2  A    between atoms: C_11  and  C_5 
REMARK    3  A    between atoms: C_13  and  N_10 
REMARK    4  A    between atoms: C_19  and  C_13 
ROOT
ATOM      1  N   UNL d   1      45.927 -18.424  42.694  0.00  0.00    -0.195 N 
ATOM      2  C   UNL d   1      45.930 -17.850  43.310  0.00  0.00     0.167 A 
ATOM      3  C   UNL d   1      46.115 -19.214  42.868  0.00  0.00     0.167 A 
ATOM      4  N   UNL d   1      45.552 -17.417  41.757  0.00  0.00    -0.163 NA
ATOM      5  C   UNL d   1      45.747 -17.078  43.141  0.00  0.00     0.055 A 
ATOM      6  N   UNL d   1      46.122 -18.085  44.078  0.00  0.00    -0.227 NA
ATOM      7  C   UNL d   1      46.302 -19.431  43.631  0.00  0.00     0.054 A 
ATOM      8  C   UNL d   1      45.556 -16.852  42.364  0.00  0.00     0.104 A 
ATOM      9  C   UNL d   1      46.307 -18.863  44.252  0.00  0.00     0.086 A 
ATOM     10  C   UNL d   1      46.505 -20.145  43.965  0.00  0.00     0.005 A 
ATOM     11  C   UNL d   1      45.372 -16.069  42.202  0.00  0.00     0.023 C 
ATOM     12  C   UNL d   1      46.514 -19.241  44.953  0.00  0.00     0.019 A 
ATOM     13  C   UNL d   1      46.637 -20.045  44.770  0.00  0.00     0.002 A 
ENDROOT
BRANCH   5  14
ATOM     14  C   UNL d   1      45.750 -16.515  43.744  0.00  0.00     0.004 A 
ATOM     15  C   UNL d   1      46.393 -16.005  43.833  0.00  0.00     0.000 A 
ATOM     16  C   UNL d   1      46.400 -15.445  44.431  0.00  0.00     0.000 A 
ATOM     17  C   UNL d   1      45.757 -15.390  44.951  0.00  0.00     0.000 A 
ATOM     18  C   UNL d   1      45.119 -15.890  44.871  0.00  0.00     0.000 A 
ATOM     19  C   UNL d   1      45.116 -16.458  44.262  0.00  0.00     0.000 A 
ENDBRANCH   5  14
BRANCH   3  20
ATOM     20  N   UNL d   1      46.112 -19.797  42.249  0.00  0.00    -0.225 NA
BRANCH  20  21
ATOM     21  C   UNL d   1      45.970 -20.010  41.445  0.00  0.00     0.101 C 
BRANCH  21  22
ATOM     22  C   UNL d   1      46.410 -19.650  40.822  0.00  0.00     0.019 C 
ATOM     23  C   UNL d   1      46.624 -18.831  40.872  0.00  0.00     0.002 C 
ATOM     24  C   UNL d   1      46.637 -20.113  40.145  0.00  0.00     0.002 C 
ENDBRANCH  21  22
ENDBRANCH  20  21
ENDBRANCH   3  20
TORSDOF 4
ENDMDL
