MODEL 1
REMARK VINA RESULT:      70.5      0.000      0.000
REMARK  7 active torsions:
REMARK  status: ('A' for Active; 'I' for Inactive)
REMARK    1  A    between atoms: C_7  and  N_2 
REMARK    2  A    between atoms: C_21  and  C_7 
REMARK    3  A    between atoms: C_8  and  C_19 
REMARK       I    between atoms: N_13  and  C_8 
REMARK    4  A    between atoms: C_9  and  C_20 
REMARK    5  A    between atoms: O_14  and  C_11 
REMARK    6  A    between atoms: C_20  and  N_13 
REMARK    7  A    between atoms: C_19  and  O_14 
ROOT
ATOM      1  C   UNL d   1     -47.315  30.065  35.911  0.00  0.00     0.265 A 
ATOM      2  N   UNL d   1     -47.378  30.532  35.229  0.00  0.00    -0.272 N 
ATOM      3  C   UNL d   1     -47.667  29.315  35.912  0.00  0.00     0.059 A 
ATOM      4  C   UNL d   1     -48.073  29.042  35.247  0.00  0.00     0.029 A 
ATOM      5  C   UNL d   1     -48.131  29.511  34.577  0.00  0.00     0.021 A 
ATOM      6  C   UNL d   1     -47.784  30.259  34.565  0.00  0.00     0.083 A 
ATOM      7  O   UNL d   1     -46.913  30.336  36.569  0.00  0.00    -0.267 OA
ATOM      8  C   UNL d   1     -48.423  28.294  35.252  0.00  0.00     0.100 A 
ATOM      9  C   UNL d   1     -47.606  28.845  36.591  0.00  0.00     0.005 A 
ATOM     10  C   UNL d   1     -47.958  28.097  36.591  0.00  0.00     0.002 A 
ATOM     11  C   UNL d   1     -48.366  27.822  35.924  0.00  0.00     0.025 A 
ENDROOT
BRANCH   8  12
ATOM     12  O   UNL d   1     -48.827  28.021  34.591  0.00  0.00    -0.300 OA
BRANCH  12  13
ATOM     13  C   UNL d   1     -49.297  27.345  34.655  0.00  0.00     0.185 C 
BRANCH  13  14
ATOM     14  C   UNL d   1     -49.655  27.024  33.984  0.00  0.00     0.304 C 
ATOM     15  N   UNL d   1     -49.917  26.241  33.982  0.00  0.00    -0.203 NA
ATOM     16  O   UNL d   1     -49.752  27.491  33.308  0.00  0.00    -0.263 OA
BRANCH  15  17
ATOM     17  C   UNL d   1     -50.273  25.931  33.306  0.00  0.00     0.127 C 
BRANCH  17  18
ATOM     18  C   UNL d   1     -51.010  25.579  33.362  0.00  0.00     0.119 A 
ATOM     19  O   UNL d   1     -51.735  25.960  33.378  0.00  0.00    -0.304 OA
ATOM     20  C   UNL d   1     -52.325  25.402  33.438  0.00  0.00     0.123 A 
ATOM     21  C   UNL d   1     -51.971  24.659  33.461  0.00  0.00     0.029 A 
ATOM     22  C   UNL d   1     -51.154  24.776  33.413  0.00  0.00     0.028 A 
ENDBRANCH  17  18
ENDBRANCH  15  17
ENDBRANCH  13  14
ENDBRANCH  12  13
ENDBRANCH   8  12
BRANCH   2  23
ATOM     23  C   UNL d   1     -47.034  31.276  35.214  0.00  0.00     0.083 C 
BRANCH  23  24
ATOM     24  C   UNL d   1     -47.348  31.866  34.737  0.00  0.00     0.018 A 
ATOM     25  C   UNL d   1     -48.138  32.097  34.849  0.00  0.00     0.002 A 
ATOM     26  C   UNL d   1     -48.447  32.690  34.365  0.00  0.00     0.007 A 
ATOM     27  C   UNL d   1     -47.974  33.039  33.788  0.00  0.00     0.035 A 
ATOM     28  C   UNL d   1     -47.193  32.794  33.694  0.00  0.00     0.007 A 
ATOM     29 BR   UNL d   1     -48.292  33.628  33.312  0.00  0.00    -0.049 Br
ATOM     30  C   UNL d   1     -46.884  32.207  34.171  0.00  0.00     0.002 A 
ENDBRANCH  23  24
ENDBRANCH   2  23
TORSDOF 7
ENDMDL
