MODEL 1
REMARK VINA RESULT:      -8.5      0.000      0.000
REMARK  3 active torsions:
REMARK  status: ('A' for Active; 'I' for Inactive)
REMARK    1  A    between atoms: N_2  and  C_1 
REMARK    2  A    between atoms: C_6  and  C_5 
REMARK       I    between atoms: N_13  and  C_6 
REMARK    3  A    between atoms: C_17  and  N_13 
ROOT
ATOM      1  C   UNL d   1      52.607  33.011  53.535  0.00  0.00     0.285 C 
ATOM      2  N   UNL d   1      53.309  32.551  53.354  0.00  0.00    -0.208 NA
ATOM      3  O   UNL d   1      51.898  32.680  53.711  0.00  0.00    -0.265 OA
ENDROOT
BRANCH   2   4
ATOM      4  C   UNL d   1      53.210  31.691  53.373  0.00  0.00     0.086 A 
ATOM      5  C   UNL d   1      53.467  31.261  54.036  0.00  0.00     0.039 A 
ATOM      6  C   UNL d   1      53.373  30.441  54.053  0.00  0.00     0.089 A 
ATOM      7  N   UNL d   1      53.564  29.878  54.611  0.00  0.00    -0.238 NA
ATOM      8  C   UNL d   1      53.021  30.052  53.408  0.00  0.00     0.049 A 
ATOM      9  C   UNL d   1      53.341  29.153  54.330  0.00  0.00     0.111 A 
ATOM     10  C   UNL d   1      53.433  28.430  54.720  0.00  0.00     0.028 C 
ATOM     11  S   UNL d   1      53.014  29.250  53.607  0.00  0.00    -0.066 SA
ATOM     12  C   UNL d   1      52.768  30.483  52.756  0.00  0.00     0.010 A 
ATOM     13  C   UNL d   1      52.863  31.303  52.738  0.00  0.00     0.020 A 
ENDBRANCH   2   4
BRANCH   1  14
ATOM     14  C   UNL d   1      52.617  33.828  53.539  0.00  0.00     0.089 A 
ATOM     15  S   UNL d   1      52.943  34.273  54.131  0.00  0.00    -0.059 SA
ATOM     16  C   UNL d   1      52.825  35.076  53.899  0.00  0.00     0.156 A 
ATOM     17  C   UNL d   1      52.451  35.106  53.207  0.00  0.00     0.031 A 
ATOM     18  C   UNL d   1      52.307  34.330  52.957  0.00  0.00     0.014 A 
BRANCH  16  19
ATOM     19  N   UNL d   1      53.052  35.743  54.304  0.00  0.00    -0.107 N 
ATOM     20  O   UNL d   1      52.579  36.205  54.810  0.00  0.00    -0.531 OA
ATOM     21  O   UNL d   1      53.808  36.065  54.270  0.00  0.00    -0.531 OA
ENDBRANCH  16  19
ENDBRANCH   1  14
TORSDOF 3
ENDMDL
MODEL 2
REMARK VINA RESULT:      -8.0      2.681      3.558
REMARK  3 active torsions:
REMARK  status: ('A' for Active; 'I' for Inactive)
REMARK    1  A    between atoms: N_2  and  C_1 
REMARK    2  A    between atoms: C_6  and  C_5 
REMARK       I    between atoms: N_13  and  C_6 
REMARK    3  A    between atoms: C_17  and  N_13 
ROOT
ATOM      1  C   UNL d   1      51.122  34.119  52.699  0.00  0.00     0.285 C 
ATOM      2  N   UNL d   1      51.231  33.500  53.284  0.00  0.00    -0.208 NA
ATOM      3  O   UNL d   1      51.731  34.501  52.343  0.00  0.00    -0.265 OA
ENDROOT
BRANCH   2   4
ATOM      4  C   UNL d   1      52.053  33.304  53.474  0.00  0.00     0.086 A 
ATOM      5  C   UNL d   1      52.444  33.714  54.082  0.00  0.00     0.039 A 
ATOM      6  C   UNL d   1      53.227  33.527  54.263  0.00  0.00     0.089 A 
ATOM      7  N   UNL d   1      53.749  33.822  54.816  0.00  0.00    -0.238 NA
ATOM      8  C   UNL d   1      53.619  32.931  53.836  0.00  0.00     0.049 A 
ATOM      9  C   UNL d   1      54.451  33.427  54.743  0.00  0.00     0.111 A 
ATOM     10  C   UNL d   1      55.130  33.553  55.197  0.00  0.00     0.028 C 
ATOM     11  S   UNL d   1      54.380  32.890  54.156  0.00  0.00    -0.066 SA
ATOM     12  C   UNL d   1      53.227  32.530  53.236  0.00  0.00     0.010 A 
ATOM     13  C   UNL d   1      52.444  32.716  53.055  0.00  0.00     0.020 A 
ENDBRANCH   2   4
BRANCH   1  14
ATOM     14  C   UNL d   1      50.378  34.363  52.465  0.00  0.00     0.089 A 
ATOM     15  S   UNL d   1      49.896  34.836  52.912  0.00  0.00    -0.059 SA
ATOM     16  C   UNL d   1      49.195  34.939  52.452  0.00  0.00     0.156 A 
ATOM     17  C   UNL d   1      49.258  34.549  51.771  0.00  0.00     0.031 A 
ATOM     18  C   UNL d   1      49.997  34.176  51.754  0.00  0.00     0.014 A 
BRANCH  16  19
ATOM     19  N   UNL d   1      48.536  35.369  52.652  0.00  0.00    -0.107 N 
ATOM     20  O   UNL d   1      48.337  35.655  53.409  0.00  0.00    -0.531 OA
ATOM     21  O   UNL d   1      47.952  35.590  52.117  0.00  0.00    -0.531 OA
ENDBRANCH  16  19
ENDBRANCH   1  14
TORSDOF 3
ENDMDL
MODEL 3
REMARK VINA RESULT:      -7.7      1.777      2.106
REMARK  3 active torsions:
REMARK  status: ('A' for Active; 'I' for Inactive)
REMARK    1  A    between atoms: N_2  and  C_1 
REMARK    2  A    between atoms: C_6  and  C_5 
REMARK       I    between atoms: N_13  and  C_6 
REMARK    3  A    between atoms: C_17  and  N_13 
ROOT
ATOM      1  C   UNL d   1      51.886  32.957  53.066  0.00  0.00     0.285 C 
ATOM      2  N   UNL d   1      52.226  32.350  52.563  0.00  0.00    -0.208 NA
ATOM      3  O   UNL d   1      51.993  32.982  53.860  0.00  0.00    -0.265 OA
ENDROOT
BRANCH   2   4
ATOM      4  C   UNL d   1      52.703  31.751  52.968  0.00  0.00     0.086 A 
ATOM      5  C   UNL d   1      52.381  30.999  53.117  0.00  0.00     0.039 A 
ATOM      6  C   UNL d   1      52.836  30.429  53.503  0.00  0.00     0.089 A 
ATOM      7  N   UNL d   1      52.681  29.659  53.724  0.00  0.00    -0.238 NA
ATOM      8  C   UNL d   1      53.612  30.611  53.740  0.00  0.00     0.049 A 
ATOM      9  C   UNL d   1      53.337  29.360  54.089  0.00  0.00     0.111 A 
ATOM     10  C   UNL d   1      53.417  28.598  54.399  0.00  0.00     0.028 C 
ATOM     11  S   UNL d   1      53.901  29.926  54.103  0.00  0.00    -0.066 SA
ATOM     12  C   UNL d   1      53.924  31.356  53.590  0.00  0.00     0.010 A 
ATOM     13  C   UNL d   1      53.469  31.926  53.204  0.00  0.00     0.020 A 
ENDBRANCH   2   4
BRANCH   1  14
ATOM     14  C   UNL d   1      51.423  33.558  52.761  0.00  0.00     0.089 A 
ATOM     15  S   UNL d   1      50.670  33.720  53.012  0.00  0.00    -0.059 SA
ATOM     16  C   UNL d   1      50.415  34.377  52.545  0.00  0.00     0.156 A 
ATOM     17  C   UNL d   1      50.985  34.591  52.046  0.00  0.00     0.031 A 
ATOM     18  C   UNL d   1      51.633  34.089  52.161  0.00  0.00     0.014 A 
BRANCH  16  19
ATOM     19  N   UNL d   1      49.697  34.754  52.581  0.00  0.00    -0.107 N 
ATOM     20  O   UNL d   1      49.385  35.173  53.229  0.00  0.00    -0.531 OA
ATOM     21  O   UNL d   1      49.159  34.776  51.960  0.00  0.00    -0.531 OA
ENDBRANCH  16  19
ENDBRANCH   1  14
TORSDOF 3
ENDMDL
MODEL 4
REMARK VINA RESULT:      -7.7      1.676      4.873
REMARK  3 active torsions:
REMARK  status: ('A' for Active; 'I' for Inactive)
REMARK    1  A    between atoms: N_2  and  C_1 
REMARK    2  A    between atoms: C_6  and  C_5 
REMARK       I    between atoms: N_13  and  C_6 
REMARK    3  A    between atoms: C_17  and  N_13 
ROOT
ATOM      1  C   UNL d   1      53.167  31.625  53.498  0.00  0.00     0.285 C 
ATOM      2  N   UNL d   1      52.457  32.081  53.658  0.00  0.00    -0.208 NA
ATOM      3  O   UNL d   1      53.870  31.958  53.307  0.00  0.00    -0.265 OA
ENDROOT
BRANCH   2   4
ATOM      4  C   UNL d   1      52.543  32.941  53.600  0.00  0.00     0.086 A 
ATOM      5  C   UNL d   1      52.820  33.372  54.254  0.00  0.00     0.039 A 
ATOM      6  C   UNL d   1      52.902  34.191  54.198  0.00  0.00     0.089 A 
ATOM      7  N   UNL d   1      53.154  34.756  54.730  0.00  0.00    -0.238 NA
ATOM      8  C   UNL d   1      52.706  34.579  53.489  0.00  0.00     0.049 A 
ATOM      9  C   UNL d   1      53.120  35.480  54.371  0.00  0.00     0.111 A 
ATOM     10  C   UNL d   1      53.326  36.204  54.713  0.00  0.00     0.028 C 
ATOM     11  S   UNL d   1      52.851  35.382  53.625  0.00  0.00    -0.066 SA
ATOM     12  C   UNL d   1      52.432  34.147  52.847  0.00  0.00     0.010 A 
ATOM     13  C   UNL d   1      52.350  33.328  52.902  0.00  0.00     0.020 A 
ENDBRANCH   2   4
BRANCH   1  14
ATOM     14  C   UNL d   1      53.169  30.808  53.532  0.00  0.00     0.089 A 
ATOM     15  S   UNL d   1      53.291  30.385  54.212  0.00  0.00    -0.059 SA
ATOM     16  C   UNL d   1      53.245  29.574  53.981  0.00  0.00     0.156 A 
ATOM     17  C   UNL d   1      53.104  29.519  53.209  0.00  0.00     0.031 A 
ATOM     18  C   UNL d   1      53.052  30.286  52.901  0.00  0.00     0.014 A 
BRANCH  16  19
ATOM     19  N   UNL d   1      53.329  28.922  54.459  0.00  0.00    -0.107 N 
ATOM     20  O   UNL d   1      53.663  28.189  54.250  0.00  0.00    -0.531 OA
ATOM     21  O   UNL d   1      53.089  28.896  55.245  0.00  0.00    -0.531 OA
ENDBRANCH  16  19
ENDBRANCH   1  14
TORSDOF 3
ENDMDL
MODEL 5
REMARK VINA RESULT:      -7.6      2.603      4.442
REMARK  3 active torsions:
REMARK  status: ('A' for Active; 'I' for Inactive)
REMARK    1  A    between atoms: N_2  and  C_1 
REMARK    2  A    between atoms: C_6  and  C_5 
REMARK       I    between atoms: N_13  and  C_6 
REMARK    3  A    between atoms: C_17  and  N_13 
ROOT
ATOM      1  C   UNL d   1      52.627  33.927  53.356  0.00  0.00     0.285 C 
ATOM      2  N   UNL d   1      51.912  33.453  53.313  0.00  0.00    -0.208 NA
ATOM      3  O   UNL d   1      52.684  34.667  53.053  0.00  0.00    -0.265 OA
ENDROOT
BRANCH   2   4
ATOM      4  C   UNL d   1      51.239  33.825  52.915  0.00  0.00     0.086 A 
ATOM      5  C   UNL d   1      50.659  34.215  53.365  0.00  0.00     0.039 A 
ATOM      6  C   UNL d   1      50.017  34.570  52.986  0.00  0.00     0.089 A 
ATOM      7  N   UNL d   1      49.373  34.984  53.266  0.00  0.00    -0.238 NA
ATOM      8  C   UNL d   1      49.956  34.534  52.157  0.00  0.00     0.049 A 
ATOM      9  C   UNL d   1      48.916  35.205  52.637  0.00  0.00     0.111 A 
ATOM     10  C   UNL d   1      48.211  35.634  52.673  0.00  0.00     0.028 C 
ATOM     11  S   UNL d   1      49.260  34.938  51.967  0.00  0.00    -0.066 SA
ATOM     12  C   UNL d   1      50.533  34.147  51.719  0.00  0.00     0.010 A 
ATOM     13  C   UNL d   1      51.174  33.793  52.098  0.00  0.00     0.020 A 
ENDBRANCH   2   4
BRANCH   1  14
ATOM     14  C   UNL d   1      53.306  33.648  53.715  0.00  0.00     0.089 A 
ATOM     15  S   UNL d   1      53.586  33.921  54.424  0.00  0.00    -0.059 SA
ATOM     16  C   UNL d   1      54.290  33.478  54.572  0.00  0.00     0.156 A 
ATOM     17  C   UNL d   1      54.419  32.971  53.984  0.00  0.00     0.031 A 
ATOM     18  C   UNL d   1      53.811  33.058  53.429  0.00  0.00     0.014 A 
BRANCH  16  19
ATOM     19  N   UNL d   1      54.783  33.540  55.215  0.00  0.00    -0.107 N 
ATOM     20  O   UNL d   1      55.435  34.051  55.297  0.00  0.00    -0.531 OA
ATOM     21  O   UNL d   1      54.703  33.091  55.899  0.00  0.00    -0.531 OA
ENDBRANCH  16  19
ENDBRANCH   1  14
TORSDOF 3
ENDMDL
MODEL 6
REMARK VINA RESULT:      -5.8     10.111     10.847
REMARK  3 active torsions:
REMARK  status: ('A' for Active; 'I' for Inactive)
REMARK    1  A    between atoms: N_2  and  C_1 
REMARK    2  A    between atoms: C_6  and  C_5 
REMARK       I    between atoms: N_13  and  C_6 
REMARK    3  A    between atoms: C_17  and  N_13 
ROOT
ATOM      1  C   UNL d   1      44.971  29.595  58.638  0.00  0.00     0.285 C 
ATOM      2  N   UNL d   1      44.336  29.292  59.132  0.00  0.00    -0.208 NA
ATOM      3  O   UNL d   1      45.638  29.926  58.934  0.00  0.00    -0.265 OA
ENDROOT
BRANCH   2   4
ATOM      4  C   UNL d   1      44.457  29.365  59.986  0.00  0.00     0.086 A 
ATOM      5  C   UNL d   1      44.414  28.689  60.468  0.00  0.00     0.039 A 
ATOM      6  C   UNL d   1      44.530  28.759  61.282  0.00  0.00     0.089 A 
ATOM      7  N   UNL d   1      44.522  28.213  61.887  0.00  0.00    -0.238 NA
ATOM      8  C   UNL d   1      44.688  29.505  61.614  0.00  0.00     0.049 A 
ATOM      9  C   UNL d   1      44.672  28.598  62.582  0.00  0.00     0.111 A 
ATOM     10  C   UNL d   1      44.714  28.252  63.332  0.00  0.00     0.028 C 
ATOM     11  S   UNL d   1      44.772  29.375  62.426  0.00  0.00    -0.066 SA
ATOM     12  C   UNL d   1      44.730  30.169  61.132  0.00  0.00     0.010 A 
ATOM     13  C   UNL d   1      44.614  30.099  60.318  0.00  0.00     0.020 A 
ENDBRANCH   2   4
BRANCH   1  14
ATOM     14  C   UNL d   1      44.933  29.563  57.822  0.00  0.00     0.089 A 
ATOM     15  S   UNL d   1      44.726  30.191  57.355  0.00  0.00    -0.059 SA
ATOM     16  C   UNL d   1      44.764  29.901  56.562  0.00  0.00     0.156 A 
ATOM     17  C   UNL d   1      44.981  29.145  56.560  0.00  0.00     0.031 A 
ATOM     18  C   UNL d   1      45.095  28.906  57.345  0.00  0.00     0.014 A 
BRANCH  16  19
ATOM     19  N   UNL d   1      44.606  30.315  55.881  0.00  0.00    -0.107 N 
ATOM     20  O   UNL d   1      44.455  31.131  55.817  0.00  0.00    -0.531 OA
ATOM     21  O   UNL d   1      44.571  29.973  55.135  0.00  0.00    -0.531 OA
ENDBRANCH  16  19
ENDBRANCH   1  14
TORSDOF 3
ENDMDL
MODEL 7
REMARK VINA RESULT:      -5.7     10.296     11.336
REMARK  3 active torsions:
REMARK  status: ('A' for Active; 'I' for Inactive)
REMARK    1  A    between atoms: N_2  and  C_1 
REMARK    2  A    between atoms: C_6  and  C_5 
REMARK       I    between atoms: N_13  and  C_6 
REMARK    3  A    between atoms: C_17  and  N_13 
ROOT
ATOM      1  C   UNL d   1      44.998  29.146  58.656  0.00  0.00     0.285 C 
ATOM      2  N   UNL d   1      44.326  29.128  59.190  0.00  0.00    -0.208 NA
ATOM      3  O   UNL d   1      45.614  29.652  58.739  0.00  0.00    -0.265 OA
ENDROOT
BRANCH   2   4
ATOM      4  C   UNL d   1      44.349  29.700  59.840  0.00  0.00     0.086 A 
ATOM      5  C   UNL d   1      44.406  29.430  60.625  0.00  0.00     0.039 A 
ATOM      6  C   UNL d   1      44.427  29.975  61.244  0.00  0.00     0.089 A 
ATOM      7  N   UNL d   1      44.480  29.886  62.053  0.00  0.00    -0.238 NA
ATOM      8  C   UNL d   1      44.392  30.790  61.079  0.00  0.00     0.049 A 
ATOM      9  C   UNL d   1      44.479  30.620  62.392  0.00  0.00     0.111 A 
ATOM     10  C   UNL d   1      44.524  30.783  63.201  0.00  0.00     0.028 C 
ATOM     11  S   UNL d   1      44.426  31.168  61.813  0.00  0.00    -0.066 SA
ATOM     12  C   UNL d   1      44.336  31.050  60.302  0.00  0.00     0.010 A 
ATOM     13  C   UNL d   1      44.314  30.505  59.683  0.00  0.00     0.020 A 
ENDBRANCH   2   4
BRANCH   1  14
ATOM     14  C   UNL d   1      45.052  28.638  58.017  0.00  0.00     0.089 A 
ATOM     15  S   UNL d   1      45.117  27.834  58.084  0.00  0.00    -0.059 SA
ATOM     16  C   UNL d   1      45.156  27.546  57.291  0.00  0.00     0.156 A 
ATOM     17  C   UNL d   1      45.117  28.146  56.783  0.00  0.00     0.031 A 
ATOM     18  C   UNL d   1      45.051  28.848  57.217  0.00  0.00     0.014 A 
BRANCH  16  19
ATOM     19  N   UNL d   1      45.225  26.773  57.053  0.00  0.00    -0.107 N 
ATOM     20  O   UNL d   1      44.777  26.125  57.325  0.00  0.00    -0.531 OA
ATOM     21  O   UNL d   1      45.764  26.512  56.490  0.00  0.00    -0.531 OA
ENDBRANCH  16  19
ENDBRANCH   1  14
TORSDOF 3
ENDMDL
MODEL 8
REMARK VINA RESULT:      -5.7      9.616     10.496
REMARK  3 active torsions:
REMARK  status: ('A' for Active; 'I' for Inactive)
REMARK    1  A    between atoms: N_2  and  C_1 
REMARK    2  A    between atoms: C_6  and  C_5 
REMARK       I    between atoms: N_13  and  C_6 
REMARK    3  A    between atoms: C_17  and  N_13 
ROOT
ATOM      1  C   UNL d   1      45.032  27.310  57.145  0.00  0.00     0.285 C 
ATOM      2  N   UNL d   1      44.326  26.888  56.896  0.00  0.00    -0.208 NA
ATOM      3  O   UNL d   1      45.752  26.964  57.209  0.00  0.00    -0.265 OA
ENDROOT
BRANCH   2   4
ATOM      4  C   UNL d   1      44.436  26.049  56.711  0.00  0.00     0.086 A 
ATOM      5  C   UNL d   1      44.567  25.814  55.925  0.00  0.00     0.039 A 
ATOM      6  C   UNL d   1      44.672  25.015  55.749  0.00  0.00     0.089 A 
ATOM      7  N   UNL d   1      44.807  24.619  55.049  0.00  0.00    -0.238 NA
ATOM      8  C   UNL d   1      44.646  24.451  56.360  0.00  0.00     0.049 A 
ATOM      9  C   UNL d   1      44.866  23.828  55.208  0.00  0.00     0.111 A 
ATOM     10  C   UNL d   1      45.002  23.229  54.656  0.00  0.00     0.028 C 
ATOM     11  S   UNL d   1      44.770  23.719  55.994  0.00  0.00    -0.066 SA
ATOM     12  C   UNL d   1      44.517  24.690  57.135  0.00  0.00     0.010 A 
ATOM     13  C   UNL d   1      44.412  25.489  57.311  0.00  0.00     0.020 A 
ENDBRANCH   2   4
BRANCH   1  14
ATOM     14  C   UNL d   1      45.012  28.104  57.338  0.00  0.00     0.089 A 
ATOM     15  S   UNL d   1      45.072  28.387  58.094  0.00  0.00    -0.059 SA
ATOM     16  C   UNL d   1      45.024  29.228  58.022  0.00  0.00     0.156 A 
ATOM     17  C   UNL d   1      44.940  29.430  57.266  0.00  0.00     0.031 A 
ATOM     18  C   UNL d   1      44.929  28.739  56.812  0.00  0.00     0.014 A 
BRANCH  16  19
ATOM     19  N   UNL d   1      45.057  29.774  58.623  0.00  0.00    -0.107 N 
ATOM     20  O   UNL d   1      44.413  30.086  59.049  0.00  0.00    -0.531 OA
ATOM     21  O   UNL d   1      45.754  30.106  58.903  0.00  0.00    -0.531 OA
ENDBRANCH  16  19
ENDBRANCH   1  14
TORSDOF 3
ENDMDL
MODEL 9
REMARK VINA RESULT:      -5.6      9.979     11.321
REMARK  3 active torsions:
REMARK  status: ('A' for Active; 'I' for Inactive)
REMARK    1  A    between atoms: N_2  and  C_1 
REMARK    2  A    between atoms: C_6  and  C_5 
REMARK       I    between atoms: N_13  and  C_6 
REMARK    3  A    between atoms: C_17  and  N_13 
ROOT
ATOM      1  C   UNL d   1      44.954  27.034  57.457  0.00  0.00     0.285 C 
ATOM      2  N   UNL d   1      44.314  27.597  57.563  0.00  0.00    -0.208 NA
ATOM      3  O   UNL d   1      45.712  27.184  57.670  0.00  0.00    -0.265 OA
ENDROOT
BRANCH   2   4
ATOM      4  C   UNL d   1      44.536  28.354  57.921  0.00  0.00     0.086 A 
ATOM      5  C   UNL d   1      44.426  28.472  58.736  0.00  0.00     0.039 A 
ATOM      6  C   UNL d   1      44.637  29.193  59.077  0.00  0.00     0.089 A 
ATOM      7  N   UNL d   1      44.599  29.472  59.842  0.00  0.00    -0.238 NA
ATOM      8  C   UNL d   1      44.958  29.796  58.602  0.00  0.00     0.049 A 
ATOM      9  C   UNL d   1      44.885  30.227  59.855  0.00  0.00     0.111 A 
ATOM     10  C   UNL d   1      44.945  30.715  60.520  0.00  0.00     0.028 C 
ATOM     11  S   UNL d   1      45.103  30.430  59.113  0.00  0.00    -0.066 SA
ATOM     12  C   UNL d   1      45.063  29.673  57.797  0.00  0.00     0.010 A 
ATOM     13  C   UNL d   1      44.852  28.952  57.456  0.00  0.00     0.020 A 
ENDBRANCH   2   4
BRANCH   1  14
ATOM     14  C   UNL d   1      44.828  26.297  57.127  0.00  0.00     0.089 A 
ATOM     15  S   UNL d   1      44.903  26.138  56.336  0.00  0.00    -0.059 SA
ATOM     16  C   UNL d   1      44.721  25.317  56.256  0.00  0.00     0.156 A 
ATOM     17  C   UNL d   1      44.548  25.008  56.958  0.00  0.00     0.031 A 
ATOM     18  C   UNL d   1      44.608  25.606  57.527  0.00  0.00     0.014 A 
BRANCH  16  19
ATOM     19  N   UNL d   1      44.716  24.881  55.570  0.00  0.00    -0.107 N 
ATOM     20  O   UNL d   1      44.321  25.068  54.862  0.00  0.00    -0.531 OA
ATOM     21  O   UNL d   1      45.115  24.168  55.477  0.00  0.00    -0.531 OA
ENDBRANCH  16  19
ENDBRANCH   1  14
TORSDOF 3
ENDMDL
