MODEL 1
REMARK VINA RESULT:      77.8      0.000      0.000
REMARK  8 active torsions:
REMARK  status: ('A' for Active; 'I' for Inactive)
REMARK    1  A    between atoms: C_2  and  P_1 
REMARK    2  A    between atoms: O_4  and  P_1 
REMARK    3  A    between atoms: C_5  and  P_1 
REMARK    4  A    between atoms: C_3  and  C_2 
REMARK    5  A    between atoms: C_20  and  O_4 
REMARK    6  A    between atoms: O_19  and  C_8 
REMARK    7  A    between atoms: N_11  and  C_9 
REMARK    8  A    between atoms: O_21  and  C_10 
ROOT
ATOM      1  P   UNL d   1      60.889  48.848  50.959  0.00  0.00     0.307 P 
ATOM      2  O   UNL d   1      61.249  48.552  51.638  0.00  0.00    -0.277 OA
ENDROOT
BRANCH   1   3
ATOM      3  C   UNL d   1      60.529  49.144  50.282  0.00  0.00     0.253 C 
ATOM      4  O   UNL d   1      60.978  49.315  49.603  0.00  0.00    -0.281 OA
BRANCH   3   5
ATOM      5  C   UNL d   1      59.709  49.278  50.266  0.00  0.00     0.046 A 
ATOM      6  C   UNL d   1      59.292  49.225  49.558  0.00  0.00     0.030 A 
ATOM      7  C   UNL d   1      58.486  49.358  49.548  0.00  0.00     0.116 A 
ATOM      8  C   UNL d   1      58.071  49.547  50.243  0.00  0.00     0.116 A 
ATOM      9  C   UNL d   1      58.494  49.600  50.960  0.00  0.00     0.026 A 
ATOM     10  C   UNL d   1      59.313  49.466  50.969  0.00  0.00     0.005 A 
BRANCH   7  11
ATOM     11  O   UNL d   1      58.072  49.304  48.839  0.00  0.00    -0.326 OA
ATOM     12  C   UNL d   1      57.308  48.995  48.832  0.00  0.00     0.181 C 
ENDBRANCH   7  11
BRANCH   8  13
ATOM     13  O   UNL d   1      57.261  49.680  50.235  0.00  0.00    -0.326 OA
ATOM     14  C   UNL d   1      56.794  49.335  50.818  0.00  0.00     0.181 C 
ENDBRANCH   8  13
ENDBRANCH   3   5
ENDBRANCH   1   3
BRANCH   1  15
ATOM     15  O   UNL d   1      60.748  49.560  51.346  0.00  0.00    -0.281 OA
BRANCH  15  16
ATOM     16  C   UNL d   1      60.809  49.607  52.163  0.00  0.00     0.101 A 
ATOM     17  C   UNL d   1      61.557  49.661  52.520  0.00  0.00     0.025 A 
ATOM     18  C   UNL d   1      61.619  49.708  53.333  0.00  0.00     0.002 A 
ATOM     19  C   UNL d   1      60.943  49.701  53.800  0.00  0.00     0.000 A 
ATOM     20  C   UNL d   1      60.199  49.647  53.453  0.00  0.00     0.002 A 
ATOM     21  C   UNL d   1      60.134  49.599  52.626  0.00  0.00     0.025 A 
ENDBRANCH  15  16
ENDBRANCH   1  15
BRANCH   1  22
ATOM     22  C   UNL d   1      61.031  48.129  50.570  0.00  0.00     0.061 A 
ATOM     23  C   UNL d   1      61.231  48.130  49.769  0.00  0.00     0.007 A 
ATOM     24  C   UNL d   1      61.374  47.408  49.377  0.00  0.00     0.018 A 
ATOM     25  C   UNL d   1      61.317  46.698  49.784  0.00  0.00     0.064 A 
ATOM     26  C   UNL d   1      61.117  46.705  50.588  0.00  0.00     0.018 A 
ATOM     27  C   UNL d   1      60.973  47.427  50.981  0.00  0.00     0.007 A 
BRANCH  25  28
ATOM     28  N   UNL d   1      61.459  45.984  49.395  0.00  0.00    -0.301 N 
ATOM     29  C   UNL d   1      60.828  45.522  49.139  0.00  0.00     0.100 C 
ATOM     30  C   UNL d   1      62.235  45.735  49.265  0.00  0.00     0.100 C 
ENDBRANCH  25  28
ENDBRANCH   1  22
TORSDOF 8
ENDMDL
