MODEL 1
REMARK VINA RESULT:      -8.1      0.000      0.000
REMARK  3 active torsions:
REMARK  status: ('A' for Active; 'I' for Inactive)
REMARK    1  A    between atoms: C_4  and  S_1 
REMARK       I    between atoms: C_2  and  N_3 
REMARK    2  A    between atoms: C_9  and  C_2 
REMARK    3  A    between atoms: N_3  and  C_12 
ROOT
ATOM      1  C   UNL d   1      53.075  34.834  54.283  0.00  0.00     0.107 A 
ATOM      2  C   UNL d   1      53.377  34.288  54.816  0.00  0.00     0.015 A 
ATOM      3  C   UNL d   1      52.663  34.575  53.613  0.00  0.00     0.015 A 
ATOM      4  C   UNL d   1      52.864  33.219  54.024  0.00  0.00     0.085 A 
ATOM      5  C   UNL d   1      52.556  33.756  53.482  0.00  0.00     0.020 A 
ATOM      6  C   UNL d   1      53.270  33.470  54.685  0.00  0.00     0.020 A 
ENDROOT
BRANCH   4   7
ATOM      7  N   UNL d   1      52.755  32.390  53.891  0.00  0.00    -0.208 NA
ATOM      8  C   UNL d   1      53.371  31.931  53.595  0.00  0.00     0.279 C 
ATOM      9  O   UNL d   1      54.116  32.287  53.422  0.00  0.00    -0.265 OA
BRANCH   8  10
ATOM     10  C   UNL d   1      53.265  31.124  53.465  0.00  0.00     0.058 A 
ATOM     11  C   UNL d   1      53.578  30.562  54.016  0.00  0.00     0.005 A 
ATOM     12  C   UNL d   1      53.472  29.754  53.886  0.00  0.00     0.000 A 
ATOM     13  C   UNL d   1      53.052  29.490  53.203  0.00  0.00     0.000 A 
ATOM     14  C   UNL d   1      52.750  30.043  52.671  0.00  0.00     0.000 A 
ATOM     15  C   UNL d   1      52.856  30.851  52.801  0.00  0.00     0.005 A 
ENDBRANCH   8  10
ENDBRANCH   4   7
BRANCH   1  16
ATOM     16  S   UNL d   1      53.183  35.660  54.415  0.00  0.00     0.302 S 
ATOM     17  O   UNL d   1      54.016  35.555  54.394  0.00  0.00    -0.197 OA
ATOM     18  O   UNL d   1      52.365  35.764  54.436  0.00  0.00    -0.197 OA
ATOM     19  N   UNL d   1      53.289  36.468  54.545  0.00  0.00    -0.043 N 
ENDBRANCH   1  16
TORSDOF 3
ENDMDL
MODEL 2
REMARK VINA RESULT:      -8.1      2.460      3.539
REMARK  3 active torsions:
REMARK  status: ('A' for Active; 'I' for Inactive)
REMARK    1  A    between atoms: C_4  and  S_1 
REMARK       I    between atoms: C_2  and  N_3 
REMARK    2  A    between atoms: C_9  and  C_2 
REMARK    3  A    between atoms: N_3  and  C_12 
ROOT
ATOM      1  C   UNL d   1      50.249  34.305  52.368  0.00  0.00     0.107 A 
ATOM      2  C   UNL d   1      50.238  33.939  53.103  0.00  0.00     0.015 A 
ATOM      3  C   UNL d   1      50.966  34.406  51.967  0.00  0.00     0.015 A 
ATOM      4  C   UNL d   1      51.653  33.770  53.048  0.00  0.00     0.085 A 
ATOM      5  C   UNL d   1      51.678  34.135  52.312  0.00  0.00     0.020 A 
ATOM      6  C   UNL d   1      50.949  33.668  53.448  0.00  0.00     0.020 A 
ENDROOT
BRANCH   4   7
ATOM      7  N   UNL d   1      52.374  33.495  53.398  0.00  0.00    -0.208 NA
ATOM      8  C   UNL d   1      52.862  34.015  53.811  0.00  0.00     0.279 C 
ATOM      9  O   UNL d   1      52.643  34.826  53.888  0.00  0.00    -0.265 OA
BRANCH   8  10
ATOM     10  C   UNL d   1      53.563  33.747  54.151  0.00  0.00     0.058 A 
ATOM     11  C   UNL d   1      54.057  33.203  53.731  0.00  0.00     0.005 A 
ATOM     12  C   UNL d   1      54.759  32.935  54.071  0.00  0.00     0.000 A 
ATOM     13  C   UNL d   1      54.984  33.206  54.839  0.00  0.00     0.000 A 
ATOM     14  C   UNL d   1      54.497  33.737  55.242  0.00  0.00     0.000 A 
ATOM     15  C   UNL d   1      53.795  34.004  54.902  0.00  0.00     0.005 A 
ENDBRANCH   8  10
ENDBRANCH   4   7
BRANCH   1  16
ATOM     16  S   UNL d   1      49.531  34.579  52.020  0.00  0.00     0.302 S 
ATOM     17  O   UNL d   1      49.320  34.947  52.745  0.00  0.00    -0.197 OA
ATOM     18  O   UNL d   1      49.737  34.217  51.308  0.00  0.00    -0.197 OA
ATOM     19  N   UNL d   1      48.828  34.846  51.680  0.00  0.00    -0.043 N 
ENDBRANCH   1  16
TORSDOF 3
ENDMDL
MODEL 3
REMARK VINA RESULT:      -8.0      2.295      3.661
REMARK  3 active torsions:
REMARK  status: ('A' for Active; 'I' for Inactive)
REMARK    1  A    between atoms: C_4  and  S_1 
REMARK       I    between atoms: C_2  and  N_3 
REMARK    2  A    between atoms: C_9  and  C_2 
REMARK    3  A    between atoms: N_3  and  C_12 
ROOT
ATOM      1  C   UNL d   1      53.799  33.796  54.537  0.00  0.00     0.107 A 
ATOM      2  C   UNL d   1      53.640  33.356  53.862  0.00  0.00     0.015 A 
ATOM      3  C   UNL d   1      53.330  34.453  54.722  0.00  0.00     0.015 A 
ATOM      4  C   UNL d   1      52.548  34.217  53.548  0.00  0.00     0.085 A 
ATOM      5  C   UNL d   1      52.696  34.666  54.221  0.00  0.00     0.020 A 
ATOM      6  C   UNL d   1      53.006  33.569  53.361  0.00  0.00     0.020 A 
ENDROOT
BRANCH   4   7
ATOM      7  N   UNL d   1      51.905  34.434  53.040  0.00  0.00    -0.208 NA
ATOM      8  C   UNL d   1      51.187  34.034  53.083  0.00  0.00     0.279 C 
ATOM      9  O   UNL d   1      51.088  33.404  53.636  0.00  0.00    -0.265 OA
BRANCH   8  10
ATOM     10  C   UNL d   1      50.562  34.244  52.589  0.00  0.00     0.058 A 
ATOM     11  C   UNL d   1      49.879  34.630  52.910  0.00  0.00     0.005 A 
ATOM     12  C   UNL d   1      49.254  34.840  52.415  0.00  0.00     0.000 A 
ATOM     13  C   UNL d   1      49.296  34.670  51.589  0.00  0.00     0.000 A 
ATOM     14  C   UNL d   1      49.964  34.295  51.284  0.00  0.00     0.000 A 
ATOM     15  C   UNL d   1      50.590  34.084  51.778  0.00  0.00     0.005 A 
ENDBRANCH   8  10
ENDBRANCH   4   7
BRANCH   1  16
ATOM     16  S   UNL d   1      54.439  33.580  55.043  0.00  0.00     0.302 S 
ATOM     17  O   UNL d   1      54.088  32.827  55.165  0.00  0.00    -0.197 OA
ATOM     18  O   UNL d   1      54.783  34.320  54.922  0.00  0.00    -0.197 OA
ATOM     19  N   UNL d   1      55.065  33.370  55.537  0.00  0.00    -0.043 N 
ENDBRANCH   1  16
TORSDOF 3
ENDMDL
MODEL 4
REMARK VINA RESULT:      -7.2      3.300      4.918
REMARK  3 active torsions:
REMARK  status: ('A' for Active; 'I' for Inactive)
REMARK    1  A    between atoms: C_4  and  S_1 
REMARK       I    between atoms: C_2  and  N_3 
REMARK    2  A    between atoms: C_9  and  C_2 
REMARK    3  A    between atoms: N_3  and  C_12 
ROOT
ATOM      1  C   UNL d   1      52.178  33.297  53.202  0.00  0.00     0.107 A 
ATOM      2  C   UNL d   1      52.191  34.089  52.987  0.00  0.00     0.015 A 
ATOM      3  C   UNL d   1      51.456  32.919  53.347  0.00  0.00     0.015 A 
ATOM      4  C   UNL d   1      50.768  34.139  53.057  0.00  0.00     0.085 A 
ATOM      5  C   UNL d   1      50.741  33.346  53.273  0.00  0.00     0.020 A 
ATOM      6  C   UNL d   1      51.476  34.516  52.913  0.00  0.00     0.020 A 
ENDROOT
BRANCH   4   7
ATOM      7  N   UNL d   1      50.043  34.571  52.982  0.00  0.00    -0.208 NA
ATOM      8  C   UNL d   1      49.648  34.601  52.260  0.00  0.00     0.279 C 
ATOM      9  O   UNL d   1      49.965  34.199  51.590  0.00  0.00    -0.265 OA
BRANCH   8  10
ATOM     10  C   UNL d   1      48.943  35.022  52.188  0.00  0.00     0.058 A 
ATOM     11  C   UNL d   1      48.688  35.534  52.812  0.00  0.00     0.005 A 
ATOM     12  C   UNL d   1      47.983  35.955  52.740  0.00  0.00     0.000 A 
ATOM     13  C   UNL d   1      47.515  35.873  52.041  0.00  0.00     0.000 A 
ATOM     14  C   UNL d   1      47.770  35.372  51.437  0.00  0.00     0.000 A 
ATOM     15  C   UNL d   1      48.475  34.951  51.509  0.00  0.00     0.005 A 
ENDBRANCH   8  10
ENDBRANCH   4   7
BRANCH   1  16
ATOM     16  S   UNL d   1      52.900  32.867  53.277  0.00  0.00     0.302 S 
ATOM     17  O   UNL d   1      52.746  32.483  52.546  0.00  0.00    -0.197 OA
ATOM     18  O   UNL d   1      53.051  33.244  53.995  0.00  0.00    -0.197 OA
ATOM     19  N   UNL d   1      53.606  32.446  53.349  0.00  0.00    -0.043 N 
ENDBRANCH   1  16
TORSDOF 3
ENDMDL
