MODEL 1
REMARK VINA RESULT:      -5.7      0.000      0.000
REMARK  1 active torsions:
REMARK  status: ('A' for Active; 'I' for Inactive)
REMARK    1  A    between atoms: C_4  and  C_1 
ROOT
ATOM      1  C   UNL d   1     -41.853-122.268 -54.603  0.00  0.00     0.164 A 
ATOM      2  O   UNL d   1     -41.762-121.861 -53.891  0.00  0.00    -0.301 OA
ATOM      3  C   UNL d   1     -41.691-123.063 -54.467  0.00  0.00     0.033 A 
ATOM      4  C   UNL d   1     -41.543-122.408 -53.313  0.00  0.00     0.100 A 
ATOM      5  C   UNL d   1     -41.499-123.155 -53.671  0.00  0.00     0.025 A 
ATOM      6  C   UNL d   1     -41.377-122.329 -52.511  0.00  0.00     0.025 A 
ATOM      7  C   UNL d   1     -41.290-123.817 -53.224  0.00  0.00     0.002 A 
ATOM      8  C   UNL d   1     -41.123-123.736 -52.411  0.00  0.00     0.000 A 
ATOM      9  C   UNL d   1     -41.166-122.993 -52.055  0.00  0.00     0.002 A 
ENDROOT
BRANCH   1  10
ATOM     10  C   UNL d   1     -42.069-121.928 -55.318  0.00  0.00     0.235 C 
ATOM     11  O   UNL d   1     -41.483-121.571 -55.791  0.00  0.00    -0.642 OA
ATOM     12  O   UNL d   1     -42.855-121.937 -55.569  0.00  0.00    -0.642 OA
ENDBRANCH   1  10
TORSDOF 1
ENDMDL
MODEL 2
REMARK VINA RESULT:      -4.4      2.430      3.537
REMARK  1 active torsions:
REMARK  status: ('A' for Active; 'I' for Inactive)
REMARK    1  A    between atoms: C_4  and  C_1 
ROOT
ATOM      1  C   UNL d   1     -41.629-122.532 -51.241  0.00  0.00     0.164 A 
ATOM      2  O   UNL d   1     -42.328-122.373 -50.833  0.00  0.00    -0.301 OA
ATOM      3  C   UNL d   1     -41.127-122.947 -50.738  0.00  0.00     0.033 A 
ATOM      4  C   UNL d   1     -42.257-122.693 -50.075  0.00  0.00     0.100 A 
ATOM      5  C   UNL d   1     -41.511-123.049 -50.017  0.00  0.00     0.025 A 
ATOM      6  C   UNL d   1     -42.770-122.708 -49.431  0.00  0.00     0.025 A 
ATOM      7  C   UNL d   1     -41.282-123.419 -49.314  0.00  0.00     0.002 A 
ATOM      8  C   UNL d   1     -41.801-123.434 -48.663  0.00  0.00     0.000 A 
ATOM      9  C   UNL d   1     -42.544-123.079 -48.721  0.00  0.00     0.002 A 
ENDROOT
BRANCH   1  10
ATOM     10  C   UNL d   1     -41.471-122.308 -52.015  0.00  0.00     0.235 C 
ATOM     11  O   UNL d   1     -41.123-121.565 -52.160  0.00  0.00    -0.642 OA
ATOM     12  O   UNL d   1     -41.655-122.809 -52.644  0.00  0.00    -0.642 OA
ENDBRANCH   1  10
TORSDOF 1
ENDMDL
MODEL 3
REMARK VINA RESULT:      -3.8      2.805      4.149
REMARK  1 active torsions:
REMARK  status: ('A' for Active; 'I' for Inactive)
REMARK    1  A    between atoms: C_4  and  C_1 
ROOT
ATOM      1  C   UNL d   1     -41.966-122.917 -49.910  0.00  0.00     0.164 A 
ATOM      2  O   UNL d   1     -41.834-122.217 -50.327  0.00  0.00    -0.301 OA
ATOM      3  C   UNL d   1     -41.801-123.549 -50.410  0.00  0.00     0.033 A 
ATOM      4  C   UNL d   1     -41.586-122.419 -51.088  0.00  0.00     0.100 A 
ATOM      5  C   UNL d   1     -41.565-123.247 -51.139  0.00  0.00     0.025 A 
ATOM      6  C   UNL d   1     -41.376-121.964 -51.740  0.00  0.00     0.025 A 
ATOM      7  C   UNL d   1     -41.335-123.613 -51.843  0.00  0.00     0.002 A 
ATOM      8  C   UNL d   1     -41.123-123.151 -52.503  0.00  0.00     0.000 A 
ATOM      9  C   UNL d   1     -41.143-122.328 -52.452  0.00  0.00     0.002 A 
ENDROOT
BRANCH   1  10
ATOM     10  C   UNL d   1     -42.219-122.963 -49.130  0.00  0.00     0.235 C 
ATOM     11  O   UNL d   1     -41.694-123.246 -48.549  0.00  0.00    -0.642 OA
ATOM     12  O   UNL d   1     -42.983-122.733 -48.921  0.00  0.00    -0.642 OA
ENDBRANCH   1  10
TORSDOF 1
ENDMDL
MODEL 4
REMARK VINA RESULT:      -3.3      4.186      5.362
REMARK  1 active torsions:
REMARK  status: ('A' for Active; 'I' for Inactive)
REMARK    1  A    between atoms: C_4  and  C_1 
ROOT
ATOM      1  C   UNL d   1     -42.358-123.107 -49.464  0.00  0.00     0.164 A 
ATOM      2  O   UNL d   1     -41.693-122.954 -49.001  0.00  0.00    -0.301 OA
ATOM      3  C   UNL d   1     -42.931-123.454 -48.986  0.00  0.00     0.033 A 
ATOM      4  C   UNL d   1     -41.856-123.208 -48.233  0.00  0.00     0.100 A 
ATOM      5  C   UNL d   1     -42.625-123.518 -48.224  0.00  0.00     0.025 A 
ATOM      6  C   UNL d   1     -41.411-123.198 -47.541  0.00  0.00     0.025 A 
ATOM      7  C   UNL d   1     -42.944-123.817 -47.523  0.00  0.00     0.002 A 
ATOM      8  C   UNL d   1     -42.492-123.808 -46.822  0.00  0.00     0.000 A 
ATOM      9  C   UNL d   1     -41.727-123.499 -46.831  0.00  0.00     0.002 A 
ENDROOT
BRANCH   1  10
ATOM     10  C   UNL d   1     -42.426-122.938 -50.265  0.00  0.00     0.235 C 
ATOM     11  O   UNL d   1     -42.626-122.165 -50.502  0.00  0.00    -0.642 OA
ATOM     12  O   UNL d   1     -42.297-123.524 -50.832  0.00  0.00    -0.642 OA
ENDBRANCH   1  10
TORSDOF 1
ENDMDL
MODEL 5
REMARK VINA RESULT:      -3.2      9.991     10.340
REMARK  1 active torsions:
REMARK  status: ('A' for Active; 'I' for Inactive)
REMARK    1  A    between atoms: C_4  and  C_1 
ROOT
ATOM      1  C   UNL d   1     -43.785-115.059 -47.410  0.00  0.00     0.164 A 
ATOM      2  O   UNL d   1     -43.305-115.578 -46.984  0.00  0.00    -0.301 OA
ATOM      3  C   UNL d   1     -43.315-114.443 -47.687  0.00  0.00     0.033 A 
ATOM      4  C   UNL d   1     -42.535-115.281 -46.999  0.00  0.00     0.100 A 
ATOM      5  C   UNL d   1     -42.541-114.576 -47.436  0.00  0.00     0.025 A 
ATOM      6  C   UNL d   1     -41.830-115.555 -46.676  0.00  0.00     0.025 A 
ATOM      7  C   UNL d   1     -41.842-114.150 -47.546  0.00  0.00     0.002 A 
ATOM      8  C   UNL d   1     -41.129-114.429 -47.217  0.00  0.00     0.000 A 
ATOM      9  C   UNL d   1     -41.123-115.130 -46.783  0.00  0.00     0.002 A 
ENDROOT
BRANCH   1  10
ATOM     10  C   UNL d   1     -44.592-115.151 -47.530  0.00  0.00     0.235 C 
ATOM     11  O   UNL d   1     -45.124-114.810 -46.987  0.00  0.00    -0.642 OA
ATOM     12  O   UNL d   1     -44.876-115.574 -48.179  0.00  0.00    -0.642 OA
ENDBRANCH   1  10
TORSDOF 1
ENDMDL
