MODEL 1
REMARK VINA RESULT:      -3.3      0.000      0.000
REMARK  7 active torsions:
REMARK  status: ('A' for Active; 'I' for Inactive)
REMARK    1  A    between atoms: C_4  and  S_1 
REMARK    2  A    between atoms: N_6  and  S_1 
REMARK    3  A    between atoms: N_3  and  C_2 
REMARK    4  A    between atoms: C_15  and  N_6 
REMARK    5  A    between atoms: C_16  and  N_6 
REMARK    6  A    between atoms: C_18  and  C_15 
REMARK    7  A    between atoms: C_17  and  C_16 
ROOT
ATOM      1  C   UNL d   1     -41.950-122.391 -53.600  0.00  0.00     0.138 A 
ATOM      2  C   UNL d   1     -41.681-122.976 -52.324  0.00  0.00     0.106 A 
ATOM      3  C   UNL d   1     -42.043-122.393 -52.780  0.00  0.00     0.037 A 
ATOM      4  C   UNL d   1     -41.494-122.973 -53.964  0.00  0.00     0.080 A 
ATOM      5  C   UNL d   1     -41.223-123.560 -52.689  0.00  0.00     0.014 A 
ATOM      6  C   UNL d   1     -41.130-123.558 -53.509  0.00  0.00     0.014 A 
ATOM      7 CL   UNL d   1     -41.401-122.971 -54.784  0.00  0.00    -0.081 Cl
ENDROOT
BRANCH   2   8
ATOM      8  S   UNL d   1     -41.774-122.978 -51.505  0.00  0.00     0.271 S 
ATOM      9  O   UNL d   1     -42.231-123.663 -51.558  0.00  0.00    -0.200 OA
ATOM     10  O   UNL d   1     -41.317-122.293 -51.451  0.00  0.00    -0.200 OA
BRANCH   8  11
ATOM     11  N   UNL d   1     -41.867-122.980 -50.685  0.00  0.00    -0.229 N 
BRANCH  11  12
ATOM     12  C   UNL d   1     -41.540-123.590 -50.234  0.00  0.00     0.092 C 
BRANCH  12  13
ATOM     13  C   UNL d   1     -41.123-123.414 -49.544  0.00  0.00     0.020 C 
ATOM     14  C   UNL d   1     -41.296-123.809 -48.840  0.00  0.00     0.002 C 
ENDBRANCH  12  13
ENDBRANCH  11  12
BRANCH  11  15
ATOM     15  C   UNL d   1     -42.286-122.374 -50.317  0.00  0.00     0.092 C 
BRANCH  15  16
ATOM     16  C   UNL d   1     -43.015-122.532 -49.961  0.00  0.00     0.020 C 
ATOM     17  C   UNL d   1     -43.582-121.928 -49.888  0.00  0.00     0.002 C 
ENDBRANCH  15  16
ENDBRANCH  11  15
ENDBRANCH   8  11
ENDBRANCH   2   8
BRANCH   1  18
ATOM     18  N   UNL d   1     -42.317-121.802 -54.055  0.00  0.00    -0.113 N 
ATOM     19  O   UNL d   1     -41.883-121.158 -54.326  0.00  0.00    -0.532 OA
ATOM     20  O   UNL d   1     -43.120-121.864 -54.234  0.00  0.00    -0.532 OA
ENDBRANCH   1  18
TORSDOF 7
ENDMDL
MODEL 2
REMARK VINA RESULT:      -2.1      0.402      1.460
REMARK  7 active torsions:
REMARK  status: ('A' for Active; 'I' for Inactive)
REMARK    1  A    between atoms: C_4  and  S_1 
REMARK    2  A    between atoms: N_6  and  S_1 
REMARK    3  A    between atoms: N_3  and  C_2 
REMARK    4  A    between atoms: C_15  and  N_6 
REMARK    5  A    between atoms: C_16  and  N_6 
REMARK    6  A    between atoms: C_18  and  C_15 
REMARK    7  A    between atoms: C_17  and  C_16 
ROOT
ATOM      1  C   UNL d   1     -42.023-122.199 -53.902  0.00  0.00     0.138 A 
ATOM      2  C   UNL d   1     -41.662-122.774 -52.645  0.00  0.00     0.106 A 
ATOM      3  C   UNL d   1     -42.081-122.214 -53.079  0.00  0.00     0.037 A 
ATOM      4  C   UNL d   1     -41.544-122.745 -54.290  0.00  0.00     0.080 A 
ATOM      5  C   UNL d   1     -41.182-123.323 -53.034  0.00  0.00     0.014 A 
ATOM      6  C   UNL d   1     -41.123-123.308 -53.857  0.00  0.00     0.014 A 
ATOM      7 CL   UNL d   1     -41.486-122.731 -55.113  0.00  0.00    -0.081 Cl
ENDROOT
BRANCH   2   8
ATOM      8  S   UNL d   1     -41.721-122.789 -51.822  0.00  0.00     0.271 S 
ATOM      9  O   UNL d   1     -41.550-121.982 -51.796  0.00  0.00    -0.200 OA
ATOM     10  O   UNL d   1     -41.892-123.595 -51.848  0.00  0.00    -0.200 OA
BRANCH   8  11
ATOM     11  N   UNL d   1     -41.779-122.803 -50.999  0.00  0.00    -0.229 N 
BRANCH  11  12
ATOM     12  C   UNL d   1     -42.101-122.157 -50.598  0.00  0.00     0.092 C 
BRANCH  12  13
ATOM     13  C   UNL d   1     -42.723-122.270 -50.066  0.00  0.00     0.020 C 
ATOM     14  C   UNL d   1     -43.465-121.941 -50.217  0.00  0.00     0.002 C 
ENDBRANCH  12  13
ENDBRANCH  11  12
BRANCH  11  15
ATOM     15  C   UNL d   1     -41.517-123.461 -50.579  0.00  0.00     0.092 C 
BRANCH  15  16
ATOM     16  C   UNL d   1     -41.127-123.362 -49.858  0.00  0.00     0.020 C 
ATOM     17  C   UNL d   1     -41.392-123.768 -49.182  0.00  0.00     0.002 C 
ENDBRANCH  15  16
ENDBRANCH  11  15
ENDBRANCH   8  11
ENDBRANCH   2   8
BRANCH   1  18
ATOM     18  N   UNL d   1     -42.447-121.632 -54.335  0.00  0.00    -0.113 N 
ATOM     19  O   UNL d   1     -43.121-121.850 -54.753  0.00  0.00    -0.532 OA
ATOM     20  O   UNL d   1     -42.190-120.848 -54.345  0.00  0.00    -0.532 OA
ENDBRANCH   1  18
TORSDOF 7
ENDMDL
MODEL 3
REMARK VINA RESULT:      -1.9      1.818      3.914
REMARK  7 active torsions:
REMARK  status: ('A' for Active; 'I' for Inactive)
REMARK    1  A    between atoms: C_4  and  S_1 
REMARK    2  A    between atoms: N_6  and  S_1 
REMARK    3  A    between atoms: N_3  and  C_2 
REMARK    4  A    between atoms: C_15  and  N_6 
REMARK    5  A    between atoms: C_16  and  N_6 
REMARK    6  A    between atoms: C_18  and  C_15 
REMARK    7  A    between atoms: C_17  and  C_16 
ROOT
ATOM      1  C   UNL d   1     -42.605-122.480 -50.494  0.00  0.00     0.138 A 
ATOM      2  C   UNL d   1     -41.807-122.468 -51.679  0.00  0.00     0.106 A 
ATOM      3  C   UNL d   1     -42.547-122.453 -51.317  0.00  0.00     0.037 A 
ATOM      4  C   UNL d   1     -41.923-122.522 -50.034  0.00  0.00     0.080 A 
ATOM      5  C   UNL d   1     -41.123-122.511 -51.218  0.00  0.00     0.014 A 
ATOM      6  C   UNL d   1     -41.181-122.538 -50.396  0.00  0.00     0.014 A 
ATOM      7 CL   UNL d   1     -41.981-122.549 -49.212  0.00  0.00    -0.081 Cl
ENDROOT
BRANCH   2   8
ATOM      8  S   UNL d   1     -41.750-122.441 -52.502  0.00  0.00     0.271 S 
ATOM      9  O   UNL d   1     -42.354-122.999 -52.563  0.00  0.00    -0.200 OA
ATOM     10  O   UNL d   1     -41.145-121.883 -52.441  0.00  0.00    -0.200 OA
BRANCH   8  11
ATOM     11  N   UNL d   1     -41.692-122.415 -53.325  0.00  0.00    -0.229 N 
BRANCH  11  12
ATOM     12  C   UNL d   1     -41.699-121.686 -53.714  0.00  0.00     0.092 C 
BRANCH  12  13
ATOM     13  C   UNL d   1     -42.250-121.545 -54.313  0.00  0.00     0.020 C 
ATOM     14  C   UNL d   1     -42.254-120.822 -54.712  0.00  0.00     0.002 C 
ENDBRANCH  12  13
ENDBRANCH  11  12
BRANCH  11  15
ATOM     15  C   UNL d   1     -41.627-123.113 -53.756  0.00  0.00     0.092 C 
BRANCH  15  16
ATOM     16  C   UNL d   1     -41.136-123.145 -54.419  0.00  0.00     0.020 C 
ATOM     17  C   UNL d   1     -41.144-123.816 -54.911  0.00  0.00     0.002 C 
ENDBRANCH  15  16
ENDBRANCH  11  15
ENDBRANCH   8  11
ENDBRANCH   2   8
BRANCH   1  18
ATOM     18  N   UNL d   1     -43.353-122.464 -50.133  0.00  0.00    -0.113 N 
ATOM     19  O   UNL d   1     -43.563-123.045 -49.591  0.00  0.00    -0.532 OA
ATOM     20  O   UNL d   1     -43.885-121.861 -50.320  0.00  0.00    -0.532 OA
ENDBRANCH   1  18
TORSDOF 7
ENDMDL
MODEL 4
REMARK VINA RESULT:      -1.9      1.731      3.744
REMARK  7 active torsions:
REMARK  status: ('A' for Active; 'I' for Inactive)
REMARK    1  A    between atoms: C_4  and  S_1 
REMARK    2  A    between atoms: N_6  and  S_1 
REMARK    3  A    between atoms: N_3  and  C_2 
REMARK    4  A    between atoms: C_15  and  N_6 
REMARK    5  A    between atoms: C_16  and  N_6 
REMARK    6  A    between atoms: C_18  and  C_15 
REMARK    7  A    between atoms: C_17  and  C_16 
ROOT
ATOM      1  C   UNL d   1     -42.403-122.989 -50.478  0.00  0.00     0.138 A 
ATOM      2  C   UNL d   1     -41.702-123.089 -51.719  0.00  0.00     0.106 A 
ATOM      3  C   UNL d   1     -42.341-122.808 -51.281  0.00  0.00     0.037 A 
ATOM      4  C   UNL d   1     -41.827-123.451 -50.114  0.00  0.00     0.080 A 
ATOM      5  C   UNL d   1     -41.124-123.553 -51.354  0.00  0.00     0.014 A 
ATOM      6  C   UNL d   1     -41.186-123.734 -50.552  0.00  0.00     0.014 A 
ATOM      7 CL   UNL d   1     -41.889-123.632 -49.311  0.00  0.00    -0.081 Cl
ENDROOT
BRANCH   2   8
ATOM      8  S   UNL d   1     -41.640-122.908 -52.522  0.00  0.00     0.271 S 
ATOM      9  O   UNL d   1     -41.126-122.289 -52.342  0.00  0.00    -0.200 OA
ATOM     10  O   UNL d   1     -42.154-123.528 -52.701  0.00  0.00    -0.200 OA
BRANCH   8  11
ATOM     11  N   UNL d   1     -41.578-122.728 -53.324  0.00  0.00    -0.229 N 
BRANCH  11  12
ATOM     12  C   UNL d   1     -41.346-123.311 -53.861  0.00  0.00     0.092 C 
BRANCH  12  13
ATOM     13  C   UNL d   1     -41.160-123.104 -54.639  0.00  0.00     0.020 C 
ATOM     14  C   UNL d   1     -41.129-123.683 -55.227  0.00  0.00     0.002 C 
ENDBRANCH  12  13
ENDBRANCH  11  12
BRANCH  11  15
ATOM     15  C   UNL d   1     -41.746-121.966 -53.589  0.00  0.00     0.092 C 
BRANCH  15  16
ATOM     16  C   UNL d   1     -42.347-121.845 -54.143  0.00  0.00     0.020 C 
ATOM     17  C   UNL d   1     -42.377-121.135 -54.575  0.00  0.00     0.002 C 
ENDBRANCH  15  16
ENDBRANCH  11  15
ENDBRANCH   8  11
ENDBRANCH   2   8
BRANCH   1  18
ATOM     18  N   UNL d   1     -43.048-122.703 -50.040  0.00  0.00    -0.113 N 
ATOM     19  O   UNL d   1     -42.935-122.124 -49.467  0.00  0.00    -0.532 OA
ATOM     20  O   UNL d   1     -43.804-123.002 -50.182  0.00  0.00    -0.532 OA
ENDBRANCH   1  18
TORSDOF 7
ENDMDL
MODEL 5
REMARK VINA RESULT:      -0.4      2.127      4.013
REMARK  7 active torsions:
REMARK  status: ('A' for Active; 'I' for Inactive)
REMARK    1  A    between atoms: C_4  and  S_1 
REMARK    2  A    between atoms: N_6  and  S_1 
REMARK    3  A    between atoms: N_3  and  C_2 
REMARK    4  A    between atoms: C_15  and  N_6 
REMARK    5  A    between atoms: C_16  and  N_6 
REMARK    6  A    between atoms: C_18  and  C_15 
REMARK    7  A    between atoms: C_17  and  C_16 
ROOT
ATOM      1  C   UNL d   1     -42.616-123.086 -49.296  0.00  0.00     0.138 A 
ATOM      2  C   UNL d   1     -41.696-123.236 -50.378  0.00  0.00     0.106 A 
ATOM      3  C   UNL d   1     -42.409-122.948 -50.082  0.00  0.00     0.037 A 
ATOM      4  C   UNL d   1     -42.111-123.513 -48.805  0.00  0.00     0.080 A 
ATOM      5  C   UNL d   1     -41.188-123.664 -49.887  0.00  0.00     0.014 A 
ATOM      6  C   UNL d   1     -41.395-123.803 -49.100  0.00  0.00     0.014 A 
ATOM      7 CL   UNL d   1     -42.318-123.651 -48.019  0.00  0.00    -0.081 Cl
ENDROOT
BRANCH   2   8
ATOM      8  S   UNL d   1     -41.489-123.098 -51.165  0.00  0.00     0.271 S 
ATOM      9  O   UNL d   1     -41.841-123.812 -51.383  0.00  0.00    -0.200 OA
ATOM     10  O   UNL d   1     -41.137-122.385 -50.947  0.00  0.00    -0.200 OA
BRANCH   8  11
ATOM     11  N   UNL d   1     -41.282-122.960 -51.951  0.00  0.00    -0.229 N 
BRANCH  11  12
ATOM     12  C   UNL d   1     -41.123-122.190 -52.206  0.00  0.00     0.092 C 
BRANCH  12  13
ATOM     13  C   UNL d   1     -41.422-121.926 -52.930  0.00  0.00     0.020 C 
ATOM     14  C   UNL d   1     -41.392-121.124 -53.124  0.00  0.00     0.002 C 
ENDBRANCH  12  13
ENDBRANCH  11  12
BRANCH  11  15
ATOM     15  C   UNL d   1     -41.233-123.588 -52.481  0.00  0.00     0.092 C 
BRANCH  15  16
ATOM     16  C   UNL d   1     -41.133-123.442 -53.288  0.00  0.00     0.020 C 
ATOM     17  C   UNL d   1     -41.627-123.816 -53.844  0.00  0.00     0.002 C 
ENDBRANCH  15  16
ENDBRANCH  11  15
ENDBRANCH   8  11
ENDBRANCH   2   8
BRANCH   1  18
ATOM     18  N   UNL d   1     -43.336-122.794 -49.002  0.00  0.00    -0.113 N 
ATOM     19  O   UNL d   1     -44.037-123.199 -49.145  0.00  0.00    -0.532 OA
ATOM     20  O   UNL d   1     -43.345-122.094 -48.565  0.00  0.00    -0.532 OA
ENDBRANCH   1  18
TORSDOF 7
ENDMDL
