MODEL 1
REMARK VINA RESULT:      -4.7      0.000      0.000
REMARK  5 active torsions:
REMARK  status: ('A' for Active; 'I' for Inactive)
REMARK    1  A    between atoms: O_8  and  C_2 
REMARK    2  A    between atoms: C_9  and  C_5 
REMARK    3  A    between atoms: C_14  and  O_8 
REMARK    4  A    between atoms: N_11  and  C_9 
REMARK    5  A    between atoms: O_21  and  C_18 
ROOT
ATOM      1  C   UNL d   1     -41.384-122.372 -52.792  0.00  0.00     0.108 A 
ATOM      2  C   UNL d   1     -41.384-122.301 -51.128  0.00  0.00     0.161 A 
ATOM      3  C   UNL d   1     -41.255-123.065 -52.343  0.00  0.00     0.064 A 
ATOM      4  C   UNL d   1     -41.255-123.026 -51.524  0.00  0.00     0.222 A 
ATOM      5  C   UNL d   1     -41.384-122.408 -53.623  0.00  0.00     0.079 A 
ATOM      6  O   UNL d   1     -41.513-121.643 -52.415  0.00  0.00    -0.305 OA
ATOM      7  C   UNL d   1     -41.514-121.604 -51.580  0.00  0.00     0.126 A 
ATOM      8  C   UNL d   1     -41.127-123.783 -52.742  0.00  0.00     0.009 A 
ATOM      9  C   UNL d   1     -41.257-123.127 -54.007  0.00  0.00     0.199 A 
ATOM     10  O   UNL d   1     -41.128-123.709 -51.076  0.00  0.00    -0.284 OA
ATOM     11  C   UNL d   1     -41.128-123.815 -53.566  0.00  0.00     0.042 A 
ATOM     12  O   UNL d   1     -41.258-123.158 -54.832  0.00  0.00    -0.286 OA
ATOM     13  C   UNL d   1     -41.641-120.885 -51.196  0.00  0.00     0.029 C 
ENDROOT
BRANCH   2  14
ATOM     14  O   UNL d   1     -41.383-122.266 -50.306  0.00  0.00    -0.302 OA
BRANCH  14  15
ATOM     15  C   UNL d   1     -42.024-122.564 -49.879  0.00  0.00     0.102 A 
ATOM     16  C   UNL d   1     -41.890-123.039 -49.218  0.00  0.00     0.049 A 
ATOM     17  C   UNL d   1     -42.530-123.338 -48.791  0.00  0.00     0.096 A 
ATOM     18  C   UNL d   1     -43.302-123.161 -49.025  0.00  0.00     0.024 A 
ATOM     19  C   UNL d   1     -43.431-122.678 -49.696  0.00  0.00     0.004 A 
ATOM     20  C   UNL d   1     -42.791-122.386 -50.115  0.00  0.00     0.025 A 
BRANCH  17  21
ATOM     21  O   UNL d   1     -42.396-123.813 -48.130  0.00  0.00    -0.328 OA
ATOM     22  C   UNL d   1     -41.871-123.562 -47.544  0.00  0.00     0.181 C 
ENDBRANCH  17  21
ENDBRANCH  14  15
ENDBRANCH   2  14
BRANCH   5  23
ATOM     23  C   UNL d   1     -41.511-121.727 -54.059  0.00  0.00     0.086 C 
BRANCH  23  24
ATOM     24  N   UNL d   1     -42.010-121.747 -54.721  0.00  0.00    -0.299 N 
ATOM     25  C   UNL d   1     -41.683-121.719 -55.480  0.00  0.00     0.107 A 
ATOM     26  C   UNL d   1     -42.178-121.739 -56.139  0.00  0.00     0.142 A 
ATOM     27  O   UNL d   1     -42.999-121.787 -56.041  0.00  0.00    -0.300 OA
ATOM     28  C   UNL d   1     -43.322-121.816 -55.280  0.00  0.00     0.142 A 
ATOM     29  C   UNL d   1     -42.825-121.796 -54.615  0.00  0.00     0.107 A 
ENDBRANCH  23  24
ENDBRANCH   5  23
TORSDOF 5
ENDMDL
MODEL 2
REMARK VINA RESULT:      -2.3      1.446      5.353
REMARK  5 active torsions:
REMARK  status: ('A' for Active; 'I' for Inactive)
REMARK    1  A    between atoms: O_8  and  C_2 
REMARK    2  A    between atoms: C_9  and  C_5 
REMARK    3  A    between atoms: C_14  and  O_8 
REMARK    4  A    between atoms: N_11  and  C_9 
REMARK    5  A    between atoms: O_21  and  C_18 
ROOT
ATOM      1  C   UNL d   1     -42.351-122.675 -50.594  0.00  0.00     0.108 A 
ATOM      2  C   UNL d   1     -41.547-122.441 -52.033  0.00  0.00     0.161 A 
ATOM      3  C   UNL d   1     -42.363-121.926 -50.963  0.00  0.00     0.064 A 
ATOM      4  C   UNL d   1     -41.965-121.813 -51.672  0.00  0.00     0.222 A 
ATOM      5  C   UNL d   1     -42.753-122.793 -49.875  0.00  0.00     0.079 A 
ATOM      6  O   UNL d   1     -41.940-123.310 -50.940  0.00  0.00    -0.305 OA
ATOM      7  C   UNL d   1     -41.535-123.194 -51.662  0.00  0.00     0.126 A 
ATOM      8  C   UNL d   1     -42.781-121.306 -50.599  0.00  0.00     0.009 A 
ATOM      9  C   UNL d   1     -43.164-122.170 -49.524  0.00  0.00     0.199 A 
ATOM     10  O   UNL d   1     -41.974-121.074 -52.040  0.00  0.00    -0.284 OA
ATOM     11  C   UNL d   1     -43.178-121.426 -49.886  0.00  0.00     0.042 A 
ATOM     12  O   UNL d   1     -43.562-122.291 -48.811  0.00  0.00    -0.286 OA
ATOM     13  C   UNL d   1     -41.124-123.817 -52.014  0.00  0.00     0.029 C 
ENDROOT
BRANCH   2  14
ATOM     14  O   UNL d   1     -41.149-122.324 -52.744  0.00  0.00    -0.302 OA
BRANCH  14  15
ATOM     15  C   UNL d   1     -41.491-122.568 -53.454  0.00  0.00     0.102 A 
ATOM     16  C   UNL d   1     -41.769-122.006 -53.990  0.00  0.00     0.049 A 
ATOM     17  C   UNL d   1     -42.112-122.250 -54.700  0.00  0.00     0.096 A 
ATOM     18  C   UNL d   1     -42.176-123.055 -54.874  0.00  0.00     0.024 A 
ATOM     19  C   UNL d   1     -41.892-123.620 -54.327  0.00  0.00     0.004 A 
ATOM     20  C   UNL d   1     -41.553-123.370 -53.624  0.00  0.00     0.025 A 
BRANCH  17  21
ATOM     21  O   UNL d   1     -42.390-121.687 -55.236  0.00  0.00    -0.328 OA
ATOM     22  C   UNL d   1     -42.509-121.896 -56.026  0.00  0.00     0.181 C 
ENDBRANCH  17  21
ENDBRANCH  14  15
ENDBRANCH   2  14
BRANCH   5  23
ATOM     23  C   UNL d   1     -42.740-123.529 -49.517  0.00  0.00     0.086 C 
BRANCH  23  24
ATOM     24  N   UNL d   1     -42.364-123.625 -48.785  0.00  0.00    -0.299 N 
ATOM     25  C   UNL d   1     -42.820-123.704 -48.100  0.00  0.00     0.107 A 
ATOM     26  C   UNL d   1     -42.448-123.800 -47.369  0.00  0.00     0.142 A 
ATOM     27  O   UNL d   1     -41.621-123.817 -47.324  0.00  0.00    -0.300 OA
ATOM     28  C   UNL d   1     -41.169-123.738 -48.012  0.00  0.00     0.142 A 
ATOM     29  C   UNL d   1     -41.542-123.641 -48.748  0.00  0.00     0.107 A 
ENDBRANCH  23  24
ENDBRANCH   5  23
TORSDOF 5
ENDMDL
