MODEL 1
REMARK VINA RESULT:       9.9      0.000      0.000
REMARK  1 active torsions:
REMARK  status: ('A' for Active; 'I' for Inactive)
REMARK    1  A    between atoms: C_5  and  C_1 
ROOT
ATOM      1  C   UNL d   1      14.523  12.358  -1.072  0.00  0.00     0.128 A 
ATOM      2  C   UNL d   1      13.796  11.978  -0.842  0.00  0.00     0.306 A 
ATOM      3  C   UNL d   1      14.642  12.525  -1.861  0.00  0.00     0.013 A 
ATOM      4  O   UNL d   1      13.241  11.793  -1.417  0.00  0.00    -0.273 OA
ATOM      5  C   UNL d   1      14.075  12.335  -2.437  0.00  0.00     0.023 A 
ATOM      6  C   UNL d   1      13.368  11.966  -2.214  0.00  0.00     0.103 A 
ATOM      7  O   UNL d   1      13.629  11.786  -0.038  0.00  0.00    -0.259 OA
ATOM      8  C   UNL d   1      14.223  12.513  -3.206  0.00  0.00     0.002 A 
ATOM      9  C   UNL d   1      12.821  11.781  -2.762  0.00  0.00     0.025 A 
ATOM     10  C   UNL d   1      13.675  12.334  -3.793  0.00  0.00     0.000 A 
ATOM     11  C   UNL d   1      12.948  11.954  -3.563  0.00  0.00     0.002 A 
ENDROOT
BRANCH   1  12
ATOM     12  C   UNL d   1      15.062  12.537  -0.516  0.00  0.00     0.216 C 
ATOM     13  O   UNL d   1      15.407  11.964  -0.033  0.00  0.00    -0.644 OA
ATOM     14  O   UNL d   1      15.378  13.251  -0.300  0.00  0.00    -0.644 OA
ENDBRANCH   1  12
TORSDOF 1
ENDMDL
