MODEL 1
REMARK VINA RESULT:      24.1      0.000      0.000
REMARK  4 active torsions:
REMARK  status: ('A' for Active; 'I' for Inactive)
REMARK    1  A    between atoms: C_6  and  C_1 
REMARK    2  A    between atoms: C_7  and  C_5 
REMARK    3  A    between atoms: O_15  and  C_12 
REMARK    4  A    between atoms: C_16  and  O_15 
ROOT
ATOM      1  C   UNL d   1     -51.432  25.343  33.458  0.00  0.00     0.020 A 
ATOM      2  C   UNL d   1     -51.042  24.630  33.654  0.00  0.00     0.004 A 
ATOM      3  C   UNL d   1     -52.244  25.339  33.306  0.00  0.00     0.004 A 
ATOM      4  C   UNL d   1     -52.297  23.926  33.537  0.00  0.00     0.100 A 
ATOM      5  C   UNL d   1     -51.471  23.927  33.693  0.00  0.00     0.025 A 
ATOM      6  C   UNL d   1     -52.672  24.636  33.345  0.00  0.00     0.025 A 
ENDROOT
BRANCH   1   7
ATOM      7  C   UNL d   1     -51.004  26.050  33.418  0.00  0.00     0.105 A 
ATOM      8  C   UNL d   1     -51.333  27.371  33.409  0.00  0.00     0.048 A 
ATOM      9  C   UNL d   1     -50.561  27.557  33.360  0.00  0.00     0.169 A 
ATOM     10  N   UNL d   1     -50.013  26.993  33.340  0.00  0.00    -0.142 NA
ATOM     11  N   UNL d   1     -50.243  26.239  33.370  0.00  0.00    -0.148 NA
BRANCH   9  12
ATOM     12  C   UNL d   1     -50.347  28.320  33.331  0.00  0.00     0.231 C 
ATOM     13  O   UNL d   1     -49.580  28.512  33.326  0.00  0.00    -0.643 OA
ATOM     14  O   UNL d   1     -50.925  28.907  33.307  0.00  0.00    -0.643 OA
ENDBRANCH   9  12
ENDBRANCH   1   7
BRANCH   4  15
ATOM     15  O   UNL d   1     -52.723  23.212  33.579  0.00  0.00    -0.305 OA
BRANCH  15  16
ATOM     16  C   UNL d   1     -53.435  23.189  33.998  0.00  0.00     0.123 C 
ATOM     17  C   UNL d   1     -54.154  23.310  33.601  0.00  0.00     0.029 C 
ENDBRANCH  15  16
ENDBRANCH   4  15
TORSDOF 4
ENDMDL
MODEL 2
REMARK VINA RESULT:      24.6      1.367      4.378
REMARK  4 active torsions:
REMARK  status: ('A' for Active; 'I' for Inactive)
REMARK    1  A    between atoms: C_6  and  C_1 
REMARK    2  A    between atoms: C_7  and  C_5 
REMARK    3  A    between atoms: O_15  and  C_12 
REMARK    4  A    between atoms: C_16  and  O_15 
ROOT
ATOM      1  C   UNL d   1     -51.085  25.843  33.441  0.00  0.00     0.020 A 
ATOM      2  C   UNL d   1     -51.319  26.638  33.328  0.00  0.00     0.004 A 
ATOM      3  C   UNL d   1     -50.293  25.667  33.592  0.00  0.00     0.004 A 
ATOM      4  C   UNL d   1     -49.951  27.056  33.523  0.00  0.00     0.100 A 
ATOM      5  C   UNL d   1     -50.756  27.240  33.369  0.00  0.00     0.025 A 
ATOM      6  C   UNL d   1     -49.731  26.268  33.633  0.00  0.00     0.025 A 
ENDROOT
BRANCH   1   7
ATOM      7  C   UNL d   1     -51.647  25.238  33.400  0.00  0.00     0.105 A 
ATOM      8  C   UNL d   1     -53.007  25.188  33.431  0.00  0.00     0.048 A 
ATOM      9  C   UNL d   1     -52.974  24.397  33.358  0.00  0.00     0.169 A 
ATOM     10  N   UNL d   1     -52.281  24.027  33.306  0.00  0.00    -0.142 NA
ATOM     11  N   UNL d   1     -51.620  24.455  33.328  0.00  0.00    -0.148 NA
BRANCH   9  12
ATOM     12  C   UNL d   1     -53.649  23.980  33.337  0.00  0.00     0.231 C 
ATOM     13  O   UNL d   1     -53.621  23.191  33.323  0.00  0.00    -0.643 OA
ATOM     14  O   UNL d   1     -54.373  24.374  33.332  0.00  0.00    -0.643 OA
ENDBRANCH   9  12
ENDBRANCH   1   7
BRANCH   4  15
ATOM     15  O   UNL d   1     -49.389  27.669  33.563  0.00  0.00    -0.305 OA
BRANCH  15  16
ATOM     16  C   UNL d   1     -48.987  27.805  34.272  0.00  0.00     0.123 C 
ATOM     17  C   UNL d   1     -48.876  28.581  34.545  0.00  0.00     0.029 C 
ENDBRANCH  15  16
ENDBRANCH   4  15
TORSDOF 4
ENDMDL
