MODEL 1
REMARK VINA RESULT:      -6.1      0.000      0.000
REMARK  1 active torsions:
REMARK  status: ('A' for Active; 'I' for Inactive)
REMARK    1  A    between atoms: C_7  and  C_1 
ROOT
ATOM      1  C   UNL d   1     -41.626-122.825 -50.970  0.00  0.00     0.103 A 
ATOM      2  C   UNL d   1     -41.441-122.038 -51.188  0.00  0.00     0.067 A 
ATOM      3  C   UNL d   1     -41.351-122.443 -52.573  0.00  0.00     0.062 A 
ATOM      4  C   UNL d   1     -41.305-121.854 -51.990  0.00  0.00     0.200 A 
ATOM      5  O   UNL d   1     -41.673-123.418 -51.552  0.00  0.00    -0.307 OA
ATOM      6  C   UNL d   1     -41.537-123.228 -52.347  0.00  0.00     0.103 A 
ATOM      7  C   UNL d   1     -41.217-122.259 -53.362  0.00  0.00     0.005 A 
ATOM      8  O   UNL d   1     -41.123-121.078 -52.205  0.00  0.00    -0.286 OA
ATOM      9  C   UNL d   1     -41.583-123.817 -52.930  0.00  0.00     0.025 A 
ATOM     10  C   UNL d   1     -41.264-122.847 -53.937  0.00  0.00     0.000 A 
ATOM     11  C   UNL d   1     -41.446-123.621 -53.722  0.00  0.00     0.002 A 
ATOM     12  C   UNL d   1     -41.128-122.658 -54.727  0.00  0.00     0.000 C 
ENDROOT
BRANCH   1  13
ATOM     13  C   UNL d   1     -41.759-123.006 -50.182  0.00  0.00     0.023 A 
ATOM     14  C   UNL d   1     -42.506-122.876 -49.845  0.00  0.00     0.002 A 
ATOM     15  C   UNL d   1     -42.633-123.060 -49.052  0.00  0.00     0.000 A 
ATOM     16  C   UNL d   1     -42.020-123.371 -48.596  0.00  0.00     0.000 A 
ATOM     17  C   UNL d   1     -41.280-123.499 -48.933  0.00  0.00     0.000 A 
ATOM     18  C   UNL d   1     -42.152-123.555 -47.798  0.00  0.00     0.000 C 
ATOM     19  C   UNL d   1     -41.152-123.315 -49.725  0.00  0.00     0.002 A 
ENDBRANCH   1  13
TORSDOF 1
ENDMDL
MODEL 2
REMARK VINA RESULT:      -5.9      0.944      4.135
REMARK  1 active torsions:
REMARK  status: ('A' for Active; 'I' for Inactive)
REMARK    1  A    between atoms: C_7  and  C_1 
ROOT
ATOM      1  C   UNL d   1     -41.666-122.244 -52.805  0.00  0.00     0.103 A 
ATOM      2  C   UNL d   1     -41.465-121.558 -52.367  0.00  0.00     0.067 A 
ATOM      3  C   UNL d   1     -41.374-122.354 -51.163  0.00  0.00     0.062 A 
ATOM      4  C   UNL d   1     -41.320-121.621 -51.548  0.00  0.00     0.200 A 
ATOM      5  O   UNL d   1     -41.721-122.981 -52.422  0.00  0.00    -0.307 OA
ATOM      6  C   UNL d   1     -41.576-123.036 -51.608  0.00  0.00     0.103 A 
ATOM      7  C   UNL d   1     -41.232-122.413 -50.357  0.00  0.00     0.005 A 
ATOM      8  O   UNL d   1     -41.123-120.946 -51.117  0.00  0.00    -0.286 OA
ATOM      9  C   UNL d   1     -41.629-123.769 -51.224  0.00  0.00     0.025 A 
ATOM     10  C   UNL d   1     -41.286-123.143 -49.979  0.00  0.00     0.000 A 
ATOM     11  C   UNL d   1     -41.484-123.817 -50.410  0.00  0.00     0.002 A 
ATOM     12  C   UNL d   1     -41.142-123.197 -49.171  0.00  0.00     0.000 C 
ENDROOT
BRANCH   1  13
ATOM     13  C   UNL d   1     -41.808-122.182 -53.609  0.00  0.00     0.023 A 
ATOM     14  C   UNL d   1     -41.324-122.584 -54.150  0.00  0.00     0.002 A 
ATOM     15  C   UNL d   1     -41.472-122.517 -54.958  0.00  0.00     0.000 A 
ATOM     16  C   UNL d   1     -42.099-122.054 -55.227  0.00  0.00     0.000 A 
ATOM     17  C   UNL d   1     -42.578-121.656 -54.688  0.00  0.00     0.000 A 
ATOM     18  C   UNL d   1     -42.245-121.990 -56.041  0.00  0.00     0.000 C 
ATOM     19  C   UNL d   1     -42.430-121.722 -53.881  0.00  0.00     0.002 A 
ENDBRANCH   1  13
TORSDOF 1
ENDMDL
MODEL 3
REMARK VINA RESULT:      -4.5      1.001      4.278
REMARK  1 active torsions:
REMARK  status: ('A' for Active; 'I' for Inactive)
REMARK    1  A    between atoms: C_7  and  C_1 
ROOT
ATOM      1  C   UNL d   1     -41.962-123.022 -50.462  0.00  0.00     0.103 A 
ATOM      2  C   UNL d   1     -42.715-122.737 -50.229  0.00  0.00     0.067 A 
ATOM      3  C   UNL d   1     -42.402-123.038 -48.849  0.00  0.00     0.062 A 
ATOM      4  C   UNL d   1     -42.928-122.748 -49.422  0.00  0.00     0.200 A 
ATOM      5  O   UNL d   1     -41.432-123.314 -49.890  0.00  0.00    -0.307 OA
ATOM      6  C   UNL d   1     -41.651-123.321 -49.090  0.00  0.00     0.103 A 
ATOM      7  C   UNL d   1     -42.614-123.048 -48.057  0.00  0.00     0.005 A 
ATOM      8  O   UNL d   1     -43.669-122.467 -49.193  0.00  0.00    -0.286 OA
ATOM      9  C   UNL d   1     -41.125-123.612 -48.518  0.00  0.00     0.025 A 
ATOM     10  C   UNL d   1     -42.089-123.337 -47.492  0.00  0.00     0.000 A 
ATOM     11  C   UNL d   1     -41.348-123.617 -47.721  0.00  0.00     0.002 A 
ATOM     12  C   UNL d   1     -42.305-123.344 -46.698  0.00  0.00     0.000 C 
ENDROOT
BRANCH   1  13
ATOM     13  C   UNL d   1     -41.754-123.011 -51.253  0.00  0.00     0.023 A 
ATOM     14  C   UNL d   1     -41.594-123.720 -51.653  0.00  0.00     0.002 A 
ATOM     15  C   UNL d   1     -41.385-123.702 -52.450  0.00  0.00     0.000 A 
ATOM     16  C   UNL d   1     -41.334-122.981 -52.848  0.00  0.00     0.000 A 
ATOM     17  C   UNL d   1     -41.493-122.278 -52.449  0.00  0.00     0.000 A 
ATOM     18  C   UNL d   1     -41.123-122.967 -53.650  0.00  0.00     0.000 C 
ATOM     19  C   UNL d   1     -41.702-122.296 -51.653  0.00  0.00     0.002 A 
ENDBRANCH   1  13
TORSDOF 1
ENDMDL
