MODEL 1
REMARK VINA RESULT:       2.8      0.000      0.000
REMARK  7 active torsions:
REMARK  status: ('A' for Active; 'I' for Inactive)
REMARK    1  A    between atoms: C_6  and  C_1 
REMARK    2  A    between atoms: C_9  and  N_3 
REMARK    3  A    between atoms: C_11  and  C_4 
REMARK       I    between atoms: N_7  and  C_6 
REMARK    4  A    between atoms: C_15  and  N_7 
REMARK    5  A    between atoms: C_8  and  C_10 
REMARK    6  A    between atoms: O_18  and  C_8 
REMARK    7  A    between atoms: C_27  and  O_18 
ROOT
ATOM      1  C   UNL d   1      57.752  -0.912  30.709  0.00  0.00     0.096 A 
ATOM      2  N   UNL d   1      57.410   0.438  31.015  0.00  0.00    -0.165 NA
ATOM      3  N   UNL d   1      56.866  -0.624  31.789  0.00  0.00    -0.228 N 
ATOM      4  C   UNL d   1      57.820  -0.103  30.551  0.00  0.00     0.108 A 
ATOM      5  C   UNL d   1      57.273  -1.165  31.330  0.00  0.00     0.107 A 
ENDROOT
BRANCH   1   6
ATOM      6  C   UNL d   1      58.160  -1.454  30.249  0.00  0.00     0.282 C 
ATOM      7  N   UNL d   1      58.632  -2.064  30.618  0.00  0.00    -0.208 NA
ATOM      8  O   UNL d   1      58.115  -1.413  29.431  0.00  0.00    -0.265 OA
BRANCH   7   9
ATOM      9  C   UNL d   1      59.051  -2.621  30.140  0.00  0.00     0.085 A 
ATOM     10  C   UNL d   1      58.754  -3.401  30.028  0.00  0.00     0.019 A 
ATOM     11  C   UNL d   1      59.175  -3.957  29.551  0.00  0.00     0.007 A 
ATOM     12  C   UNL d   1      59.903  -3.728  29.179  0.00  0.00     0.064 A 
ATOM     13  C   UNL d   1      60.197  -2.947  29.294  0.00  0.00     0.007 A 
ATOM     14  C   UNL d   1      59.772  -2.395  29.773  0.00  0.00     0.019 A 
BRANCH  12  15
ATOM     15  C   UNL d   1      60.331  -4.283  28.697  0.00  0.00     0.300 C 
ATOM     16  O   UNL d   1      61.127  -4.114  28.456  0.00  0.00    -0.259 OA
BRANCH  15  17
ATOM     17  O   UNL d   1      59.963  -5.009  28.455  0.00  0.00    -0.271 OA
BRANCH  17  18
ATOM     18  C   UNL d   1      60.349  -5.747  28.594  0.00  0.00     0.126 C 
ATOM     19  C   UNL d   1      59.895  -6.436  28.735  0.00  0.00     0.029 C 
ENDBRANCH  17  18
ENDBRANCH  15  17
ENDBRANCH  12  15
ENDBRANCH   7   9
ENDBRANCH   1   6
BRANCH   4  20
ATOM     20  C   UNL d   1      58.289   0.155  29.943  0.00  0.00     0.023 A 
ATOM     21  C   UNL d   1      59.093   0.272  30.060  0.00  0.00     0.022 A 
ATOM     22  C   UNL d   1      59.572   0.533  29.448  0.00  0.00     0.099 A 
ATOM     23  N   UNL d   1      59.239   0.681  28.706  0.00  0.00    -0.242 NA
ATOM     24  C   UNL d   1      58.436   0.566  28.583  0.00  0.00     0.099 A 
ATOM     25  C   UNL d   1      57.961   0.304  29.202  0.00  0.00     0.022 A 
ENDBRANCH   4  20
BRANCH   3  26
ATOM     26  C   UNL d   1      56.356  -0.673  32.429  0.00  0.00     0.083 A 
ATOM     27  C   UNL d   1      56.268  -0.026  32.926  0.00  0.00     0.019 A 
ATOM     28  C   UNL d   1      55.758  -0.078  33.566  0.00  0.00     0.002 A 
ATOM     29  C   UNL d   1      55.336  -0.772  33.710  0.00  0.00     0.000 A 
ATOM     30  C   UNL d   1      55.428  -1.420  33.207  0.00  0.00     0.002 A 
ATOM     31  C   UNL d   1      55.938  -1.369  32.568  0.00  0.00     0.019 A 
ENDBRANCH   3  26
TORSDOF 7
ENDMDL
