MODEL 1
REMARK VINA RESULT:      11.8      0.000      0.000
REMARK  6 active torsions:
REMARK  status: ('A' for Active; 'I' for Inactive)
REMARK       I    between atoms: C_5  and  N_1 
REMARK    1  A    between atoms: C_10  and  C_5 
REMARK    2  A    between atoms: C_7  and  C_13 
REMARK       I    between atoms: N_8  and  C_7 
REMARK    3  A    between atoms: C_12  and  N_8 
REMARK    4  A    between atoms: C_13  and  C_10 
REMARK    5  A    between atoms: O_20  and  C_14 
REMARK    6  A    between atoms: C_22  and  O_20 
ROOT
ATOM      1  C   UNL d   1     -41.475-120.682 -52.733  0.00  0.00     0.279 C 
ATOM      2  N   UNL d   1     -41.484-120.726 -53.548  0.00  0.00    -0.208 NA
ATOM      3  O   UNL d   1     -41.152-120.012 -52.349  0.00  0.00    -0.265 OA
ENDROOT
BRANCH   1   4
ATOM      4  C   UNL d   1     -41.780-121.291 -52.294  0.00  0.00     0.068 C 
BRANCH   4   5
ATOM      5  C   UNL d   1     -41.313-121.680 -51.741  0.00  0.00     0.068 C 
BRANCH   5   6
ATOM      6  C   UNL d   1     -41.460-121.589 -50.934  0.00  0.00     0.281 C 
ATOM      7  N   UNL d   1     -41.949-122.137 -50.540  0.00  0.00    -0.195 N 
ATOM      8  N   UNL d   1     -42.353-122.803 -50.789  0.00  0.00    -0.163 NA
ATOM      9  C   UNL d   1     -42.093-122.041 -49.735  0.00  0.00     0.088 A 
ATOM     10  C   UNL d   1     -42.757-123.129 -50.125  0.00  0.00     0.103 A 
ATOM     11  C   UNL d   1     -43.236-123.803 -50.108  0.00  0.00     0.022 C 
ATOM     12  C   UNL d   1     -42.588-122.653 -49.491  0.00  0.00     0.040 A 
ATOM     13  C   UNL d   1     -41.797-121.438 -49.244  0.00  0.00     0.021 C 
ATOM     14  O   UNL d   1     -41.123-120.956 -50.520  0.00  0.00    -0.265 OA
ENDBRANCH   5   6
ENDBRANCH   4   5
ENDBRANCH   1   4
BRANCH   2  15
ATOM     15  C   UNL d   1     -41.804-121.389 -53.924  0.00  0.00     0.085 A 
ATOM     16  C   UNL d   1     -42.625-121.442 -54.050  0.00  0.00     0.021 A 
ATOM     17  C   UNL d   1     -42.946-122.105 -54.426  0.00  0.00     0.026 A 
ATOM     18  C   UNL d   1     -42.454-122.702 -54.672  0.00  0.00     0.100 A 
ATOM     19  C   UNL d   1     -41.633-122.655 -54.549  0.00  0.00     0.026 A 
ATOM     20  C   UNL d   1     -41.308-121.999 -54.176  0.00  0.00     0.021 A 
BRANCH  18  21
ATOM     21  O   UNL d   1     -42.791-123.361 -55.048  0.00  0.00    -0.305 OA
BRANCH  21  22
ATOM     22  C   UNL d   1     -42.942-123.349 -55.851  0.00  0.00     0.123 C 
ATOM     23  C   UNL d   1     -43.637-123.667 -56.146  0.00  0.00     0.029 C 
ENDBRANCH  21  22
ENDBRANCH  18  21
ENDBRANCH   2  15
TORSDOF 6
ENDMDL
MODEL 2
REMARK VINA RESULT:      13.7      1.892      4.440
REMARK  6 active torsions:
REMARK  status: ('A' for Active; 'I' for Inactive)
REMARK       I    between atoms: C_5  and  N_1 
REMARK    1  A    between atoms: C_10  and  C_5 
REMARK    2  A    between atoms: C_7  and  C_13 
REMARK       I    between atoms: N_8  and  C_7 
REMARK    3  A    between atoms: C_12  and  N_8 
REMARK    4  A    between atoms: C_13  and  C_10 
REMARK    5  A    between atoms: O_20  and  C_14 
REMARK    6  A    between atoms: C_22  and  O_20 
ROOT
ATOM      1  C   UNL d   1     -41.765-123.266 -50.673  0.00  0.00     0.279 C 
ATOM      2  N   UNL d   1     -42.369-123.273 -50.123  0.00  0.00    -0.208 NA
ATOM      3  O   UNL d   1     -41.128-123.806 -50.607  0.00  0.00    -0.265 OA
ENDROOT
BRANCH   1   4
ATOM      4  C   UNL d   1     -41.784-122.735 -51.285  0.00  0.00     0.068 C 
BRANCH   4   5
ATOM      5  C   UNL d   1     -41.536-122.957 -52.036  0.00  0.00     0.068 C 
BRANCH   5   6
ATOM      6  C   UNL d   1     -41.428-122.388 -52.624  0.00  0.00     0.281 C 
ATOM      7  N   UNL d   1     -41.553-122.591 -53.422  0.00  0.00    -0.195 N 
ATOM      8  N   UNL d   1     -41.778-123.284 -53.792  0.00  0.00    -0.163 NA
ATOM      9  C   UNL d   1     -41.443-122.018 -54.004  0.00  0.00     0.088 A 
ATOM     10  C   UNL d   1     -41.809-123.141 -54.622  0.00  0.00     0.103 A 
ATOM     11  C   UNL d   1     -42.010-123.677 -55.219  0.00  0.00     0.022 C 
ATOM     12  C   UNL d   1     -41.603-122.365 -54.734  0.00  0.00     0.040 A 
ATOM     13  C   UNL d   1     -41.213-121.227 -53.888  0.00  0.00     0.021 C 
ATOM     14  O   UNL d   1     -41.196-121.620 -52.418  0.00  0.00    -0.265 OA
ENDBRANCH   5   6
ENDBRANCH   4   5
ENDBRANCH   1   4
BRANCH   2  15
ATOM     15  C   UNL d   1     -42.997-122.740 -50.190  0.00  0.00     0.085 A 
ATOM     16  C   UNL d   1     -42.871-121.928 -50.058  0.00  0.00     0.021 A 
ATOM     17  C   UNL d   1     -43.500-121.394 -50.125  0.00  0.00     0.026 A 
ATOM     18  C   UNL d   1     -44.238-121.668 -50.320  0.00  0.00     0.100 A 
ATOM     19  C   UNL d   1     -44.370-122.478 -50.453  0.00  0.00     0.026 A 
ATOM     20  C   UNL d   1     -43.750-123.014 -50.389  0.00  0.00     0.021 A 
BRANCH  18  21
ATOM     21  O   UNL d   1     -44.858-121.119 -50.383  0.00  0.00    -0.305 OA
BRANCH  21  22
ATOM     22  C   UNL d   1     -45.440-121.082 -49.811  0.00  0.00     0.123 C 
ATOM     23  C   UNL d   1     -45.889-120.402 -49.721  0.00  0.00     0.029 C 
ENDBRANCH  21  22
ENDBRANCH  18  21
ENDBRANCH   2  15
TORSDOF 6
ENDMDL
