MODEL 1
REMARK VINA RESULT:      40.4      0.000      0.000
REMARK  6 active torsions:
REMARK  status: ('A' for Active; 'I' for Inactive)
REMARK    1  A    between atoms: S_10  and  C_3 
REMARK    2  A    between atoms: C_14  and  C_7 
REMARK    3  A    between atoms: C_18  and  S_10 
REMARK       I    between atoms: N_11  and  C_12 
REMARK    4  A    between atoms: C_13  and  N_11 
REMARK    5  A    between atoms: C_12  and  C_18 
REMARK    6  A    between atoms: O_20  and  C_16 
ROOT
ATOM      1  N   UNL d   1      46.262 -18.912  41.229  0.00  0.00    -0.186 N 
ATOM      2  N   UNL d   1      46.203 -18.586  41.977  0.00  0.00    -0.162 NA
ATOM      3  C   UNL d   1      46.136 -18.591  40.476  0.00  0.00     0.217 A 
ATOM      4  C   UNL d   1      46.483 -19.699  41.129  0.00  0.00     0.187 A 
ATOM      5  N   UNL d   1      46.281 -19.182  39.928  0.00  0.00    -0.120 NA
ATOM      6  N   UNL d   1      46.495 -19.869  40.331  0.00  0.00    -0.127 NA
ATOM      7  C   UNL d   1      46.367 -19.055  42.639  0.00  0.00     0.103 A 
ATOM      8  C   UNL d   1      46.647 -20.168  41.795  0.00  0.00     0.042 A 
ATOM      9  C   UNL d   1      46.589 -19.847  42.543  0.00  0.00     0.024 A 
ENDROOT
BRANCH   3  10
ATOM     10  S   UNL d   1      45.908 -17.820  40.290  0.00  0.00    -0.041 SA
BRANCH  10  11
ATOM     11  C   UNL d   1      46.147 -17.474  39.593  0.00  0.00     0.101 C 
BRANCH  11  12
ATOM     12  C   UNL d   1      45.598 -17.138  39.091  0.00  0.00     0.286 C 
ATOM     13  N   UNL d   1      45.829 -16.616  38.493  0.00  0.00    -0.206 NA
ATOM     14  O   UNL d   1      44.796 -17.315  39.174  0.00  0.00    -0.265 OA
BRANCH  13  15
ATOM     15  C   UNL d   1      45.273 -16.276  37.985  0.00  0.00     0.107 A 
ATOM     16  C   UNL d   1      45.508 -15.745  37.404  0.00  0.00     0.112 A 
ATOM     17  C   UNL d   1      44.942 -15.408  36.898  0.00  0.00     0.026 A 
ATOM     18  C   UNL d   1      44.155 -15.611  36.985  0.00  0.00     0.002 A 
ATOM     19  C   UNL d   1      43.907 -16.139  37.560  0.00  0.00     0.002 A 
ATOM     20  C   UNL d   1      44.473 -16.476  38.066  0.00  0.00     0.021 A 
BRANCH  16  21
ATOM     21  O   UNL d   1      46.314 -15.548  37.327  0.00  0.00    -0.327 OA
ATOM     22  C   UNL d   1      46.532 -14.799  37.042  0.00  0.00     0.181 C 
ENDBRANCH  16  21
ENDBRANCH  13  15
ENDBRANCH  11  12
ENDBRANCH  10  11
ENDBRANCH   3  10
BRANCH   7  23
ATOM     23  C   UNL d   1      46.305 -18.719  43.393  0.00  0.00     0.039 A 
ATOM     24  C   UNL d   1      46.131 -17.935  43.487  0.00  0.00     0.101 A 
ATOM     25  N   UNL d   1      46.071 -17.611  44.230  0.00  0.00    -0.242 NA
ATOM     26  C   UNL d   1      46.188 -18.080  44.901  0.00  0.00     0.099 A 
ATOM     27  C   UNL d   1      46.365 -18.879  44.806  0.00  0.00     0.021 A 
ATOM     28  C   UNL d   1      46.425 -19.206  44.049  0.00  0.00     0.005 A 
ENDBRANCH   7  23
TORSDOF 6
ENDMDL
