MODEL 1
REMARK VINA RESULT:      -8.3      0.000      0.000
REMARK  5 active torsions:
REMARK  status: ('A' for Active; 'I' for Inactive)
REMARK       I    between atoms: C_2  and  N_1 
REMARK    1  A    between atoms: C_3  and  N_1 
REMARK    2  A    between atoms: C_7  and  C_2 
REMARK    3  A    between atoms: N_5  and  C_3 
REMARK    4  A    between atoms: C_8  and  N_5 
REMARK    5  A    between atoms: C_9  and  C_8 
ROOT
ATOM      1  C   UNL d   1      53.239  32.877  53.937  0.00  0.00     0.179 C 
ATOM      2  S   UNL d   1      53.815  33.189  54.452  0.00  0.00    -0.040 SA
ENDROOT
BRANCH   1   3
ATOM      3  N   UNL d   1      53.051  32.081  53.965  0.00  0.00    -0.299 N 
ATOM      4  C   UNL d   1      53.574  31.515  53.645  0.00  0.00     0.259 C 
ATOM      5  O   UNL d   1      54.283  31.767  53.301  0.00  0.00    -0.267 OA
ATOM      6  H   UNL d   1      52.343  31.841  54.310  0.00  0.00     0.171 HD
BRANCH   4   7
ATOM      7  C   UNL d   1      53.379  30.714  53.676  0.00  0.00     0.056 A 
ATOM      8  C   UNL d   1      53.614  30.264  54.320  0.00  0.00     0.005 A 
ATOM      9  C   UNL d   1      53.415  29.457  54.345  0.00  0.00     0.000 A 
ATOM     10  C   UNL d   1      52.984  29.112  53.727  0.00  0.00     0.000 A 
ATOM     11  C   UNL d   1      52.750  29.575  53.079  0.00  0.00     0.000 A 
ATOM     12  C   UNL d   1      52.950  30.387  53.053  0.00  0.00     0.005 A 
ENDBRANCH   4   7
ENDBRANCH   1   3
BRANCH   1  13
ATOM     13  N   UNL d   1      52.858  33.378  53.398  0.00  0.00    -0.330 N 
ATOM     14  H   UNL d   1      53.110  33.389  52.614  0.00  0.00     0.168 HD
BRANCH  13  15
ATOM     15  C   UNL d   1      52.243  33.852  53.641  0.00  0.00     0.074 C 
BRANCH  15  16
ATOM     16  C   UNL d   1      51.618  34.033  53.106  0.00  0.00     0.017 A 
ATOM     17  C   UNL d   1      50.840  34.008  53.366  0.00  0.00     0.002 A 
ATOM     18  C   UNL d   1      50.234  34.182  52.853  0.00  0.00     0.000 A 
ATOM     19  C   UNL d   1      50.396  34.383  52.073  0.00  0.00     0.000 A 
ATOM     20  C   UNL d   1      51.189  34.408  51.807  0.00  0.00     0.000 A 
ATOM     21  C   UNL d   1      51.793  34.232  52.332  0.00  0.00     0.002 A 
ENDBRANCH  15  16
ENDBRANCH  13  15
ENDBRANCH   1  13
TORSDOF 5
ENDMDL
MODEL 2
REMARK VINA RESULT:      -8.2      0.763      4.297
REMARK  5 active torsions:
REMARK  status: ('A' for Active; 'I' for Inactive)
REMARK       I    between atoms: C_2  and  N_1 
REMARK    1  A    between atoms: C_3  and  N_1 
REMARK    2  A    between atoms: C_7  and  C_2 
REMARK    3  A    between atoms: N_5  and  C_3 
REMARK    4  A    between atoms: C_8  and  N_5 
REMARK    5  A    between atoms: C_9  and  C_8 
ROOT
ATOM      1  C   UNL d   1      53.366  32.537  53.559  0.00  0.00     0.179 C 
ATOM      2  S   UNL d   1      54.065  32.980  53.657  0.00  0.00    -0.040 SA
ENDROOT
BRANCH   1   3
ATOM      3  N   UNL d   1      52.734  32.853  53.144  0.00  0.00    -0.299 N 
ATOM      4  C   UNL d   1      52.284  33.472  53.473  0.00  0.00     0.259 C 
ATOM      5  O   UNL d   1      52.481  33.765  54.222  0.00  0.00    -0.267 OA
ATOM      6  H   UNL d   1      52.547  32.555  52.400  0.00  0.00     0.171 HD
BRANCH   4   7
ATOM      7  C   UNL d   1      51.649  33.786  53.050  0.00  0.00     0.056 A 
ATOM      8  C   UNL d   1      51.778  34.122  52.313  0.00  0.00     0.005 A 
ATOM      9  C   UNL d   1      51.134  34.437  51.892  0.00  0.00     0.000 A 
ATOM     10  C   UNL d   1      50.371  34.411  52.213  0.00  0.00     0.000 A 
ATOM     11  C   UNL d   1      50.248  34.070  52.959  0.00  0.00     0.000 A 
ATOM     12  C   UNL d   1      50.896  33.753  53.384  0.00  0.00     0.005 A 
ENDBRANCH   4   7
ENDBRANCH   1   3
BRANCH   1  13
ATOM     13  N   UNL d   1      53.314  31.777  53.884  0.00  0.00    -0.330 N 
ATOM     14  H   UNL d   1      52.920  31.673  54.599  0.00  0.00     0.168 HD
BRANCH  13  15
ATOM     15  C   UNL d   1      53.650  31.143  53.501  0.00  0.00     0.074 C 
BRANCH  15  16
ATOM     16  C   UNL d   1      53.397  30.360  53.686  0.00  0.00     0.017 A 
ATOM     17  C   UNL d   1      53.668  29.995  54.368  0.00  0.00     0.002 A 
ATOM     18  C   UNL d   1      53.426  29.241  54.550  0.00  0.00     0.000 A 
ATOM     19  C   UNL d   1      52.908  28.840  54.052  0.00  0.00     0.000 A 
ATOM     20  C   UNL d   1      52.631  29.213  53.356  0.00  0.00     0.000 A 
ATOM     21  C   UNL d   1      52.881  29.973  53.181  0.00  0.00     0.002 A 
ENDBRANCH  15  16
ENDBRANCH  13  15
ENDBRANCH   1  13
TORSDOF 5
ENDMDL
MODEL 3
REMARK VINA RESULT:      -8.0      1.921      4.316
REMARK  5 active torsions:
REMARK  status: ('A' for Active; 'I' for Inactive)
REMARK       I    between atoms: C_2  and  N_1 
REMARK    1  A    between atoms: C_3  and  N_1 
REMARK    2  A    between atoms: C_7  and  C_2 
REMARK    3  A    between atoms: N_5  and  C_3 
REMARK    4  A    between atoms: C_8  and  N_5 
REMARK    5  A    between atoms: C_9  and  C_8 
ROOT
ATOM      1  C   UNL d   1      52.418  32.657  53.155  0.00  0.00     0.179 C 
ATOM      2  S   UNL d   1      52.430  31.893  52.822  0.00  0.00    -0.040 SA
ENDROOT
BRANCH   1   3
ATOM      3  N   UNL d   1      51.719  33.083  53.179  0.00  0.00    -0.299 N 
ATOM      4  C   UNL d   1      51.526  33.606  52.558  0.00  0.00     0.259 C 
ATOM      5  O   UNL d   1      52.046  33.689  51.920  0.00  0.00    -0.267 OA
ATOM      6  H   UNL d   1      51.209  32.993  53.818  0.00  0.00     0.171 HD
BRANCH   4   7
ATOM      7  C   UNL d   1      50.821  34.033  52.588  0.00  0.00     0.056 A 
ATOM      8  C   UNL d   1      50.622  34.443  53.270  0.00  0.00     0.005 A 
ATOM      9  C   UNL d   1      49.910  34.871  53.294  0.00  0.00     0.000 A 
ATOM     10  C   UNL d   1      49.407  34.884  52.636  0.00  0.00     0.000 A 
ATOM     11  C   UNL d   1      49.615  34.467  51.949  0.00  0.00     0.000 A 
ATOM     12  C   UNL d   1      50.331  34.035  51.925  0.00  0.00     0.005 A 
ENDBRANCH   4   7
ENDBRANCH   1   3
BRANCH   1  13
ATOM     13  N   UNL d   1      53.116  32.981  53.460  0.00  0.00    -0.330 N 
ATOM     14  H   UNL d   1      53.353  33.729  53.212  0.00  0.00     0.168 HD
BRANCH  13  15
ATOM     15  C   UNL d   1      53.562  32.564  53.998  0.00  0.00     0.074 C 
BRANCH  15  16
ATOM     16  C   UNL d   1      54.158  32.960  54.443  0.00  0.00     0.017 A 
ATOM     17  C   UNL d   1      54.066  33.054  55.253  0.00  0.00     0.002 A 
ATOM     18  C   UNL d   1      54.639  33.436  55.686  0.00  0.00     0.000 A 
ATOM     19  C   UNL d   1      55.312  33.728  55.316  0.00  0.00     0.000 A 
ATOM     20  C   UNL d   1      55.407  33.631  54.490  0.00  0.00     0.000 A 
ATOM     21  C   UNL d   1      54.824  33.246  54.062  0.00  0.00     0.002 A 
ENDBRANCH  15  16
ENDBRANCH  13  15
ENDBRANCH   1  13
TORSDOF 5
ENDMDL
MODEL 4
REMARK VINA RESULT:      -7.8      1.798      2.609
REMARK  5 active torsions:
REMARK  status: ('A' for Active; 'I' for Inactive)
REMARK       I    between atoms: C_2  and  N_1 
REMARK    1  A    between atoms: C_3  and  N_1 
REMARK    2  A    between atoms: C_7  and  C_2 
REMARK    3  A    between atoms: N_5  and  C_3 
REMARK    4  A    between atoms: C_8  and  N_5 
REMARK    5  A    between atoms: C_9  and  C_8 
ROOT
ATOM      1  C   UNL d   1      52.476  32.679  53.116  0.00  0.00     0.179 C 
ATOM      2  S   UNL d   1      52.599  31.926  52.779  0.00  0.00    -0.040 SA
ENDROOT
BRANCH   1   3
ATOM      3  N   UNL d   1      53.083  33.053  53.519  0.00  0.00    -0.299 N 
ATOM      4  C   UNL d   1      53.579  32.617  54.029  0.00  0.00     0.259 C 
ATOM      5  O   UNL d   1      53.451  31.805  54.124  0.00  0.00    -0.267 OA
ATOM      6  H   UNL d   1      53.202  33.861  53.418  0.00  0.00     0.171 HD
BRANCH   4   7
ATOM      7  C   UNL d   1      54.189  32.999  54.432  0.00  0.00     0.056 A 
ATOM      8  C   UNL d   1      54.854  33.247  54.022  0.00  0.00     0.005 A 
ATOM      9  C   UNL d   1      55.465  33.631  54.433  0.00  0.00     0.000 A 
ATOM     10  C   UNL d   1      55.403  33.763  55.249  0.00  0.00     0.000 A 
ATOM     11  C   UNL d   1      54.727  33.509  55.657  0.00  0.00     0.000 A 
ATOM     12  C   UNL d   1      54.111  33.122  55.243  0.00  0.00     0.005 A 
ENDBRANCH   4   7
ENDBRANCH   1   3
BRANCH   1  13
ATOM     13  N   UNL d   1      51.737  33.044  53.041  0.00  0.00    -0.330 N 
ATOM     14  H   UNL d   1      51.107  32.774  53.497  0.00  0.00     0.168 HD
BRANCH  13  15
ATOM     15  C   UNL d   1      51.636  33.663  52.521  0.00  0.00     0.074 C 
BRANCH  15  16
ATOM     16  C   UNL d   1      50.885  34.041  52.463  0.00  0.00     0.017 A 
ATOM     17  C   UNL d   1      50.551  34.388  53.127  0.00  0.00     0.002 A 
ATOM     18  C   UNL d   1      49.827  34.753  53.075  0.00  0.00     0.000 A 
ATOM     19  C   UNL d   1      49.425  34.778  52.358  0.00  0.00     0.000 A 
ATOM     20  C   UNL d   1      49.766  34.424  51.680  0.00  0.00     0.000 A 
ATOM     21  C   UNL d   1      50.496  34.058  51.743  0.00  0.00     0.002 A 
ENDBRANCH  15  16
ENDBRANCH  13  15
ENDBRANCH   1  13
TORSDOF 5
ENDMDL
