MODEL 1
REMARK VINA RESULT:      60.6      0.000      0.000
REMARK  4 active torsions:
REMARK  status: ('A' for Active; 'I' for Inactive)
REMARK    1  A    between atoms: N_2  and  S_1 
REMARK    2  A    between atoms: C_3  and  S_1 
REMARK    3  A    between atoms: C_18  and  N_6 
REMARK    4  A    between atoms: C_19  and  C_18 
ROOT
ATOM      1  N   UNL d   1     -50.102  26.342  33.637  0.00  0.00    -0.226 N 
ATOM      2  N   UNL d   1     -49.042  27.615  33.768  0.00  0.00    -0.300 N 
ATOM      3  C   UNL d   1     -50.394  27.123  33.719  0.00  0.00     0.111 A 
ATOM      4  C   UNL d   1     -49.299  26.221  33.622  0.00  0.00     0.111 A 
ATOM      5  C   UNL d   1     -48.767  26.860  33.688  0.00  0.00     0.100 A 
ATOM      6  C   UNL d   1     -49.862  27.762  33.785  0.00  0.00     0.100 A 
ENDROOT
BRANCH   1   7
ATOM      7  S   UNL d   1     -50.628  25.710  33.571  0.00  0.00     0.272 S 
ATOM      8  O   UNL d   1     -51.259  26.243  33.498  0.00  0.00    -0.200 OA
ATOM      9  O   UNL d   1     -49.994  25.174  33.646  0.00  0.00    -0.200 OA
BRANCH   7  10
ATOM     10  C   UNL d   1     -51.157  25.075  33.506  0.00  0.00     0.106 A 
ATOM     11  C   UNL d   1     -51.958  25.197  33.533  0.00  0.00     0.040 A 
ATOM     12  C   UNL d   1     -52.473  24.578  33.469  0.00  0.00     0.123 A 
ATOM     13  O   UNL d   1     -53.297  24.725  33.499  0.00  0.00    -0.301 OA
ATOM     14  C   UNL d   1     -52.199  23.823  33.377  0.00  0.00     0.123 A 
ATOM     15  C   UNL d   1     -53.826  24.090  33.434  0.00  0.00     0.149 A 
ATOM     16  C   UNL d   1     -53.528  23.311  33.338  0.00  0.00     0.149 A 
ATOM     17  O   UNL d   1     -52.728  23.188  33.311  0.00  0.00    -0.301 OA
ATOM     18  C   UNL d   1     -51.407  23.671  33.347  0.00  0.00     0.028 A 
ATOM     19  C   UNL d   1     -50.863  24.298  33.411  0.00  0.00     0.015 A 
ENDBRANCH   7  10
ENDBRANCH   1   7
BRANCH   2  20
ATOM     20  C   UNL d   1     -48.510  28.253  33.834  0.00  0.00     0.080 C 
BRANCH  20  21
ATOM     21  C   UNL d   1     -48.387  28.614  34.546  0.00  0.00     0.018 A 
ATOM     22  C   UNL d   1     -47.983  29.347  34.582  0.00  0.00     0.002 A 
ATOM     23  C   UNL d   1     -47.861  29.708  35.294  0.00  0.00     0.000 A 
ATOM     24  C   UNL d   1     -48.130  29.360  35.992  0.00  0.00     0.000 A 
ATOM     25  C   UNL d   1     -48.524  28.650  35.981  0.00  0.00     0.000 A 
ATOM     26  C   UNL d   1     -48.657  28.267  35.244  0.00  0.00     0.002 A 
ENDBRANCH  20  21
ENDBRANCH   2  20
TORSDOF 4
ENDMDL
