MODEL 1
REMARK VINA RESULT:       2.6      0.000      0.000
REMARK  4 active torsions:
REMARK  status: ('A' for Active; 'I' for Inactive)
REMARK    1  A    between atoms: C_7  and  C_1 
REMARK    2  A    between atoms: C_6  and  N_2 
REMARK    3  A    between atoms: C_8  and  C_6 
REMARK    4  A    between atoms: C_9  and  C_7 
ROOT
ATOM      1  C   UNL d   1     -41.392-121.868 -52.835  0.00  0.00     0.148 A 
ATOM      2  N   UNL d   1     -41.352-122.046 -52.065  0.00  0.00    -0.289 N 
ATOM      3  N   UNL d   1     -41.345-121.092 -52.974  0.00  0.00    -0.227 NA
ATOM      4  C   UNL d   1     -41.269-121.301 -51.641  0.00  0.00     0.083 A 
ATOM      5  C   UNL d   1     -41.265-120.723 -52.192  0.00  0.00     0.099 A 
ATOM      6  C   UNL d   1     -41.200-121.091 -50.859  0.00  0.00     0.019 A 
ATOM      7  C   UNL d   1     -41.191-119.897 -51.998  0.00  0.00     0.021 A 
ATOM      8  C   UNL d   1     -41.127-120.320 -50.611  0.00  0.00     0.002 A 
ATOM      9  C   UNL d   1     -41.123-119.742 -51.162  0.00  0.00     0.002 A 
ENDROOT
BRANCH   2  10
ATOM     10  C   UNL d   1     -41.394-122.812 -51.864  0.00  0.00     0.082 C 
BRANCH  10  11
ATOM     11  C   UNL d   1     -41.670-123.053 -51.149  0.00  0.00     0.018 A 
ATOM     12  C   UNL d   1     -41.127-123.306 -50.581  0.00  0.00     0.002 A 
ATOM     13  C   UNL d   1     -41.374-123.565 -49.823  0.00  0.00     0.000 A 
ATOM     14  C   UNL d   1     -42.199-123.557 -49.669  0.00  0.00     0.000 A 
ATOM     15  C   UNL d   1     -42.741-123.304 -50.237  0.00  0.00     0.000 A 
ATOM     16  C   UNL d   1     -42.449-123.817 -48.908  0.00  0.00     0.000 C 
ATOM     17  C   UNL d   1     -42.458-123.061 -50.958  0.00  0.00     0.002 A 
ENDBRANCH  10  11
ENDBRANCH   2  10
BRANCH   1  18
ATOM     18  C   UNL d   1     -41.463-122.641 -53.047  0.00  0.00     0.037 C 
BRANCH  18  19
ATOM     19  C   UNL d   1     -41.601-122.829 -53.839  0.00  0.00     0.003 A 
ATOM     20  C   UNL d   1     -41.169-123.433 -54.202  0.00  0.00     0.000 A 
ATOM     21  C   UNL d   1     -41.307-123.621 -54.994  0.00  0.00     0.000 A 
ATOM     22  C   UNL d   1     -41.876-123.206 -55.423  0.00  0.00     0.000 A 
ATOM     23  C   UNL d   1     -42.324-122.590 -55.074  0.00  0.00     0.000 A 
ATOM     24  C   UNL d   1     -42.170-122.413 -54.268  0.00  0.00     0.000 A 
ENDBRANCH  18  19
ENDBRANCH   1  18
TORSDOF 4
ENDMDL
