MODEL 1
REMARK VINA RESULT:      -5.1      0.000      0.000
REMARK  7 active torsions:
REMARK  status: ('A' for Active; 'I' for Inactive)
REMARK    1  A    between atoms: C_3  and  C_1 
REMARK    2  A    between atoms: N_2  and  C_9 
REMARK    3  A    between atoms: C_14  and  N_2 
REMARK    4  A    between atoms: O_6  and  C_8 
REMARK    5  A    between atoms: C_10  and  O_6 
REMARK    6  A    between atoms: C_7  and  C_10 
REMARK    7  A    between atoms: C_9  and  C_7 
ROOT
ATOM      1  C   UNL d   1      56.359   0.085  32.603  0.00  0.00     0.000 A 
ATOM      2  C   UNL d   1      56.499  -0.706  32.413  0.00  0.00     0.002 A 
ATOM      3  C   UNL d   1      56.589   0.682  32.075  0.00  0.00     0.002 A 
ATOM      4  C   UNL d   1      57.092  -0.310  31.179  0.00  0.00     0.100 A 
ATOM      5  C   UNL d   1      56.955   0.488  31.364  0.00  0.00     0.025 A 
ATOM      6  C   UNL d   1      56.863  -0.903  31.705  0.00  0.00     0.025 A 
ENDROOT
BRANCH   4   7
ATOM      7  O   UNL d   1      57.457  -0.504  30.468  0.00  0.00    -0.302 OA
BRANCH   7   8
ATOM      8  C   UNL d   1      58.209  -0.212  30.287  0.00  0.00     0.166 C 
BRANCH   8   9
ATOM      9  C   UNL d   1      58.571  -0.400  29.572  0.00  0.00     0.239 C 
ATOM     10  O   UNL d   1      58.161  -0.283  28.866  0.00  0.00    -0.283 OA
BRANCH   9  11
ATOM     11  C   UNL d   1      59.338  -0.703  29.562  0.00  0.00     0.143 C 
BRANCH  11  12
ATOM     12  N   UNL d   1      59.566  -1.223  28.959  0.00  0.00    -0.241 NA
BRANCH  12  13
ATOM     13  C   UNL d   1      60.306  -1.590  29.008  0.00  0.00     0.082 C 
ATOM     14  C   UNL d   1      60.989  -1.133  28.944  0.00  0.00     0.021 C 
ATOM     15  C   UNL d   1      60.364  -2.405  29.120  0.00  0.00     0.021 C 
ENDBRANCH  12  13
ENDBRANCH  11  12
ENDBRANCH   9  11
ENDBRANCH   8   9
ENDBRANCH   7   8
ENDBRANCH   4   7
BRANCH   1  16
ATOM     16  C   UNL d   1      55.997   0.281  33.307  0.00  0.00     0.000 A 
ATOM     17  C   UNL d   1      56.458   0.463  33.974  0.00  0.00     0.000 A 
ATOM     18  C   UNL d   1      56.088   0.662  34.687  0.00  0.00     0.000 A 
ATOM     19  C   UNL d   1      55.266   0.682  34.741  0.00  0.00     0.000 A 
ATOM     20  C   UNL d   1      54.804   0.503  34.082  0.00  0.00     0.000 A 
ATOM     21  C   UNL d   1      55.166   0.301  33.362  0.00  0.00     0.000 A 
ENDBRANCH   1  16
TORSDOF 7
ENDMDL
MODEL 2
REMARK VINA RESULT:      -2.9      8.876     10.283
REMARK  7 active torsions:
REMARK  status: ('A' for Active; 'I' for Inactive)
REMARK    1  A    between atoms: C_3  and  C_1 
REMARK    2  A    between atoms: N_2  and  C_9 
REMARK    3  A    between atoms: C_14  and  N_2 
REMARK    4  A    between atoms: O_6  and  C_8 
REMARK    5  A    between atoms: C_10  and  O_6 
REMARK    6  A    between atoms: C_7  and  C_10 
REMARK    7  A    between atoms: C_9  and  C_7 
ROOT
ATOM      1  C   UNL d   1      58.085  -9.766  31.258  0.00  0.00     0.000 A 
ATOM      2  C   UNL d   1      57.518  -9.781  31.858  0.00  0.00     0.002 A 
ATOM      3  C   UNL d   1      58.891  -9.768  31.454  0.00  0.00     0.002 A 
ATOM      4  C   UNL d   1      58.550  -9.801  32.840  0.00  0.00     0.100 A 
ATOM      5  C   UNL d   1      59.126  -9.785  32.243  0.00  0.00     0.025 A 
ATOM      6  C   UNL d   1      57.749  -9.799  32.644  0.00  0.00     0.025 A 
ENDROOT
BRANCH   4   7
ATOM      7  O   UNL d   1      58.785  -9.818  33.628  0.00  0.00    -0.302 OA
BRANCH   7   8
ATOM      8  C   UNL d   1      59.413  -9.349  33.892  0.00  0.00     0.166 C 
BRANCH   8   9
ATOM      9  C   UNL d   1      59.516  -9.197  34.695  0.00  0.00     0.239 C 
ATOM     10  O   UNL d   1      59.155  -9.690  35.250  0.00  0.00    -0.283 OA
BRANCH   9  11
ATOM     11  C   UNL d   1      59.975  -8.559  34.941  0.00  0.00     0.143 C 
BRANCH  11  12
ATOM     12  N   UNL d   1      59.807  -8.186  35.661  0.00  0.00    -0.241 NA
BRANCH  12  13
ATOM     13  C   UNL d   1      60.254  -7.525  35.882  0.00  0.00     0.082 C 
ATOM     14  C   UNL d   1      61.075  -7.582  35.902  0.00  0.00     0.021 C 
ATOM     15  C   UNL d   1      59.884  -6.815  36.080  0.00  0.00     0.021 C 
ENDBRANCH  12  13
ENDBRANCH  11  12
ENDBRANCH   9  11
ENDBRANCH   8   9
ENDBRANCH   7   8
ENDBRANCH   4   7
BRANCH   1  16
ATOM     16  C   UNL d   1      57.856  -9.749  30.476  0.00  0.00     0.000 A 
ATOM     17  C   UNL d   1      57.052  -9.818  30.277  0.00  0.00     0.000 A 
ATOM     18  C   UNL d   1      56.823  -9.800  29.482  0.00  0.00     0.000 A 
ATOM     19  C   UNL d   1      57.386  -9.715  28.886  0.00  0.00     0.000 A 
ATOM     20  C   UNL d   1      58.184  -9.646  29.078  0.00  0.00     0.000 A 
ATOM     21  C   UNL d   1      58.424  -9.662  29.873  0.00  0.00     0.000 A 
ENDBRANCH   1  16
TORSDOF 7
ENDMDL
MODEL 3
REMARK VINA RESULT:      -2.3      1.404      5.498
REMARK  7 active torsions:
REMARK  status: ('A' for Active; 'I' for Inactive)
REMARK    1  A    between atoms: C_3  and  C_1 
REMARK    2  A    between atoms: N_2  and  C_9 
REMARK    3  A    between atoms: C_14  and  N_2 
REMARK    4  A    between atoms: O_6  and  C_8 
REMARK    5  A    between atoms: C_10  and  O_6 
REMARK    6  A    between atoms: C_7  and  C_10 
REMARK    7  A    between atoms: C_9  and  C_7 
ROOT
ATOM      1  C   UNL d   1      59.317  -1.755  29.392  0.00  0.00     0.000 A 
ATOM      2  C   UNL d   1      58.596  -2.014  29.697  0.00  0.00     0.002 A 
ATOM      3  C   UNL d   1      59.490  -0.943  29.377  0.00  0.00     0.002 A 
ATOM      4  C   UNL d   1      58.221  -0.667  29.970  0.00  0.00     0.100 A 
ATOM      5  C   UNL d   1      58.944  -0.398  29.665  0.00  0.00     0.025 A 
ATOM      6  C   UNL d   1      58.050  -1.474  29.984  0.00  0.00     0.025 A 
ENDROOT
BRANCH   4   7
ATOM      7  O   UNL d   1      57.675  -0.122  30.258  0.00  0.00    -0.302 OA
BRANCH   7   8
ATOM      8  C   UNL d   1      57.659   0.075  31.060  0.00  0.00     0.166 C 
BRANCH   8   9
ATOM      9  C   UNL d   1      56.977   0.381  31.405  0.00  0.00     0.239 C 
ATOM     10  O   UNL d   1      56.379   0.681  30.922  0.00  0.00    -0.283 OA
BRANCH   9  11
ATOM     11  C   UNL d   1      56.892   0.387  32.224  0.00  0.00     0.143 C 
BRANCH  11  12
ATOM     12  N   UNL d   1      56.240   0.013  32.573  0.00  0.00    -0.241 NA
BRANCH  12  13
ATOM     13  C   UNL d   1      56.151   0.050  33.394  0.00  0.00     0.082 C 
ATOM     14  C   UNL d   1      56.783   0.299  33.859  0.00  0.00     0.021 C 
ATOM     15  C   UNL d   1      55.436  -0.159  33.748  0.00  0.00     0.021 C 
ENDBRANCH  12  13
ENDBRANCH  11  12
ENDBRANCH   9  11
ENDBRANCH   8   9
ENDBRANCH   7   8
ENDBRANCH   4   7
BRANCH   1  16
ATOM     16  C   UNL d   1      59.860  -2.291  29.106  0.00  0.00     0.000 A 
ATOM     17  C   UNL d   1      60.584  -2.024  28.798  0.00  0.00     0.000 A 
ATOM     18  C   UNL d   1      61.133  -2.572  28.508  0.00  0.00     0.000 A 
ATOM     19  C   UNL d   1      60.969  -3.379  28.523  0.00  0.00     0.000 A 
ATOM     20  C   UNL d   1      60.252  -3.648  28.828  0.00  0.00     0.000 A 
ATOM     21  C   UNL d   1      59.694  -3.107  29.121  0.00  0.00     0.000 A 
ENDBRANCH   1  16
TORSDOF 7
ENDMDL
