MODEL 1
REMARK VINA RESULT:      38.6      0.000      0.000
REMARK  7 active torsions:
REMARK  status: ('A' for Active; 'I' for Inactive)
REMARK    1  A    between atoms: C_8  and  C_1 
REMARK    2  A    between atoms: N_7  and  C_2 
REMARK    3  A    between atoms: C_5  and  N_7 
REMARK    4  A    between atoms: N_9  and  C_5 
REMARK    5  A    between atoms: O_12  and  C_8 
REMARK    6  A    between atoms: C_13  and  N_9 
REMARK    7  A    between atoms: C_16  and  O_12 
ROOT
ATOM      1  C   UNL d   1      13.730  12.486  -2.569  0.00  0.00     0.162 A 
ATOM      2  C   UNL d   1      14.279  13.020  -2.283  0.00  0.00     0.108 A 
ATOM      3  N   UNL d   1      13.577  11.931  -1.978  0.00  0.00    -0.239 NA
ATOM      4  C   UNL d   1      14.473  12.804  -1.515  0.00  0.00     0.037 A 
ATOM      5  C   UNL d   1      14.041  12.131  -1.321  0.00  0.00     0.083 A 
ATOM      6  C   UNL d   1      14.989  13.134  -0.963  0.00  0.00     0.003 A 
ATOM      7  C   UNL d   1      14.122  11.783  -0.575  0.00  0.00     0.019 A 
ATOM      8  C   UNL d   1      15.077  12.795  -0.217  0.00  0.00     0.000 A 
ATOM      9  C   UNL d   1      14.638  12.114  -0.027  0.00  0.00     0.002 A 
ENDROOT
BRANCH   2  10
ATOM     10  N   UNL d   1      14.593  13.675  -2.698  0.00  0.00    -0.216 NA
BRANCH  10  11
ATOM     11  C   UNL d   1      14.364  14.441  -2.482  0.00  0.00     0.221 C 
ATOM     12  S   UNL d   1      13.588  14.702  -2.605  0.00  0.00    -0.037 SA
BRANCH  11  13
ATOM     13  N   UNL d   1      14.924  14.946  -2.139  0.00  0.00    -0.217 NA
BRANCH  13  14
ATOM     14  C   UNL d   1      14.949  15.739  -2.369  0.00  0.00     0.084 A 
ATOM     15  C   UNL d   1      15.084  15.933  -3.158  0.00  0.00     0.019 A 
ATOM     16  C   UNL d   1      15.111  16.729  -3.398  0.00  0.00     0.002 A 
ATOM     17  C   UNL d   1      15.001  17.325  -2.833  0.00  0.00     0.000 A 
ATOM     18  C   UNL d   1      14.865  17.136  -2.039  0.00  0.00     0.002 A 
ATOM     19  C   UNL d   1      14.840  16.345  -1.815  0.00  0.00     0.019 A 
ENDBRANCH  13  14
ENDBRANCH  11  13
ENDBRANCH  10  11
ENDBRANCH   2  10
BRANCH   1  20
ATOM     20  C   UNL d   1      13.385  12.498  -3.320  0.00  0.00     0.320 C 
ATOM     21  O   UNL d   1      12.913  13.140  -3.544  0.00  0.00    -0.257 OA
BRANCH  20  22
ATOM     22  O   UNL d   1      13.503  11.881  -3.850  0.00  0.00    -0.270 OA
BRANCH  22  23
ATOM     23  C   UNL d   1      13.091  11.877  -4.568  0.00  0.00     0.126 C 
ATOM     24  C   UNL d   1      13.501  11.781  -5.271  0.00  0.00     0.029 C 
ENDBRANCH  22  23
ENDBRANCH  20  22
ENDBRANCH   1  20
TORSDOF 7
ENDMDL
MODEL 2
REMARK VINA RESULT:      38.7      1.044      2.666
REMARK  7 active torsions:
REMARK  status: ('A' for Active; 'I' for Inactive)
REMARK    1  A    between atoms: C_8  and  C_1 
REMARK    2  A    between atoms: N_7  and  C_2 
REMARK    3  A    between atoms: C_5  and  N_7 
REMARK    4  A    between atoms: N_9  and  C_5 
REMARK    5  A    between atoms: O_12  and  C_8 
REMARK    6  A    between atoms: C_13  and  N_9 
REMARK    7  A    between atoms: C_16  and  O_12 
ROOT
ATOM      1  C   UNL d   1      13.960  12.384  -2.349  0.00  0.00     0.162 A 
ATOM      2  C   UNL d   1      13.936  13.076  -2.784  0.00  0.00     0.108 A 
ATOM      3  N   UNL d   1      13.630  11.779  -2.804  0.00  0.00    -0.239 NA
ATOM      4  C   UNL d   1      13.593  12.911  -3.511  0.00  0.00     0.037 A 
ATOM      5  C   UNL d   1      13.402  12.110  -3.529  0.00  0.00     0.083 A 
ATOM      6  C   UNL d   1      13.428  13.387  -4.164  0.00  0.00     0.003 A 
ATOM      7  C   UNL d   1      13.045  11.780  -4.199  0.00  0.00     0.019 A 
ATOM      8  C   UNL d   1      13.072  13.067  -4.835  0.00  0.00     0.000 A 
ATOM      9  C   UNL d   1      12.882  12.257  -4.847  0.00  0.00     0.002 A 
ENDROOT
BRANCH   2  10
ATOM     10  N   UNL d   1      14.212  13.825  -2.536  0.00  0.00    -0.216 NA
BRANCH  10  11
ATOM     11  C   UNL d   1      14.041  14.494  -2.992  0.00  0.00     0.221 C 
ATOM     12  S   UNL d   1      13.280  14.615  -3.297  0.00  0.00    -0.037 SA
BRANCH  11  13
ATOM     13  N   UNL d   1      14.642  15.044  -3.142  0.00  0.00    -0.217 NA
BRANCH  13  14
ATOM     14  C   UNL d   1      14.797  15.636  -2.589  0.00  0.00     0.084 A 
ATOM     15  C   UNL d   1      14.840  16.422  -2.830  0.00  0.00     0.019 A 
ATOM     16  C   UNL d   1      14.995  17.025  -2.279  0.00  0.00     0.002 A 
ATOM     17  C   UNL d   1      15.105  16.826  -1.482  0.00  0.00     0.000 A 
ATOM     18  C   UNL d   1      15.063  16.038  -1.233  0.00  0.00     0.002 A 
ATOM     19  C   UNL d   1      14.909  15.451  -1.789  0.00  0.00     0.019 A 
ENDBRANCH  13  14
ENDBRANCH  11  13
ENDBRANCH  10  11
ENDBRANCH   2  10
BRANCH   1  20
ATOM     20  C   UNL d   1      14.262  12.301  -1.583  0.00  0.00     0.320 C 
ATOM     21  O   UNL d   1      15.081  12.254  -1.470  0.00  0.00    -0.257 OA
BRANCH  20  22
ATOM     22  O   UNL d   1      13.763  12.263  -0.933  0.00  0.00    -0.270 OA
BRANCH  22  23
ATOM     23  C   UNL d   1      14.052  11.968  -0.215  0.00  0.00     0.126 C 
ATOM     24  C   UNL d   1      14.838  12.083  -0.014  0.00  0.00     0.029 C 
ENDBRANCH  22  23
ENDBRANCH  20  22
ENDBRANCH   1  20
TORSDOF 7
ENDMDL
