MODEL 1
REMARK VINA RESULT:      -7.9      0.000      0.000
REMARK  7 active torsions:
REMARK  status: ('A' for Active; 'I' for Inactive)
REMARK    1  A    between atoms: C_6  and  N_2 
REMARK    2  A    between atoms: C_7  and  C_3 
REMARK    3  A    between atoms: C_8  and  C_6 
REMARK    4  A    between atoms: O_13  and  C_7 
REMARK    5  A    between atoms: C_14  and  C_8 
REMARK    6  A    between atoms: C_9  and  O_12 
REMARK    7  A    between atoms: O_12  and  C_14 
ROOT
ATOM      1  N   UNL d   1      53.693  31.999  54.012  0.00  0.00    -0.225 NA
ATOM      2  N   UNL d   1      52.909  32.987  53.491  0.00  0.00    -0.287 N 
ATOM      3  C   UNL d   1      53.081  32.161  53.456  0.00  0.00     0.172 A 
ATOM      4  C   UNL d   1      53.405  33.338  54.060  0.00  0.00     0.083 A 
ATOM      5  C   UNL d   1      53.890  32.727  54.382  0.00  0.00     0.099 A 
ATOM      6  C   UNL d   1      53.490  34.114  54.333  0.00  0.00     0.019 A 
ATOM      7  C   UNL d   1      54.448  32.908  54.969  0.00  0.00     0.021 A 
ATOM      8  C   UNL d   1      54.053  34.290  54.924  0.00  0.00     0.002 A 
ATOM      9  C   UNL d   1      54.531  33.688  55.241  0.00  0.00     0.002 A 
ENDROOT
BRANCH   2  10
ATOM     10  C   UNL d   1      52.312  33.226  52.970  0.00  0.00     0.084 C 
BRANCH  10  11
ATOM     11  C   UNL d   1      51.670  33.655  53.259  0.00  0.00     0.046 C 
BRANCH  11  12
ATOM     12  C   UNL d   1      51.096  33.922  52.745  0.00  0.00     0.124 C 
BRANCH  12  13
ATOM     13  O   UNL d   1      50.424  34.288  53.042  0.00  0.00    -0.305 OA
BRANCH  13  14
ATOM     14  C   UNL d   1      49.826  34.525  52.530  0.00  0.00     0.100 A 
ATOM     15  C   UNL d   1      49.826  34.262  51.760  0.00  0.00     0.025 A 
ATOM     16  C   UNL d   1      49.238  34.494  51.253  0.00  0.00     0.002 A 
ATOM     17  C   UNL d   1      48.634  35.001  51.517  0.00  0.00     0.000 A 
ATOM     18  C   UNL d   1      48.644  35.260  52.297  0.00  0.00     0.002 A 
ATOM     19  C   UNL d   1      49.242  35.019  52.799  0.00  0.00     0.025 A 
ENDBRANCH  13  14
ENDBRANCH  12  13
ENDBRANCH  11  12
ENDBRANCH  10  11
ENDBRANCH   2  10
BRANCH   3  20
ATOM     20  C   UNL d   1      52.813  31.603  53.060  0.00  0.00     0.154 C 
BRANCH  20  21
ATOM     21  O   UNL d   1      53.040  30.819  53.127  0.00  0.00    -0.323 OA
ATOM     22  C   UNL d   1      52.755  30.116  52.799  0.00  0.00     0.182 C 
ENDBRANCH  20  21
ENDBRANCH   3  20
TORSDOF 7
ENDMDL
MODEL 2
REMARK VINA RESULT:      -7.7      0.928      2.269
REMARK  7 active torsions:
REMARK  status: ('A' for Active; 'I' for Inactive)
REMARK    1  A    between atoms: C_6  and  N_2 
REMARK    2  A    between atoms: C_7  and  C_3 
REMARK    3  A    between atoms: C_8  and  C_6 
REMARK    4  A    between atoms: O_13  and  C_7 
REMARK    5  A    between atoms: C_14  and  C_8 
REMARK    6  A    between atoms: C_9  and  O_12 
REMARK    7  A    between atoms: O_12  and  C_14 
ROOT
ATOM      1  N   UNL d   1      54.083  31.828  54.198  0.00  0.00    -0.225 NA
ATOM      2  N   UNL d   1      53.144  32.438  53.417  0.00  0.00    -0.287 N 
ATOM      3  C   UNL d   1      53.764  32.576  53.973  0.00  0.00     0.172 A 
ATOM      4  C   UNL d   1      53.074  31.617  53.295  0.00  0.00     0.083 A 
ATOM      5  C   UNL d   1      53.654  31.240  53.778  0.00  0.00     0.099 A 
ATOM      6  C   UNL d   1      52.574  31.158  52.822  0.00  0.00     0.019 A 
ATOM      7  C   UNL d   1      53.721  30.413  53.776  0.00  0.00     0.021 A 
ATOM      8  C   UNL d   1      52.646  30.326  52.824  0.00  0.00     0.002 A 
ATOM      9  C   UNL d   1      53.218  29.955  53.300  0.00  0.00     0.002 A 
ENDROOT
BRANCH   2  10
ATOM     10  C   UNL d   1      52.779  33.129  53.146  0.00  0.00     0.084 C 
BRANCH  10  11
ATOM     11  C   UNL d   1      51.998  33.286  53.363  0.00  0.00     0.046 C 
BRANCH  11  12
ATOM     12  C   UNL d   1      51.540  33.777  52.901  0.00  0.00     0.124 C 
BRANCH  12  13
ATOM     13  O   UNL d   1      50.861  34.114  53.217  0.00  0.00    -0.305 OA
BRANCH  13  14
ATOM     14  C   UNL d   1      50.252  34.354  52.718  0.00  0.00     0.100 A 
ATOM     15  C   UNL d   1      50.249  34.112  51.941  0.00  0.00     0.025 A 
ATOM     16  C   UNL d   1      49.650  34.347  51.448  0.00  0.00     0.002 A 
ATOM     17  C   UNL d   1      49.040  34.835  51.733  0.00  0.00     0.000 A 
ATOM     18  C   UNL d   1      49.055  35.073  52.519  0.00  0.00     0.002 A 
ATOM     19  C   UNL d   1      49.663  34.830  53.008  0.00  0.00     0.025 A 
ENDBRANCH  13  14
ENDBRANCH  12  13
ENDBRANCH  11  12
ENDBRANCH  10  11
ENDBRANCH   2  10
BRANCH   3  20
ATOM     20  C   UNL d   1      54.053  33.182  54.271  0.00  0.00     0.154 C 
BRANCH  20  21
ATOM     21  O   UNL d   1      54.696  33.203  54.779  0.00  0.00    -0.323 OA
ATOM     22  C   UNL d   1      55.104  33.818  55.152  0.00  0.00     0.182 C 
ENDBRANCH  20  21
ENDBRANCH   3  20
TORSDOF 7
ENDMDL
MODEL 3
REMARK VINA RESULT:      -7.3      1.098      4.297
REMARK  7 active torsions:
REMARK  status: ('A' for Active; 'I' for Inactive)
REMARK    1  A    between atoms: C_6  and  N_2 
REMARK    2  A    between atoms: C_7  and  C_3 
REMARK    3  A    between atoms: C_8  and  C_6 
REMARK    4  A    between atoms: O_13  and  C_7 
REMARK    5  A    between atoms: C_14  and  C_8 
REMARK    6  A    between atoms: C_9  and  O_12 
REMARK    7  A    between atoms: O_12  and  C_14 
ROOT
ATOM      1  N   UNL d   1      51.857  34.990  53.194  0.00  0.00    -0.225 NA
ATOM      2  N   UNL d   1      52.099  33.663  53.404  0.00  0.00    -0.287 N 
ATOM      3  C   UNL d   1      51.622  34.210  52.974  0.00  0.00     0.172 A 
ATOM      4  C   UNL d   1      52.626  34.090  53.887  0.00  0.00     0.083 A 
ATOM      5  C   UNL d   1      52.477  34.910  53.757  0.00  0.00     0.099 A 
ATOM      6  C   UNL d   1      53.215  33.861  54.421  0.00  0.00     0.019 A 
ATOM      7  C   UNL d   1      52.920  35.481  54.164  0.00  0.00     0.021 A 
ATOM      8  C   UNL d   1      53.657  34.440  54.828  0.00  0.00     0.002 A 
ATOM      9  C   UNL d   1      53.510  35.247  54.700  0.00  0.00     0.002 A 
ENDROOT
BRANCH   2  10
ATOM     10  C   UNL d   1      51.926  32.870  53.241  0.00  0.00     0.084 C 
BRANCH  10  11
ATOM     11  C   UNL d   1      52.530  32.367  52.988  0.00  0.00     0.046 C 
BRANCH  11  12
ATOM     12  C   UNL d   1      52.416  31.560  52.999  0.00  0.00     0.124 C 
BRANCH  12  13
ATOM     13  O   UNL d   1      53.057  31.059  52.884  0.00  0.00    -0.305 OA
BRANCH  13  14
ATOM     14  C   UNL d   1      53.102  30.349  53.297  0.00  0.00     0.100 A 
ATOM     15  C   UNL d   1      52.541  29.773  53.171  0.00  0.00     0.025 A 
ATOM     16  C   UNL d   1      52.583  29.073  53.577  0.00  0.00     0.002 A 
ATOM     17  C   UNL d   1      53.197  28.941  54.121  0.00  0.00     0.000 A 
ATOM     18  C   UNL d   1      53.757  29.530  54.240  0.00  0.00     0.002 A 
ATOM     19  C   UNL d   1      53.705  30.232  53.826  0.00  0.00     0.025 A 
ENDBRANCH  13  14
ENDBRANCH  12  13
ENDBRANCH  11  12
ENDBRANCH  10  11
ENDBRANCH   2  10
BRANCH   3  20
ATOM     20  C   UNL d   1      51.082  34.136  52.482  0.00  0.00     0.154 C 
BRANCH  20  21
ATOM     21  O   UNL d   1      50.381  34.561  52.475  0.00  0.00    -0.323 OA
ATOM     22  C   UNL d   1      49.704  34.531  52.001  0.00  0.00     0.182 C 
ENDBRANCH  20  21
ENDBRANCH   3  20
TORSDOF 7
ENDMDL
MODEL 4
REMARK VINA RESULT:      -6.9      1.697      4.758
REMARK  7 active torsions:
REMARK  status: ('A' for Active; 'I' for Inactive)
REMARK    1  A    between atoms: C_6  and  N_2 
REMARK    2  A    between atoms: C_7  and  C_3 
REMARK    3  A    between atoms: C_8  and  C_6 
REMARK    4  A    between atoms: O_13  and  C_7 
REMARK    5  A    between atoms: C_14  and  C_8 
REMARK    6  A    between atoms: C_9  and  O_12 
REMARK    7  A    between atoms: O_12  and  C_14 
ROOT
ATOM      1  N   UNL d   1      53.218  34.257  54.120  0.00  0.00    -0.225 NA
ATOM      2  N   UNL d   1      53.190  33.072  53.442  0.00  0.00    -0.287 N 
ATOM      3  C   UNL d   1      53.615  33.519  54.018  0.00  0.00     0.172 A 
ATOM      4  C   UNL d   1      52.537  33.521  53.185  0.00  0.00     0.083 A 
ATOM      5  C   UNL d   1      52.555  34.253  53.604  0.00  0.00     0.099 A 
ATOM      6  C   UNL d   1      51.934  33.377  52.638  0.00  0.00     0.019 A 
ATOM      7  C   UNL d   1      51.968  34.823  53.466  0.00  0.00     0.021 A 
ATOM      8  C   UNL d   1      51.346  33.955  52.504  0.00  0.00     0.002 A 
ATOM      9  C   UNL d   1      51.363  34.676  52.916  0.00  0.00     0.002 A 
ENDROOT
BRANCH   2  10
ATOM     10  C   UNL d   1      53.521  32.330  53.286  0.00  0.00     0.084 C 
BRANCH  10  11
ATOM     11  C   UNL d   1      53.034  31.663  53.281  0.00  0.00     0.046 C 
BRANCH  11  12
ATOM     12  C   UNL d   1      53.352  30.928  53.430  0.00  0.00     0.124 C 
BRANCH  12  13
ATOM     13  O   UNL d   1      52.854  30.293  53.580  0.00  0.00    -0.305 OA
BRANCH  13  14
ATOM     14  C   UNL d   1      53.110  29.674  54.058  0.00  0.00     0.100 A 
ATOM     15  C   UNL d   1      53.604  29.106  53.750  0.00  0.00     0.025 A 
ATOM     16  C   UNL d   1      53.858  28.495  54.219  0.00  0.00     0.002 A 
ATOM     17  C   UNL d   1      53.615  28.448  55.013  0.00  0.00     0.000 A 
ATOM     18  C   UNL d   1      53.115  29.027  55.312  0.00  0.00     0.002 A 
ATOM     19  C   UNL d   1      52.865  29.639  54.830  0.00  0.00     0.025 A 
ENDBRANCH  13  14
ENDBRANCH  12  13
ENDBRANCH  11  12
ENDBRANCH  10  11
ENDBRANCH   2  10
BRANCH   3  20
ATOM     20  C   UNL d   1      54.220  33.392  54.416  0.00  0.00     0.154 C 
BRANCH  20  21
ATOM     21  O   UNL d   1      54.620  33.947  54.866  0.00  0.00    -0.323 OA
ATOM     22  C   UNL d   1      55.293  33.910  55.346  0.00  0.00     0.182 C 
ENDBRANCH  20  21
ENDBRANCH   3  20
TORSDOF 7
ENDMDL
MODEL 5
REMARK VINA RESULT:      -5.8      2.626      6.207
REMARK  7 active torsions:
REMARK  status: ('A' for Active; 'I' for Inactive)
REMARK    1  A    between atoms: C_6  and  N_2 
REMARK    2  A    between atoms: C_7  and  C_3 
REMARK    3  A    between atoms: C_8  and  C_6 
REMARK    4  A    between atoms: O_13  and  C_7 
REMARK    5  A    between atoms: C_14  and  C_8 
REMARK    6  A    between atoms: C_9  and  O_12 
REMARK    7  A    between atoms: O_12  and  C_14 
ROOT
ATOM      1  N   UNL d   1      46.734  36.237  53.138  0.00  0.00    -0.225 NA
ATOM      2  N   UNL d   1      47.983  35.814  52.783  0.00  0.00    -0.287 N 
ATOM      3  C   UNL d   1      47.526  36.141  53.413  0.00  0.00     0.172 A 
ATOM      4  C   UNL d   1      47.487  35.705  52.123  0.00  0.00     0.083 A 
ATOM      5  C   UNL d   1      46.715  35.967  52.342  0.00  0.00     0.099 A 
ATOM      6  C   UNL d   1      47.618  35.410  51.361  0.00  0.00     0.019 A 
ATOM      7  C   UNL d   1      46.093  35.928  51.794  0.00  0.00     0.021 A 
ATOM      8  C   UNL d   1      46.988  35.373  50.814  0.00  0.00     0.002 A 
ATOM      9  C   UNL d   1      46.228  35.631  51.030  0.00  0.00     0.002 A 
ENDROOT
BRANCH   2  10
ATOM     10  C   UNL d   1      48.777  35.689  52.977  0.00  0.00     0.084 C 
BRANCH  10  11
ATOM     11  C   UNL d   1      49.108  34.941  52.869  0.00  0.00     0.046 C 
BRANCH  11  12
ATOM     12  C   UNL d   1      49.915  34.843  52.923  0.00  0.00     0.124 C 
BRANCH  12  13
ATOM     13  O   UNL d   1      50.244  34.103  52.788  0.00  0.00    -0.305 OA
BRANCH  13  14
ATOM     14  C   UNL d   1      51.029  33.959  52.990  0.00  0.00     0.100 A 
ATOM     15  C   UNL d   1      51.599  34.511  52.809  0.00  0.00     0.025 A 
ATOM     16  C   UNL d   1      52.373  34.371  53.007  0.00  0.00     0.002 A 
ATOM     17  C   UNL d   1      52.585  33.667  53.395  0.00  0.00     0.000 A 
ATOM     18  C   UNL d   1      52.000  33.118  53.572  0.00  0.00     0.002 A 
ATOM     19  C   UNL d   1      51.223  33.268  53.368  0.00  0.00     0.025 A 
ENDBRANCH  13  14
ENDBRANCH  12  13
ENDBRANCH  11  12
ENDBRANCH  10  11
ENDBRANCH   2  10
BRANCH   3  20
ATOM     20  C   UNL d   1      47.682  36.342  54.102  0.00  0.00     0.154 C 
BRANCH  20  21
ATOM     21  O   UNL d   1      47.164  36.709  54.620  0.00  0.00    -0.323 OA
ATOM     22  C   UNL d   1      47.090  36.709  55.444  0.00  0.00     0.182 C 
ENDBRANCH  20  21
ENDBRANCH   3  20
TORSDOF 7
ENDMDL
