MODEL 1
REMARK VINA RESULT:      -5.4      0.000      0.000
REMARK  7 active torsions:
REMARK  status: ('A' for Active; 'I' for Inactive)
REMARK    1  A    between atoms: O_8  and  C_2 
REMARK    2  A    between atoms: C_10  and  C_5 
REMARK    3  A    between atoms: C_21  and  O_8 
REMARK    4  A    between atoms: N_9  and  C_10 
REMARK    5  A    between atoms: C_12  and  C_15 
REMARK    6  A    between atoms: O_26  and  C_12 
REMARK    7  A    between atoms: C_32  and  O_26 
ROOT
ATOM      1  C   UNL d   1      46.430  35.847  52.486  0.00  0.00     0.108 A 
ATOM      2  C   UNL d   1      48.083  35.932  52.345  0.00  0.00     0.161 A 
ATOM      3  C   UNL d   1      46.806  35.580  51.788  0.00  0.00     0.064 A 
ATOM      4  C   UNL d   1      47.623  35.621  51.718  0.00  0.00     0.222 A 
ATOM      5  C   UNL d   1      45.604  35.805  52.557  0.00  0.00     0.079 A 
ATOM      6  O   UNL d   1      46.877  36.157  53.113  0.00  0.00    -0.305 OA
ATOM      7  C   UNL d   1      47.711  36.198  53.038  0.00  0.00     0.126 A 
ATOM      8  C   UNL d   1      46.341  35.273  51.170  0.00  0.00     0.009 A 
ATOM      9  C   UNL d   1      45.151  35.500  51.940  0.00  0.00     0.199 A 
ATOM     10  O   UNL d   1      47.997  35.358  51.030  0.00  0.00    -0.284 OA
ATOM     11  C   UNL d   1      45.521  35.232  51.243  0.00  0.00     0.042 A 
ATOM     12  O   UNL d   1      44.336  35.457  52.007  0.00  0.00    -0.286 OA
ATOM     13  C   UNL d   1      48.164  36.503  53.654  0.00  0.00     0.029 C 
ENDROOT
BRANCH   2  14
ATOM     14  O   UNL d   1      48.902  35.972  52.272  0.00  0.00    -0.302 OA
BRANCH  14  15
ATOM     15  C   UNL d   1      49.365  35.322  52.472  0.00  0.00     0.100 A 
ATOM     16  C   UNL d   1      49.597  34.788  51.890  0.00  0.00     0.025 A 
ATOM     17  C   UNL d   1      50.059  34.138  52.090  0.00  0.00     0.007 A 
ATOM     18  C   UNL d   1      50.291  34.021  52.873  0.00  0.00     0.064 A 
ATOM     19  C   UNL d   1      50.053  34.565  53.460  0.00  0.00     0.007 A 
ATOM     20  C   UNL d   1      49.594  35.208  53.256  0.00  0.00     0.025 A 
BRANCH  18  21
ATOM     21  C   UNL d   1      50.755  33.369  53.078  0.00  0.00     0.300 C 
ATOM     22  O   UNL d   1      50.400  32.661  53.307  0.00  0.00    -0.259 OA
BRANCH  21  23
ATOM     23  O   UNL d   1      51.580  33.419  53.055  0.00  0.00    -0.271 OA
BRANCH  23  24
ATOM     24  C   UNL d   1      52.030  32.729  53.085  0.00  0.00     0.126 C 
ATOM     25  C   UNL d   1      52.819  32.756  53.319  0.00  0.00     0.029 C 
ENDBRANCH  23  24
ENDBRANCH  21  23
ENDBRANCH  18  21
ENDBRANCH  14  15
ENDBRANCH   2  14
BRANCH   5  26
ATOM     26  C   UNL d   1      45.241  36.068  53.239  0.00  0.00     0.086 C 
BRANCH  26  27
ATOM     27  N   UNL d   1      45.009  35.524  53.818  0.00  0.00    -0.300 N 
ATOM     28  C   UNL d   1      45.241  35.634  54.603  0.00  0.00     0.100 A 
ATOM     29  C   UNL d   1      45.010  35.094  55.176  0.00  0.00     0.100 A 
ATOM     30  N   UNL d   1      44.549  34.445  54.974  0.00  0.00    -0.299 N 
ATOM     31  C   UNL d   1      44.316  34.335  54.186  0.00  0.00     0.100 A 
ATOM     32  C   UNL d   1      44.315  33.898  55.554  0.00  0.00     0.100 C 
ATOM     33  C   UNL d   1      44.548  34.878  53.606  0.00  0.00     0.100 A 
ENDBRANCH  26  27
ENDBRANCH   5  26
TORSDOF 7
ENDMDL
MODEL 2
REMARK VINA RESULT:      -4.9      2.904      6.736
REMARK  7 active torsions:
REMARK  status: ('A' for Active; 'I' for Inactive)
REMARK    1  A    between atoms: O_8  and  C_2 
REMARK    2  A    between atoms: C_10  and  C_5 
REMARK    3  A    between atoms: C_21  and  O_8 
REMARK    4  A    between atoms: N_9  and  C_10 
REMARK    5  A    between atoms: C_12  and  C_15 
REMARK    6  A    between atoms: O_26  and  C_12 
REMARK    7  A    between atoms: C_32  and  O_26 
ROOT
ATOM      1  C   UNL d   1      52.369  33.671  53.626  0.00  0.00     0.108 A 
ATOM      2  C   UNL d   1      51.047  33.984  52.670  0.00  0.00     0.161 A 
ATOM      3  C   UNL d   1      52.341  34.368  53.162  0.00  0.00     0.064 A 
ATOM      4  C   UNL d   1      51.688  34.522  52.690  0.00  0.00     0.222 A 
ATOM      5  C   UNL d   1      53.030  33.514  54.103  0.00  0.00     0.079 A 
ATOM      6  O   UNL d   1      51.739  33.131  53.612  0.00  0.00    -0.305 OA
ATOM      7  C   UNL d   1      51.074  33.293  53.129  0.00  0.00     0.126 A 
ATOM      8  C   UNL d   1      52.983  34.896  53.189  0.00  0.00     0.009 A 
ATOM      9  C   UNL d   1      53.661  34.044  54.123  0.00  0.00     0.199 A 
ATOM     10  O   UNL d   1      51.657  35.209  52.232  0.00  0.00    -0.284 OA
ATOM     11  C   UNL d   1      53.637  34.738  53.664  0.00  0.00     0.042 A 
ATOM     12  O   UNL d   1      54.314  33.891  54.593  0.00  0.00    -0.286 OA
ATOM     13  C   UNL d   1      50.443  32.763  53.109  0.00  0.00     0.029 C 
ENDROOT
BRANCH   2  14
ATOM     14  O   UNL d   1      50.392  34.142  52.196  0.00  0.00    -0.302 OA
BRANCH  14  15
ATOM     15  C   UNL d   1      49.792  34.629  52.475  0.00  0.00     0.100 A 
ATOM     16  C   UNL d   1      49.791  34.872  53.261  0.00  0.00     0.025 A 
ATOM     17  C   UNL d   1      49.190  35.360  53.540  0.00  0.00     0.007 A 
ATOM     18  C   UNL d   1      48.589  35.606  53.032  0.00  0.00     0.064 A 
ATOM     19  C   UNL d   1      48.593  35.357  52.236  0.00  0.00     0.007 A 
ATOM     20  C   UNL d   1      49.192  34.873  51.963  0.00  0.00     0.025 A 
BRANCH  18  21
ATOM     21  C   UNL d   1      47.984  36.096  53.308  0.00  0.00     0.300 C 
ATOM     22  O   UNL d   1      47.697  36.709  52.838  0.00  0.00    -0.259 OA
BRANCH  21  23
ATOM     23  O   UNL d   1      47.659  35.977  54.059  0.00  0.00    -0.271 OA
BRANCH  23  24
ATOM     24  C   UNL d   1      47.025  36.443  54.306  0.00  0.00     0.126 C 
ATOM     25  C   UNL d   1      46.695  36.335  55.053  0.00  0.00     0.029 C 
ENDBRANCH  23  24
ENDBRANCH  21  23
ENDBRANCH  18  21
ENDBRANCH  14  15
ENDBRANCH   2  14
BRANCH   5  26
ATOM     26  C   UNL d   1      53.053  32.834  54.553  0.00  0.00     0.086 C 
BRANCH  26  27
ATOM     27  N   UNL d   1      53.372  32.139  54.235  0.00  0.00    -0.300 N 
ATOM     28  C   UNL d   1      54.014  32.180  53.718  0.00  0.00     0.100 A 
ATOM     29  C   UNL d   1      54.329  31.490  53.404  0.00  0.00     0.100 A 
ATOM     30  N   UNL d   1      54.010  30.760  53.602  0.00  0.00    -0.299 N 
ATOM     31  C   UNL d   1      53.365  30.719  54.122  0.00  0.00     0.100 A 
ATOM     32  C   UNL d   1      54.329  30.061  53.284  0.00  0.00     0.100 C 
ATOM     33  C   UNL d   1      53.046  31.413  54.439  0.00  0.00     0.100 A 
ENDBRANCH  26  27
ENDBRANCH   5  26
TORSDOF 7
ENDMDL
MODEL 3
REMARK VINA RESULT:      -4.4      2.950      6.710
REMARK  7 active torsions:
REMARK  status: ('A' for Active; 'I' for Inactive)
REMARK    1  A    between atoms: O_8  and  C_2 
REMARK    2  A    between atoms: C_10  and  C_5 
REMARK    3  A    between atoms: C_21  and  O_8 
REMARK    4  A    between atoms: N_9  and  C_10 
REMARK    5  A    between atoms: C_12  and  C_15 
REMARK    6  A    between atoms: O_26  and  C_12 
REMARK    7  A    between atoms: C_32  and  O_26 
ROOT
ATOM      1  C   UNL d   1      52.293  32.963  52.857  0.00  0.00     0.108 A 
ATOM      2  C   UNL d   1      50.963  33.706  52.195  0.00  0.00     0.161 A 
ATOM      3  C   UNL d   1      51.543  32.594  52.896  0.00  0.00     0.064 A 
ATOM      4  C   UNL d   1      50.886  32.960  52.569  0.00  0.00     0.222 A 
ATOM      5  C   UNL d   1      52.958  32.592  53.187  0.00  0.00     0.079 A 
ATOM      6  O   UNL d   1      52.380  33.701  52.488  0.00  0.00    -0.305 OA
ATOM      7  C   UNL d   1      51.707  34.073  52.155  0.00  0.00     0.126 A 
ATOM      8  C   UNL d   1      51.476  31.853  53.269  0.00  0.00     0.009 A 
ATOM      9  C   UNL d   1      52.882  31.859  53.555  0.00  0.00     0.199 A 
ATOM     10  O   UNL d   1      50.144  32.598  52.606  0.00  0.00    -0.284 OA
ATOM     11  C   UNL d   1      52.137  31.488  53.597  0.00  0.00     0.042 A 
ATOM     12  O   UNL d   1      53.537  31.491  53.883  0.00  0.00    -0.286 OA
ATOM     13  C   UNL d   1      51.782  34.805  51.787  0.00  0.00     0.029 C 
ENDROOT
BRANCH   2  14
ATOM     14  O   UNL d   1      50.302  34.072  51.867  0.00  0.00    -0.302 OA
BRANCH  14  15
ATOM     15  C   UNL d   1      49.823  34.549  52.336  0.00  0.00     0.100 A 
ATOM     16  C   UNL d   1      49.096  34.808  52.049  0.00  0.00     0.025 A 
ATOM     17  C   UNL d   1      48.617  35.286  52.518  0.00  0.00     0.007 A 
ATOM     18  C   UNL d   1      48.865  35.505  53.274  0.00  0.00     0.064 A 
ATOM     19  C   UNL d   1      49.602  35.239  53.559  0.00  0.00     0.007 A 
ATOM     20  C   UNL d   1      50.074  34.766  53.091  0.00  0.00     0.025 A 
BRANCH  18  21
ATOM     21  C   UNL d   1      48.387  35.984  53.747  0.00  0.00     0.300 C 
ATOM     22  O   UNL d   1      48.667  36.709  54.022  0.00  0.00    -0.259 OA
BRANCH  21  23
ATOM     23  O   UNL d   1      47.623  35.742  53.950  0.00  0.00    -0.271 OA
BRANCH  23  24
ATOM     24  C   UNL d   1      47.159  36.224  54.433  0.00  0.00     0.126 C 
ATOM     25  C   UNL d   1      46.412  35.975  54.675  0.00  0.00     0.029 C 
ENDBRANCH  23  24
ENDBRANCH  21  23
ENDBRANCH  18  21
ENDBRANCH  14  15
ENDBRANCH   2  14
BRANCH   5  26
ATOM     26  C   UNL d   1      53.688  32.956  53.147  0.00  0.00     0.086 C 
BRANCH  26  27
ATOM     27  N   UNL d   1      54.050  33.233  53.837  0.00  0.00    -0.300 N 
ATOM     28  C   UNL d   1      53.645  33.753  54.334  0.00  0.00     0.100 A 
ATOM     29  C   UNL d   1      54.006  34.027  55.019  0.00  0.00     0.100 A 
ATOM     30  N   UNL d   1      54.767  33.787  55.212  0.00  0.00    -0.299 N 
ATOM     31  C   UNL d   1      55.173  33.265  54.713  0.00  0.00     0.100 A 
ATOM     32  C   UNL d   1      55.132  34.064  55.905  0.00  0.00     0.100 C 
ATOM     33  C   UNL d   1      54.811  32.987  54.023  0.00  0.00     0.100 A 
ENDBRANCH  26  27
ENDBRANCH   5  26
TORSDOF 7
ENDMDL
MODEL 4
REMARK VINA RESULT:      -4.4      3.180      7.021
REMARK  7 active torsions:
REMARK  status: ('A' for Active; 'I' for Inactive)
REMARK    1  A    between atoms: O_8  and  C_2 
REMARK    2  A    between atoms: C_10  and  C_5 
REMARK    3  A    between atoms: C_21  and  O_8 
REMARK    4  A    between atoms: N_9  and  C_10 
REMARK    5  A    between atoms: C_12  and  C_15 
REMARK    6  A    between atoms: O_26  and  C_12 
REMARK    7  A    between atoms: C_32  and  O_26 
ROOT
ATOM      1  C   UNL d   1      53.355  33.139  53.778  0.00  0.00     0.108 A 
ATOM      2  C   UNL d   1      52.465  34.364  53.094  0.00  0.00     0.161 A 
ATOM      3  C   UNL d   1      53.077  33.771  54.251  0.00  0.00     0.064 A 
ATOM      4  C   UNL d   1      52.638  34.376  53.914  0.00  0.00     0.222 A 
ATOM      5  C   UNL d   1      53.799  32.526  54.119  0.00  0.00     0.079 A 
ATOM      6  O   UNL d   1      53.189  33.118  52.965  0.00  0.00    -0.305 OA
ATOM      7  C   UNL d   1      52.740  33.738  52.624  0.00  0.00     0.126 A 
ATOM      8  C   UNL d   1      53.253  33.774  55.064  0.00  0.00     0.009 A 
ATOM      9  C   UNL d   1      53.969  32.538  54.925  0.00  0.00     0.199 A 
ATOM     10  O   UNL d   1      52.362  35.001  54.379  0.00  0.00    -0.284 OA
ATOM     11  C   UNL d   1      53.695  33.165  55.400  0.00  0.00     0.042 A 
ATOM     12  O   UNL d   1      54.407  31.935  55.264  0.00  0.00    -0.286 OA
ATOM     13  C   UNL d   1      52.570  33.726  51.819  0.00  0.00     0.029 C 
ENDROOT
BRANCH   2  14
ATOM     14  O   UNL d   1      52.024  34.973  52.758  0.00  0.00    -0.302 OA
BRANCH  14  15
ATOM     15  C   UNL d   1      51.235  34.848  52.562  0.00  0.00     0.100 A 
ATOM     16  C   UNL d   1      50.649  34.952  53.131  0.00  0.00     0.025 A 
ATOM     17  C   UNL d   1      49.860  34.827  52.935  0.00  0.00     0.007 A 
ATOM     18  C   UNL d   1      49.656  34.597  52.169  0.00  0.00     0.064 A 
ATOM     19  C   UNL d   1      50.253  34.493  51.596  0.00  0.00     0.007 A 
ATOM     20  C   UNL d   1      51.035  34.619  51.795  0.00  0.00     0.025 A 
BRANCH  18  21
ATOM     21  C   UNL d   1      48.865  34.471  51.968  0.00  0.00     0.300 C 
ATOM     22  O   UNL d   1      48.622  33.740  51.672  0.00  0.00    -0.259 OA
BRANCH  21  23
ATOM     23  O   UNL d   1      48.308  35.074  52.062  0.00  0.00    -0.271 OA
BRANCH  23  24
ATOM     24  C   UNL d   1      47.653  35.105  51.561  0.00  0.00     0.126 C 
ATOM     25  C   UNL d   1      47.062  35.666  51.681  0.00  0.00     0.029 C 
ENDBRANCH  23  24
ENDBRANCH  21  23
ENDBRANCH  18  21
ENDBRANCH  14  15
ENDBRANCH   2  14
BRANCH   5  26
ATOM     26  C   UNL d   1      54.068  31.912  53.654  0.00  0.00     0.086 C 
BRANCH  26  27
ATOM     27  N   UNL d   1      53.652  31.197  53.634  0.00  0.00    -0.300 N 
ATOM     28  C   UNL d   1      53.622  30.719  54.305  0.00  0.00     0.100 A 
ATOM     29  C   UNL d   1      53.209  30.010  54.284  0.00  0.00     0.100 A 
ATOM     30  N   UNL d   1      52.826  29.773  53.597  0.00  0.00    -0.299 N 
ATOM     31  C   UNL d   1      52.857  30.253  52.921  0.00  0.00     0.100 A 
ATOM     32  C   UNL d   1      52.408  29.055  53.574  0.00  0.00     0.100 C 
ATOM     33  C   UNL d   1      53.272  30.968  52.942  0.00  0.00     0.100 A 
ENDBRANCH  26  27
ENDBRANCH   5  26
TORSDOF 7
ENDMDL
MODEL 5
REMARK VINA RESULT:      -4.3      1.794      2.957
REMARK  7 active torsions:
REMARK  status: ('A' for Active; 'I' for Inactive)
REMARK    1  A    between atoms: O_8  and  C_2 
REMARK    2  A    between atoms: C_10  and  C_5 
REMARK    3  A    between atoms: C_21  and  O_8 
REMARK    4  A    between atoms: N_9  and  C_10 
REMARK    5  A    between atoms: C_12  and  C_15 
REMARK    6  A    between atoms: O_26  and  C_12 
REMARK    7  A    between atoms: C_32  and  O_26 
ROOT
ATOM      1  C   UNL d   1      48.361  35.430  52.330  0.00  0.00     0.108 A 
ATOM      2  C   UNL d   1      49.641  34.379  52.201  0.00  0.00     0.161 A 
ATOM      3  C   UNL d   1      48.735  35.138  53.019  0.00  0.00     0.064 A 
ATOM      4  C   UNL d   1      49.367  34.619  52.956  0.00  0.00     0.222 A 
ATOM      5  C   UNL d   1      47.721  35.956  52.393  0.00  0.00     0.079 A 
ATOM      6  O   UNL d   1      48.625  35.199  51.577  0.00  0.00    -0.305 OA
ATOM      7  C   UNL d   1      49.271  34.669  51.517  0.00  0.00     0.126 A 
ATOM      8  C   UNL d   1      48.456  35.382  53.764  0.00  0.00     0.009 A 
ATOM      9  C   UNL d   1      47.452  36.191  53.135  0.00  0.00     0.199 A 
ATOM     10  O   UNL d   1      49.739  34.329  53.634  0.00  0.00    -0.284 OA
ATOM     11  C   UNL d   1      47.821  35.903  53.824  0.00  0.00     0.042 A 
ATOM     12  O   UNL d   1      46.821  36.709  53.201  0.00  0.00    -0.286 OA
ATOM     13  C   UNL d   1      49.540  34.433  50.776  0.00  0.00     0.029 C 
ENDROOT
BRANCH   2  14
ATOM     14  O   UNL d   1      50.276  33.858  52.141  0.00  0.00    -0.302 OA
BRANCH  14  15
ATOM     15  C   UNL d   1      50.971  34.009  52.554  0.00  0.00     0.100 A 
ATOM     16  C   UNL d   1      51.109  33.635  53.275  0.00  0.00     0.025 A 
ATOM     17  C   UNL d   1      51.804  33.785  53.689  0.00  0.00     0.007 A 
ATOM     18  C   UNL d   1      52.362  34.310  53.382  0.00  0.00     0.064 A 
ATOM     19  C   UNL d   1      52.218  34.686  52.651  0.00  0.00     0.007 A 
ATOM     20  C   UNL d   1      51.527  34.533  52.244  0.00  0.00     0.025 A 
BRANCH  18  21
ATOM     21  C   UNL d   1      53.061  34.463  53.795  0.00  0.00     0.300 C 
ATOM     22  O   UNL d   1      53.252  35.234  54.018  0.00  0.00    -0.259 OA
BRANCH  21  23
ATOM     23  O   UNL d   1      53.576  33.847  53.988  0.00  0.00    -0.271 OA
BRANCH  23  24
ATOM     24  C   UNL d   1      54.203  33.988  54.506  0.00  0.00     0.126 C 
ATOM     25  C   UNL d   1      54.832  33.459  54.553  0.00  0.00     0.029 C 
ENDBRANCH  23  24
ENDBRANCH  21  23
ENDBRANCH  18  21
ENDBRANCH  14  15
ENDBRANCH   2  14
BRANCH   5  26
ATOM     26  C   UNL d   1      47.360  36.238  51.718  0.00  0.00     0.086 C 
BRANCH  26  27
ATOM     27  N   UNL d   1      46.602  35.975  51.515  0.00  0.00    -0.300 N 
ATOM     28  C   UNL d   1      46.508  35.408  50.923  0.00  0.00     0.100 A 
ATOM     29  C   UNL d   1      45.755  35.149  50.723  0.00  0.00     0.100 A 
ATOM     30  N   UNL d   1      45.095  35.450  51.108  0.00  0.00    -0.299 N 
ATOM     31  C   UNL d   1      45.190  36.020  51.703  0.00  0.00     0.100 A 
ATOM     32  C   UNL d   1      44.333  35.187  50.905  0.00  0.00     0.100 C 
ATOM     33  C   UNL d   1      45.948  36.283  51.906  0.00  0.00     0.100 A 
ENDBRANCH  26  27
ENDBRANCH   5  26
TORSDOF 7
ENDMDL
MODEL 6
REMARK VINA RESULT:      -3.8      3.079      5.760
REMARK  7 active torsions:
REMARK  status: ('A' for Active; 'I' for Inactive)
REMARK    1  A    between atoms: O_8  and  C_2 
REMARK    2  A    between atoms: C_10  and  C_5 
REMARK    3  A    between atoms: C_21  and  O_8 
REMARK    4  A    between atoms: N_9  and  C_10 
REMARK    5  A    between atoms: C_12  and  C_15 
REMARK    6  A    between atoms: O_26  and  C_12 
REMARK    7  A    between atoms: C_32  and  O_26 
ROOT
ATOM      1  C   UNL d   1      51.681  33.605  53.262  0.00  0.00     0.108 A 
ATOM      2  C   UNL d   1      52.527  32.275  52.738  0.00  0.00     0.161 A 
ATOM      3  C   UNL d   1      52.504  33.659  53.122  0.00  0.00     0.064 A 
ATOM      4  C   UNL d   1      52.923  33.002  52.863  0.00  0.00     0.222 A 
ATOM      5  C   UNL d   1      51.258  34.269  53.525  0.00  0.00     0.079 A 
ATOM      6  O   UNL d   1      51.280  32.888  53.142  0.00  0.00    -0.305 OA
ATOM      7  C   UNL d   1      51.710  32.220  52.877  0.00  0.00     0.126 A 
ATOM      8  C   UNL d   1      52.888  34.386  53.248  0.00  0.00     0.009 A 
ATOM      9  C   UNL d   1      51.647  34.985  53.647  0.00  0.00     0.199 A 
ATOM     10  O   UNL d   1      53.735  33.053  52.723  0.00  0.00    -0.284 OA
ATOM     11  C   UNL d   1      52.466  35.044  53.508  0.00  0.00     0.042 A 
ATOM     12  O   UNL d   1      51.232  35.642  53.906  0.00  0.00    -0.286 OA
ATOM     13  C   UNL d   1      51.322  31.504  52.754  0.00  0.00     0.029 C 
ENDROOT
BRANCH   2  14
ATOM     14  O   UNL d   1      52.949  31.617  52.478  0.00  0.00    -0.302 OA
BRANCH  14  15
ATOM     15  C   UNL d   1      53.068  30.980  52.984  0.00  0.00     0.100 A 
ATOM     16  C   UNL d   1      52.691  30.262  52.837  0.00  0.00     0.025 A 
ATOM     17  C   UNL d   1      52.810  29.625  53.342  0.00  0.00     0.007 A 
ATOM     18  C   UNL d   1      53.307  29.703  53.997  0.00  0.00     0.064 A 
ATOM     19  C   UNL d   1      53.686  30.432  54.142  0.00  0.00     0.007 A 
ATOM     20  C   UNL d   1      53.565  31.062  53.637  0.00  0.00     0.025 A 
BRANCH  18  21
ATOM     21  C   UNL d   1      53.429  29.065  54.507  0.00  0.00     0.300 C 
ATOM     22  O   UNL d   1      53.737  28.356  54.220  0.00  0.00    -0.259 OA
BRANCH  21  23
ATOM     23  O   UNL d   1      53.243  29.130  55.309  0.00  0.00    -0.271 OA
BRANCH  23  24
ATOM     24  C   UNL d   1      53.319  28.470  55.799  0.00  0.00     0.126 C 
ATOM     25  C   UNL d   1      53.257  28.549  56.616  0.00  0.00     0.029 C 
ENDBRANCH  23  24
ENDBRANCH  21  23
ENDBRANCH  18  21
ENDBRANCH  14  15
ENDBRANCH   2  14
BRANCH   5  26
ATOM     26  C   UNL d   1      50.455  34.211  53.660  0.00  0.00     0.086 C 
BRANCH  26  27
ATOM     27  N   UNL d   1      49.921  34.557  53.132  0.00  0.00    -0.300 N 
ATOM     28  C   UNL d   1      49.390  35.129  53.399  0.00  0.00     0.100 A 
ATOM     29  C   UNL d   1      48.860  35.471  52.873  0.00  0.00     0.100 A 
ATOM     30  N   UNL d   1      48.856  35.248  52.083  0.00  0.00    -0.299 N 
ATOM     31  C   UNL d   1      49.390  34.673  51.814  0.00  0.00     0.100 A 
ATOM     32  C   UNL d   1      48.320  35.594  51.550  0.00  0.00     0.100 C 
ATOM     33  C   UNL d   1      49.925  34.327  52.343  0.00  0.00     0.100 A 
ENDBRANCH  26  27
ENDBRANCH   5  26
TORSDOF 7
ENDMDL
