MODEL 1
REMARK VINA RESULT:      25.7      0.000      0.000
REMARK  1 active torsions:
REMARK  status: ('A' for Active; 'I' for Inactive)
REMARK    1  A    between atoms: C_2  and  C_1 
REMARK       I    between atoms: N_3  and  C_2 
ROOT
ATOM      1  C   UNL d   1     -56.750 -98.802 -44.546  0.00  0.00     0.109 A 
ATOM      2  C   UNL d   1     -56.608 -98.781 -45.338  0.00  0.00     0.026 A 
ATOM      3  C   UNL d   1     -56.097 -98.809 -44.091  0.00  0.00    -0.014 A 
ATOM      4  C   UNL d   1     -56.304 -98.819 -43.738  0.00  0.00    -0.014 A 
ATOM      5  C   UNL d   1     -55.730 -98.769 -45.478  0.00  0.00     0.045 A 
ATOM      6  C   UNL d   1     -55.573 -98.810 -43.849  0.00  0.00    -0.007 A 
ATOM      7  C   UNL d   1     -55.158 -98.796 -44.259  0.00  0.00    -0.007 A 
ATOM      8  C   UNL d   1     -54.712 -98.813 -43.452  0.00  0.00    -0.001 A 
ATOM      9  C   UNL d   1     -55.022 -98.775 -45.018  0.00  0.00    -0.022 A 
ATOM     10  C   UNL d   1     -55.329 -98.782 -44.869  0.00  0.00    -0.022 A 
ENDROOT
BRANCH   1  11
ATOM     11  C   UNL d   1     -57.766 -98.818 -44.285  0.00  0.00     0.248 C 
ATOM     12  N   UNL d   1     -58.533 -98.792 -44.990  0.00  0.00    -0.275 N 
ATOM     13  C   UNL d   1     -58.823 -98.764 -45.715  0.00  0.00     0.083 A 
ATOM     14  C   UNL d   1     -59.132 -98.815 -44.500  0.00  0.00     0.083 A 
ATOM     15  C   UNL d   1     -59.609 -98.770 -45.661  0.00  0.00     0.021 A 
ATOM     16  C   UNL d   1     -59.801 -98.802 -44.911  0.00  0.00     0.021 A 
ATOM     17  O   UNL d   1     -57.901 -98.853 -43.451  0.00  0.00    -0.271 OA
ENDBRANCH   1  11
TORSDOF 1
ENDMDL
MODEL 2
REMARK VINA RESULT:      27.7      1.273      1.595
REMARK  1 active torsions:
REMARK  status: ('A' for Active; 'I' for Inactive)
REMARK    1  A    between atoms: C_2  and  C_1 
REMARK       I    between atoms: N_3  and  C_2 
ROOT
ATOM      1  C   UNL d   1     -56.354 -99.338 -44.578  0.00  0.00     0.109 A 
ATOM      2  C   UNL d   1     -55.935 -98.756 -44.213  0.00  0.00     0.026 A 
ATOM      3  C   UNL d   1     -55.972-100.034 -44.638  0.00  0.00    -0.014 A 
ATOM      4  C   UNL d   1     -56.280-100.223 -44.830  0.00  0.00    -0.014 A 
ATOM      5  C   UNL d   1     -55.138 -99.072 -43.975  0.00  0.00     0.045 A 
ATOM      6  C   UNL d   1     -55.619-100.491 -44.635  0.00  0.00    -0.007 A 
ATOM      7  C   UNL d   1     -55.113-100.357 -44.377  0.00  0.00    -0.007 A 
ATOM      8  C   UNL d   1     -55.040-101.241 -44.629  0.00  0.00    -0.001 A 
ATOM      9  C   UNL d   1     -54.712 -99.799 -44.027  0.00  0.00    -0.022 A 
ATOM     10  C   UNL d   1     -55.028 -99.771 -44.152  0.00  0.00    -0.022 A 
ENDROOT
BRANCH   1  11
ATOM     11  C   UNL d   1     -57.312 -99.053 -44.894  0.00  0.00     0.248 C 
ATOM     12  N   UNL d   1     -58.141 -99.053 -44.263  0.00  0.00    -0.275 N 
ATOM     13  C   UNL d   1     -58.509 -99.162 -43.582  0.00  0.00     0.083 A 
ATOM     14  C   UNL d   1     -58.667 -98.805 -44.774  0.00  0.00     0.083 A 
ATOM     15  C   UNL d   1     -59.268 -98.977 -43.685  0.00  0.00     0.021 A 
ATOM     16  C   UNL d   1     -59.366 -98.756 -44.420  0.00  0.00     0.021 A 
ATOM     17  O   UNL d   1     -57.346 -98.825 -45.708  0.00  0.00    -0.271 OA
ENDBRANCH   1  11
TORSDOF 1
ENDMDL
MODEL 3
REMARK VINA RESULT:      28.5      0.871      1.190
REMARK  1 active torsions:
REMARK  status: ('A' for Active; 'I' for Inactive)
REMARK    1  A    between atoms: C_2  and  C_1 
REMARK       I    between atoms: N_3  and  C_2 
ROOT
ATOM      1  C   UNL d   1     -56.886 -98.772 -44.765  0.00  0.00     0.109 A 
ATOM      2  C   UNL d   1     -56.592 -98.782 -45.514  0.00  0.00     0.026 A 
ATOM      3  C   UNL d   1     -56.335 -98.767 -44.192  0.00  0.00    -0.014 A 
ATOM      4  C   UNL d   1     -56.607 -98.762 -43.886  0.00  0.00    -0.014 A 
ATOM      5  C   UNL d   1     -55.703 -98.786 -45.481  0.00  0.00     0.045 A 
ATOM      6  C   UNL d   1     -55.868 -98.765 -43.852  0.00  0.00    -0.007 A 
ATOM      7  C   UNL d   1     -55.381 -98.771 -44.173  0.00  0.00    -0.007 A 
ATOM      8  C   UNL d   1     -55.102 -98.762 -43.294  0.00  0.00    -0.001 A 
ATOM      9  C   UNL d   1     -55.098 -98.782 -44.891  0.00  0.00    -0.022 A 
ATOM     10  C   UNL d   1     -55.429 -98.779 -44.804  0.00  0.00    -0.022 A 
ENDROOT
BRANCH   1  11
ATOM     11  C   UNL d   1     -57.934 -98.766 -44.708  0.00  0.00     0.248 C 
ATOM     12  N   UNL d   1     -58.453 -98.765 -43.805  0.00  0.00    -0.275 N 
ATOM     13  C   UNL d   1     -58.512 -98.767 -43.026  0.00  0.00     0.083 A 
ATOM     14  C   UNL d   1     -59.172 -98.761 -44.093  0.00  0.00     0.083 A 
ATOM     15  C   UNL d   1     -59.278 -98.763 -42.842  0.00  0.00     0.021 A 
ATOM     16  C   UNL d   1     -59.686 -98.759 -43.500  0.00  0.00     0.021 A 
ATOM     17  O   UNL d   1     -58.313 -98.763 -45.465  0.00  0.00    -0.271 OA
ENDBRANCH   1  11
TORSDOF 1
ENDMDL
