MODEL 1
REMARK VINA RESULT:      -2.7      0.000      0.000
REMARK  1 active torsions:
REMARK  status: ('A' for Active; 'I' for Inactive)
REMARK    1  A    between atoms: C_2  and  S_1 
ROOT
ATOM      1  C   UNL d   1      46.582 -19.223  42.661  0.00  0.00     0.107 A 
ATOM      2  C   UNL d   1      46.568 -18.700  43.298  0.00  0.00     0.014 A 
ATOM      3  C   UNL d   1      46.577 -20.029  42.785  0.00  0.00     0.014 A 
ATOM      4  C   UNL d   1      46.542 -19.817  44.186  0.00  0.00     0.058 A 
ATOM      5  C   UNL d   1      46.556 -20.330  43.559  0.00  0.00     0.012 A 
ATOM      6  C   UNL d   1      46.548 -18.991  44.070  0.00  0.00     0.012 A 
ATOM      7 CL   UNL d   1      46.522 -20.132  44.948  0.00  0.00    -0.082 Cl
ENDROOT
BRANCH   1   8
ATOM      8  S   UNL d   1      46.603 -18.924  41.893  0.00  0.00     0.302 S 
ATOM      9  O   UNL d   1      46.645 -18.159  42.200  0.00  0.00    -0.197 OA
ATOM     10  O   UNL d   1      46.562 -19.676  41.588  0.00  0.00    -0.197 OA
ATOM     11  N   UNL d   1      46.624 -18.618  41.131  0.00  0.00    -0.043 N 
ENDBRANCH   1   8
TORSDOF 1
ENDMDL
MODEL 2
REMARK VINA RESULT:      -0.6      7.691      7.806
REMARK  1 active torsions:
REMARK  status: ('A' for Active; 'I' for Inactive)
REMARK    1  A    between atoms: C_2  and  S_1 
ROOT
ATOM      1  C   UNL d   1      45.192 -15.084  36.835  0.00  0.00     0.107 A 
ATOM      2  C   UNL d   1      45.163 -15.818  36.459  0.00  0.00     0.014 A 
ATOM      3  C   UNL d   1      44.507 -14.717  37.082  0.00  0.00     0.014 A 
ATOM      4  C   UNL d   1      43.742 -15.803  36.587  0.00  0.00     0.058 A 
ATOM      5  C   UNL d   1      43.772 -15.082  36.956  0.00  0.00     0.012 A 
ATOM      6  C   UNL d   1      44.437 -16.186  36.330  0.00  0.00     0.012 A 
ATOM      7 CL   UNL d   1      43.003 -16.151  36.469  0.00  0.00    -0.082 Cl
ENDROOT
BRANCH   1   8
ATOM      8  S   UNL d   1      45.923 -14.723  36.960  0.00  0.00     0.302 S 
ATOM      9  O   UNL d   1      45.557 -14.172  37.453  0.00  0.00    -0.197 OA
ATOM     10  O   UNL d   1      46.284 -15.265  36.473  0.00  0.00    -0.197 OA
ATOM     11  N   UNL d   1      46.647 -14.358  37.089  0.00  0.00    -0.043 N 
ENDBRANCH   1   8
TORSDOF 1
ENDMDL
MODEL 3
REMARK VINA RESULT:       0.0      7.763      7.886
REMARK  1 active torsions:
REMARK  status: ('A' for Active; 'I' for Inactive)
REMARK    1  A    between atoms: C_2  and  S_1 
ROOT
ATOM      1  C   UNL d   1      44.458 -15.463  36.665  0.00  0.00     0.107 A 
ATOM      2  C   UNL d   1      45.134 -15.800  36.335  0.00  0.00     0.014 A 
ATOM      3  C   UNL d   1      44.510 -14.790  37.122  0.00  0.00     0.014 A 
ATOM      4  C   UNL d   1      45.915 -14.767  36.936  0.00  0.00     0.058 A 
ATOM      5  C   UNL d   1      45.248 -14.437  37.259  0.00  0.00     0.012 A 
ATOM      6  C   UNL d   1      45.872 -15.455  36.466  0.00  0.00     0.012 A 
ATOM      7 CL   UNL d   1      46.641 -14.403  37.082  0.00  0.00    -0.082 Cl
ENDROOT
BRANCH   1   8
ATOM      8  S   UNL d   1      43.724 -15.815  36.528  0.00  0.00     0.302 S 
ATOM      9  O   UNL d   1      44.107 -16.518  36.330  0.00  0.00    -0.197 OA
ATOM     10  O   UNL d   1      43.346 -15.122  36.723  0.00  0.00    -0.197 OA
ATOM     11  N   UNL d   1      42.998 -16.171  36.390  0.00  0.00    -0.043 N 
ENDBRANCH   1   8
TORSDOF 1
ENDMDL
MODEL 4
REMARK VINA RESULT:       0.2      5.422      5.841
REMARK  1 active torsions:
REMARK  status: ('A' for Active; 'I' for Inactive)
REMARK    1  A    between atoms: C_2  and  S_1 
ROOT
ATOM      1  C   UNL d   1      45.481 -13.673  44.354  0.00  0.00     0.107 A 
ATOM      2  C   UNL d   1      44.781 -13.977  44.666  0.00  0.00     0.014 A 
ATOM      3  C   UNL d   1      46.131 -14.154  44.245  0.00  0.00     0.014 A 
ATOM      4  C   UNL d   1      45.403 -15.258  44.756  0.00  0.00     0.058 A 
ATOM      5  C   UNL d   1      46.091 -14.958  44.449  0.00  0.00     0.012 A 
ATOM      6  C   UNL d   1      44.733 -14.775  44.871  0.00  0.00     0.012 A 
ATOM      7 CL   UNL d   1      45.380 -16.059  44.953  0.00  0.00    -0.082 Cl
ENDROOT
BRANCH   1   8
ATOM      8  S   UNL d   1      45.520 -12.874  44.152  0.00  0.00     0.302 S 
ATOM      9  O   UNL d   1      45.136 -13.044  43.441  0.00  0.00    -0.197 OA
ATOM     10  O   UNL d   1      45.898 -12.706  44.852  0.00  0.00    -0.197 OA
ATOM     11  N   UNL d   1      45.555 -12.081  43.944  0.00  0.00    -0.043 N 
ENDBRANCH   1   8
TORSDOF 1
ENDMDL
