MODEL 1
REMARK VINA RESULT:      74.9      0.000      0.000
REMARK  5 active torsions:
REMARK  status: ('A' for Active; 'I' for Inactive)
REMARK    1  A    between atoms: C_7  and  N_1 
REMARK    2  A    between atoms: C_12  and  C_3 
REMARK    3  A    between atoms: C_8  and  S_15 
REMARK    4  A    between atoms: C_16  and  C_12 
REMARK    5  A    between atoms: S_15  and  C_16 
ROOT
ATOM      1  N   UNL d   1      61.032  47.084  50.619  0.00  0.00    -0.304 N 
ATOM      2  C   UNL d   1      60.746  47.648  50.092  0.00  0.00     0.067 A 
ATOM      3  C   UNL d   1      60.587  48.339  50.517  0.00  0.00     0.057 A 
ATOM      4  C   UNL d   1      61.052  47.418  51.363  0.00  0.00     0.064 A 
ATOM      5  C   UNL d   1      60.779  48.193  51.312  0.00  0.00     0.022 A 
ATOM      6  C   UNL d   1      60.640  47.534  49.283  0.00  0.00     0.019 C 
ATOM      7  C   UNL d   1      61.187  47.449  52.176  0.00  0.00     0.019 C 
ENDROOT
BRANCH   3   8
ATOM      8  C   UNL d   1      60.338  49.128  50.625  0.00  0.00     0.204 C 
ATOM      9  O   UNL d   1      60.876  49.698  50.908  0.00  0.00    -0.286 OA
BRANCH   8  10
ATOM     10  C   UNL d   1      59.742  49.698  50.583  0.00  0.00     0.080 C 
BRANCH  10  11
ATOM     11  S   UNL d   1      59.102  49.664  51.108  0.00  0.00    -0.043 SA
BRANCH  11  12
ATOM     12  C   UNL d   1      58.329  49.665  50.821  0.00  0.00     0.233 A 
ATOM     13  N   UNL d   1      58.109  49.695  50.027  0.00  0.00    -0.029 NA
ATOM     14  C   UNL d   1      57.288  49.686  49.995  0.00  0.00     0.788 A 
ATOM     15  N   UNL d   1      56.828  49.708  49.309  0.00  0.00     0.064 N 
ATOM     16  N   UNL d   1      57.005  49.651  50.767  0.00  0.00     0.050 NA
ATOM     17  N   UNL d   1      57.652  49.638  51.289  0.00  0.00    -0.105 NA
ENDBRANCH  11  12
ENDBRANCH  10  11
ENDBRANCH   8  10
ENDBRANCH   3   8
BRANCH   1  18
ATOM     18  C   UNL d   1      61.261  46.310  50.425  0.00  0.00     0.094 A 
ATOM     19  C   UNL d   1      60.917  45.702  50.800  0.00  0.00     0.050 A 
ATOM     20  C   UNL d   1      61.151  44.925  50.602  0.00  0.00     0.142 A 
ATOM     21  F   UNL d   1      60.798  44.279  50.987  0.00  0.00    -0.204 F 
ATOM     22  C   UNL d   1      61.727  44.799  50.029  0.00  0.00     0.032 A 
ATOM     23  C   UNL d   1      62.076  45.431  49.648  0.00  0.00     0.034 A 
ATOM     24  C   UNL d   1      61.843  46.199  49.846  0.00  0.00     0.156 A 
ATOM     25  F   UNL d   1      62.386  46.511  49.286  0.00  0.00    -0.203 F 
ENDBRANCH   1  18
TORSDOF 5
ENDMDL
