MODEL 1
REMARK VINA RESULT:       2.2      0.000      0.000
REMARK  5 active torsions:
REMARK  status: ('A' for Active; 'I' for Inactive)
REMARK    1  A    between atoms: C_12  and  S_1 
REMARK    2  A    between atoms: N_13  and  S_1 
REMARK    3  A    between atoms: C_2  and  N_6 
REMARK    4  A    between atoms: C_5  and  C_3 
REMARK       I    between atoms: N_6  and  C_8 
REMARK    5  A    between atoms: C_8  and  C_18 
ROOT
ATOM      1  N   UNL d   1      60.232  -4.169  28.670  0.00  0.00    -0.183 NA
ATOM      2  C   UNL d   1      59.466  -3.886  28.734  0.00  0.00     0.281 C 
ATOM      3  O   UNL d   1      58.831  -4.421  28.730  0.00  0.00    -0.265 OA
ENDROOT
BRANCH   1   4
ATOM      4  C   UNL d   1      60.376  -4.973  28.601  0.00  0.00     0.197 A 
ATOM      5  N   UNL d   1      59.809  -5.571  28.617  0.00  0.00    -0.218 NA
ATOM      6  C   UNL d   1      60.199  -6.294  28.530  0.00  0.00     0.113 A 
ATOM      7  C   UNL d   1      61.007  -6.144  28.460  0.00  0.00     0.059 A 
ATOM      8  S   UNL d   1      61.113  -5.330  28.504  0.00  0.00    -0.046 SA
BRANCH   6   9
ATOM      9  C   UNL d   1      59.843  -7.035  28.515  0.00  0.00     0.118 A 
ATOM     10  O   UNL d   1      59.082  -7.230  28.515  0.00  0.00    -0.306 OA
ATOM     11  C   UNL d   1      58.921  -8.002  28.498  0.00  0.00     0.100 A 
ATOM     12  C   UNL d   1      58.241  -8.475  28.491  0.00  0.00     0.025 A 
ATOM     13  C   UNL d   1      59.675  -8.363  28.486  0.00  0.00     0.025 A 
ATOM     14  C   UNL d   1      58.305  -9.294  28.472  0.00  0.00     0.002 A 
ATOM     15  C   UNL d   1      59.055  -9.665  28.460  0.00  0.00     0.000 A 
ATOM     16  C   UNL d   1      59.733  -9.189  28.467  0.00  0.00     0.002 A 
ATOM     17  C   UNL d   1      60.237  -7.761  28.496  0.00  0.00     0.028 A 
ENDBRANCH   6   9
ENDBRANCH   1   4
BRANCH   2  18
ATOM     18  C   UNL d   1      59.320  -3.077  28.803  0.00  0.00     0.058 A 
ATOM     19  C   UNL d   1      59.845  -2.534  28.472  0.00  0.00     0.005 A 
ATOM     20  C   UNL d   1      59.697  -1.734  28.542  0.00  0.00     0.013 A 
ATOM     21  C   UNL d   1      59.020  -1.465  28.947  0.00  0.00     0.104 A 
ATOM     22  C   UNL d   1      58.502  -2.021  29.275  0.00  0.00     0.013 A 
ATOM     23  C   UNL d   1      58.652  -2.818  29.203  0.00  0.00     0.005 A 
BRANCH  21  24
ATOM     24  S   UNL d   1      58.872  -0.653  29.018  0.00  0.00     0.271 S 
ATOM     25  O   UNL d   1      59.544  -0.576  29.482  0.00  0.00    -0.200 OA
ATOM     26  O   UNL d   1      58.196  -0.733  28.550  0.00  0.00    -0.200 OA
BRANCH  24  27
ATOM     27  N   UNL d   1      58.726   0.153  29.088  0.00  0.00    -0.226 N 
ATOM     28  C   UNL d   1      59.137   0.595  29.644  0.00  0.00     0.111 C 
ATOM     29  C   UNL d   1      58.172   0.514  28.604  0.00  0.00     0.111 C 
ENDBRANCH  24  27
ENDBRANCH  21  24
ENDBRANCH   2  18
TORSDOF 5
ENDMDL
MODEL 2
REMARK VINA RESULT:       4.2      5.519      8.595
REMARK  5 active torsions:
REMARK  status: ('A' for Active; 'I' for Inactive)
REMARK    1  A    between atoms: C_12  and  S_1 
REMARK    2  A    between atoms: N_13  and  S_1 
REMARK    3  A    between atoms: C_2  and  N_6 
REMARK    4  A    between atoms: C_5  and  C_3 
REMARK       I    between atoms: N_6  and  C_8 
REMARK    5  A    between atoms: C_8  and  C_18 
ROOT
ATOM      1  N   UNL d   1      56.559  -0.026  33.025  0.00  0.00    -0.183 NA
ATOM      2  C   UNL d   1      56.338  -0.065  32.236  0.00  0.00     0.281 C 
ATOM      3  O   UNL d   1      55.552   0.092  32.024  0.00  0.00    -0.265 OA
ENDROOT
BRANCH   1   4
ATOM      4  C   UNL d   1      56.011   0.166  33.602  0.00  0.00     0.197 A 
ATOM      5  N   UNL d   1      55.191   0.145  33.520  0.00  0.00    -0.218 NA
ATOM      6  C   UNL d   1      54.858   0.381  34.238  0.00  0.00     0.113 A 
ATOM      7  C   UNL d   1      55.470   0.548  34.765  0.00  0.00     0.059 A 
ATOM      8  S   UNL d   1      56.179   0.415  34.371  0.00  0.00    -0.046 SA
BRANCH   6   9
ATOM      9  C   UNL d   1      54.054   0.439  34.400  0.00  0.00     0.118 A 
ATOM     10  O   UNL d   1      53.437   0.405  33.915  0.00  0.00    -0.306 OA
ATOM     11  C   UNL d   1      52.727   0.482  34.249  0.00  0.00     0.100 A 
ATOM     12  C   UNL d   1      51.938   0.485  33.994  0.00  0.00     0.025 A 
ATOM     13  C   UNL d   1      52.898   0.579  35.062  0.00  0.00     0.025 A 
ATOM     14  C   UNL d   1      51.327   0.584  34.535  0.00  0.00     0.002 A 
ATOM     15  C   UNL d   1      51.488   0.682  35.351  0.00  0.00     0.000 A 
ATOM     16  C   UNL d   1      52.277   0.677  35.602  0.00  0.00     0.002 A 
ATOM     17  C   UNL d   1      53.717   0.552  35.147  0.00  0.00     0.028 A 
ENDBRANCH   6   9
ENDBRANCH   1   4
BRANCH   2  18
ATOM     18  C   UNL d   1      56.890  -0.258  31.654  0.00  0.00     0.058 A 
ATOM     19  C   UNL d   1      57.241   0.338  31.204  0.00  0.00     0.005 A 
ATOM     20  C   UNL d   1      57.786   0.142  30.628  0.00  0.00     0.013 A 
ATOM     21  C   UNL d   1      57.989  -0.655  30.495  0.00  0.00     0.104 A 
ATOM     22  C   UNL d   1      57.630  -1.243  30.954  0.00  0.00     0.013 A 
ATOM     23  C   UNL d   1      57.087  -1.045  31.526  0.00  0.00     0.005 A 
BRANCH  21  24
ATOM     24  S   UNL d   1      58.543  -0.851  29.911  0.00  0.00     0.271 S 
ATOM     25  O   UNL d   1      57.980  -1.320  29.541  0.00  0.00    -0.200 OA
ATOM     26  O   UNL d   1      59.109  -0.379  30.284  0.00  0.00    -0.200 OA
BRANCH  24  27
ATOM     27  N   UNL d   1      59.092  -1.047  29.331  0.00  0.00    -0.226 N 
ATOM     28  C   UNL d   1      59.788  -0.617  29.267  0.00  0.00     0.111 C 
ATOM     29  C   UNL d   1      58.944  -1.668  28.818  0.00  0.00     0.111 C 
ENDBRANCH  24  27
ENDBRANCH  21  24
ENDBRANCH   2  18
TORSDOF 5
ENDMDL
