MODEL 1
REMARK VINA RESULT:      21.3      0.000      0.000
REMARK  4 active torsions:
REMARK  status: ('A' for Active; 'I' for Inactive)
REMARK    1  A    between atoms: C_7  and  C_2 
REMARK    2  A    between atoms: C_6  and  C_3 
REMARK    3  A    between atoms: C_11  and  C_6 
REMARK    4  A    between atoms: N_10  and  C_9 
ROOT
ATOM      1  N   UNL d   1      13.185  13.241  -3.894  0.00  0.00    -0.220 NA
ATOM      2  C   UNL d   1      13.089  13.764  -4.531  0.00  0.00     0.161 A 
ATOM      3  C   UNL d   1      13.183  12.474  -4.201  0.00  0.00     0.146 A 
ATOM      4  O   UNL d   1      13.030  13.313  -5.223  0.00  0.00    -0.257 OA
ATOM      5  C   UNL d   1      13.087  12.519  -5.019  0.00  0.00     0.319 A 
ATOM      6  O   UNL d   1      13.056  11.871  -5.537  0.00  0.00    -0.257 OA
ENDROOT
BRANCH   3   7
ATOM      7  C   UNL d   1      13.263  11.780  -3.762  0.00  0.00     0.025 C 
BRANCH   7   8
ATOM      8  C   UNL d   1      13.519  11.816  -2.968  0.00  0.00     0.002 A 
ATOM      9  C   UNL d   1      12.967  11.785  -2.365  0.00  0.00     0.002 A 
ATOM     10  C   UNL d   1      13.205  11.819  -1.581  0.00  0.00     0.018 A 
ATOM     11  C   UNL d   1      14.016  11.885  -1.405  0.00  0.00     0.064 A 
ATOM     12  C   UNL d   1      14.573  11.915  -2.016  0.00  0.00     0.018 A 
ATOM     13  C   UNL d   1      14.323  11.881  -2.796  0.00  0.00     0.002 A 
BRANCH  11  14
ATOM     14  N   UNL d   1      14.266  11.919  -0.625  0.00  0.00    -0.301 N 
ATOM     15  C   UNL d   1      15.057  12.051  -0.445  0.00  0.00     0.100 C 
ATOM     16  C   UNL d   1      13.717  11.820  -0.014  0.00  0.00     0.100 C 
ENDBRANCH  11  14
ENDBRANCH   7   8
ENDBRANCH   3   7
BRANCH   2  17
ATOM     17  C   UNL d   1      13.060  14.577  -4.481  0.00  0.00     0.058 C 
ATOM     18  C   UNL d   1      13.017  15.031  -5.156  0.00  0.00     0.008 C 
ATOM     19  C   UNL d   1      13.027  15.395  -4.512  0.00  0.00     0.008 C 
ATOM     20  C   UNL d   1      13.074  14.943  -3.741  0.00  0.00     0.008 C 
ENDBRANCH   2  17
TORSDOF 4
ENDMDL
