MODEL 1
REMARK VINA RESULT:      47.1      0.000      0.000
REMARK  2 active torsions:
REMARK  status: ('A' for Active; 'I' for Inactive)
REMARK    1  A    between atoms: C_7  and  C_1 
REMARK    2  A    between atoms: S_13  and  C_5 
ROOT
ATOM      1  C   UNL d   1      14.277  13.572  -2.025  0.00  0.00     0.025 A 
ATOM      2  C   UNL d   1      13.975  12.806  -2.064  0.00  0.00     0.106 A 
ATOM      3  C   UNL d   1      14.165  14.087  -2.662  0.00  0.00     0.092 A 
ATOM      4  N   UNL d   1      13.456  13.068  -3.366  0.00  0.00    -0.218 NA
ATOM      5  C   UNL d   1      13.755  13.836  -3.332  0.00  0.00     0.118 A 
ATOM      6  C   UNL d   1      13.565  12.554  -2.734  0.00  0.00     0.194 A 
ATOM      7  C   UNL d   1      14.086  12.289  -1.427  0.00  0.00     0.104 C 
ATOM      8  C   UNL d   1      14.466  14.850  -2.621  0.00  0.00     0.103 C 
ATOM      9  N   UNL d   1      14.195  11.781  -0.802  0.00  0.00    -0.191 NA
ATOM     10  N   UNL d   1      14.762  15.607  -2.586  0.00  0.00    -0.191 NA
ATOM     11  N   UNL d   1      13.266  11.785  -2.768  0.00  0.00    -0.126 N 
ENDROOT
BRANCH   1  12
ATOM     12  C   UNL d   1      14.683  13.821  -1.361  0.00  0.00     0.012 A 
ATOM     13  C   UNL d   1      15.395  13.458  -1.150  0.00  0.00     0.058 A 
ATOM     14 CL   UNL d   1      15.690  12.847  -1.611  0.00  0.00    -0.082 Cl
ATOM     15  C   UNL d   1      15.811  13.714  -0.470  0.00  0.00     0.011 A 
ATOM     16  C   UNL d   1      15.507  14.327  -0.014  0.00  0.00     0.001 A 
ATOM     17  C   UNL d   1      14.801  14.690  -0.220  0.00  0.00     0.000 A 
ATOM     18  C   UNL d   1      14.385  14.435  -0.899  0.00  0.00     0.001 A 
ENDBRANCH   1  12
BRANCH   5  19
ATOM     19  S   UNL d   1      13.647  14.356  -3.967  0.00  0.00    -0.093 SA
ATOM     20  C   UNL d   1      12.958  14.323  -4.421  0.00  0.00     0.076 C 
ENDBRANCH   5  19
TORSDOF 2
ENDMDL
MODEL 2
REMARK VINA RESULT:      48.3      1.343      3.398
REMARK  2 active torsions:
REMARK  status: ('A' for Active; 'I' for Inactive)
REMARK    1  A    between atoms: C_7  and  C_1 
REMARK    2  A    between atoms: S_13  and  C_5 
ROOT
ATOM      1  C   UNL d   1      14.074  13.555  -2.569  0.00  0.00     0.025 A 
ATOM      2  C   UNL d   1      13.965  14.349  -2.762  0.00  0.00     0.106 A 
ATOM      3  C   UNL d   1      14.514  13.354  -1.899  0.00  0.00     0.092 A 
ATOM      4  N   UNL d   1      14.728  14.739  -1.622  0.00  0.00    -0.218 NA
ATOM      5  C   UNL d   1      14.840  13.946  -1.425  0.00  0.00     0.118 A 
ATOM      6  C   UNL d   1      14.291  14.940  -2.288  0.00  0.00     0.194 A 
ATOM      7  C   UNL d   1      13.525  14.551  -3.434  0.00  0.00     0.104 C 
ATOM      8  C   UNL d   1      14.622  12.563  -1.708  0.00  0.00     0.103 C 
ATOM      9  N   UNL d   1      13.093  14.750  -4.093  0.00  0.00    -0.191 NA
ATOM     10  N   UNL d   1      14.732  11.780  -1.515  0.00  0.00    -0.191 NA
ATOM     11  N   UNL d   1      14.178  15.734  -2.486  0.00  0.00    -0.126 N 
ENDROOT
BRANCH   1  12
ATOM     12  C   UNL d   1      13.751  12.969  -3.039  0.00  0.00     0.012 A 
ATOM     13  C   UNL d   1      13.277  12.382  -2.701  0.00  0.00     0.058 A 
ATOM     14 CL   UNL d   1      13.134  12.392  -1.894  0.00  0.00    -0.082 Cl
ATOM     15  C   UNL d   1      12.946  11.782  -3.182  0.00  0.00     0.011 A 
ATOM     16  C   UNL d   1      13.095  11.780  -3.991  0.00  0.00     0.001 A 
ATOM     17  C   UNL d   1      13.564  12.361  -4.330  0.00  0.00     0.000 A 
ATOM     18  C   UNL d   1      13.895  12.961  -3.850  0.00  0.00     0.001 A 
ENDBRANCH   1  12
BRANCH   5  19
ATOM     19  S   UNL d   1      15.279  13.739  -0.754  0.00  0.00    -0.093 SA
ATOM     20  C   UNL d   1      15.163  14.137  -0.040  0.00  0.00     0.076 C 
ENDBRANCH   5  19
TORSDOF 2
ENDMDL
MODEL 3
REMARK VINA RESULT:      49.2      1.359      2.703
REMARK  2 active torsions:
REMARK  status: ('A' for Active; 'I' for Inactive)
REMARK    1  A    between atoms: C_7  and  C_1 
REMARK    2  A    between atoms: S_13  and  C_5 
ROOT
ATOM      1  C   UNL d   1      14.425  13.553  -1.830  0.00  0.00     0.025 A 
ATOM      2  C   UNL d   1      14.847  13.355  -1.150  0.00  0.00     0.106 A 
ATOM      3  C   UNL d   1      14.359  14.346  -2.053  0.00  0.00     0.092 A 
ATOM      4  N   UNL d   1      15.136  14.733  -0.919  0.00  0.00    -0.218 NA
ATOM      5  C   UNL d   1      14.714  14.936  -1.598  0.00  0.00     0.118 A 
ATOM      6  C   UNL d   1      15.202  13.945  -0.695  0.00  0.00     0.194 A 
ATOM      7  C   UNL d   1      14.913  12.561  -0.926  0.00  0.00     0.104 C 
ATOM      8  C   UNL d   1      13.938  14.542  -2.730  0.00  0.00     0.103 C 
ATOM      9  N   UNL d   1      14.979  11.781  -0.705  0.00  0.00    -0.191 NA
ATOM     10  N   UNL d   1      13.522  14.741  -3.401  0.00  0.00    -0.191 NA
ATOM     11  N   UNL d   1      15.624  13.741  -0.015  0.00  0.00    -0.126 N 
ENDROOT
BRANCH   1  12
ATOM     12  C   UNL d   1      14.073  12.969  -2.281  0.00  0.00     0.012 A 
ATOM     13  C   UNL d   1      13.623  12.379  -1.917  0.00  0.00     0.058 A 
ATOM     14 CL   UNL d   1      13.532  12.384  -1.102  0.00  0.00    -0.082 Cl
ATOM     15  C   UNL d   1      13.262  11.781  -2.378  0.00  0.00     0.011 A 
ATOM     16  C   UNL d   1      13.359  11.784  -3.195  0.00  0.00     0.001 A 
ATOM     17  C   UNL d   1      13.805  12.367  -3.561  0.00  0.00     0.000 A 
ATOM     18  C   UNL d   1      14.165  12.965  -3.099  0.00  0.00     0.001 A 
ENDBRANCH   1  12
BRANCH   5  19
ATOM     19  S   UNL d   1      14.645  15.729  -1.826  0.00  0.00    -0.093 SA
ATOM     20  C   UNL d   1      15.149  16.301  -1.508  0.00  0.00     0.076 C 
ENDBRANCH   5  19
TORSDOF 2
ENDMDL
