MODEL 1
REMARK VINA RESULT:      -1.8      0.000      0.000
REMARK  3 active torsions:
REMARK  status: ('A' for Active; 'I' for Inactive)
REMARK    1  A    between atoms: S_3  and  N_1 
REMARK    2  A    between atoms: C_7  and  C_4 
REMARK    3  A    between atoms: C_11  and  C_5 
ROOT
ATOM      1  N   UNL d   1     -41.857-122.055 -52.642  0.00  0.00    -0.155 N 
ATOM      2  N   UNL d   1     -41.929-122.043 -51.825  0.00  0.00    -0.156 NA
ATOM      3  C   UNL d   1     -41.625-122.823 -52.880  0.00  0.00     0.102 A 
ATOM      4  C   UNL d   1     -41.740-122.810 -51.545  0.00  0.00     0.104 A 
ATOM      5  C   UNL d   1     -41.557-123.275 -52.198  0.00  0.00     0.041 A 
ENDROOT
BRANCH   4   6
ATOM      6  C   UNL d   1     -41.738-123.058 -50.750  0.00  0.00     0.019 A 
ATOM      7  C   UNL d   1     -42.359-122.826 -50.243  0.00  0.00     0.002 A 
ATOM      8  C   UNL d   1     -42.359-123.074 -49.445  0.00  0.00     0.000 A 
ATOM      9  C   UNL d   1     -41.743-123.549 -49.158  0.00  0.00     0.000 A 
ATOM     10  C   UNL d   1     -41.140-123.768 -49.674  0.00  0.00     0.000 A 
ATOM     11  C   UNL d   1     -41.748-123.783 -48.396  0.00  0.00     0.000 C 
ATOM     12  C   UNL d   1     -41.123-123.534 -50.463  0.00  0.00     0.002 A 
ENDBRANCH   4   6
BRANCH   1  13
ATOM     13  S   UNL d   1     -41.999-121.389 -53.148  0.00  0.00     0.266 S 
ATOM     14  O   UNL d   1     -42.104-120.721 -53.640  0.00  0.00    -0.203 OA
ATOM     15  O   UNL d   1     -42.762-121.649 -53.289  0.00  0.00    -0.203 OA
ATOM     16  C   UNL d   1     -41.193-121.131 -52.987  0.00  0.00     0.165 C 
ENDBRANCH   1  13
BRANCH   3  17
ATOM     17  C   UNL d   1     -41.491-123.066 -53.670  0.00  0.00     0.048 A 
ATOM     18  S   UNL d   1     -41.681-123.817 -53.979  0.00  0.00    -0.085 SA
ATOM     19  C   UNL d   1     -41.449-123.798 -54.774  0.00  0.00     0.035 A 
ATOM     20  C   UNL d   1     -41.132-123.082 -54.960  0.00  0.00     0.007 A 
ATOM     21  C   UNL d   1     -41.155-122.622 -54.278  0.00  0.00     0.009 A 
ENDBRANCH   3  17
TORSDOF 3
ENDMDL
