MODEL 1
REMARK VINA RESULT:      53.8      0.000      0.000
REMARK  9 active torsions:
REMARK  status: ('A' for Active; 'I' for Inactive)
REMARK    1  A    between atoms: P_4  and  C_1 
REMARK    2  A    between atoms: N_7  and  C_3 
REMARK    3  A    between atoms: O_10  and  P_4 
REMARK    4  A    between atoms: O_11  and  P_4 
REMARK    5  A    between atoms: C_8  and  C_5 
REMARK    6  A    between atoms: C_14  and  N_7 
REMARK    7  A    between atoms: C_21  and  O_10 
REMARK    8  A    between atoms: C_20  and  O_11 
REMARK    9  A    between atoms: C_19  and  C_14 
ROOT
ATOM      1  C   UNL d   1     -54.865-101.656 -43.702  0.00  0.00     0.205 A 
ATOM      2  N   UNL d   1     -54.878-102.042 -42.981  0.00  0.00    -0.211 NA
ATOM      3  C   UNL d   1     -54.762-100.850 -43.576  0.00  0.00     0.209 A 
ATOM      4  C   UNL d   1     -54.784-101.490 -42.413  0.00  0.00     0.184 A 
ATOM      5  O   UNL d   1     -54.711-100.751 -42.753  0.00  0.00    -0.270 OA
ENDROOT
BRANCH   1   6
ATOM      6  P   UNL d   1     -54.944-102.016 -44.464  0.00  0.00     0.395 P 
ATOM      7  O   UNL d   1     -55.021-102.761 -44.119  0.00  0.00    -0.251 OA
BRANCH   6   8
ATOM      8  O   UNL d   1     -55.020-102.355 -45.211  0.00  0.00    -0.263 OA
BRANCH   8   9
ATOM      9  C   UNL d   1     -55.691-102.747 -45.431  0.00  0.00     0.126 C 
ATOM     10  C   UNL d   1     -55.850-102.864 -46.210  0.00  0.00     0.029 C 
ENDBRANCH   8   9
ENDBRANCH   6   8
BRANCH   6  11
ATOM     11  O   UNL d   1     -54.864-101.247 -44.800  0.00  0.00    -0.263 OA
BRANCH  11  12
ATOM     12  C   UNL d   1     -54.776-101.184 -45.607  0.00  0.00     0.126 C 
ATOM     13  C   UNL d   1     -55.407-101.436 -46.069  0.00  0.00     0.029 C 
ENDBRANCH  11  12
ENDBRANCH   6  11
ENDBRANCH   1   6
BRANCH   3  14
ATOM     14  N   UNL d   1     -54.730-100.324 -44.232  0.00  0.00    -0.219 NA
BRANCH  14  15
ATOM     15  C   UNL d   1     -54.914 -99.524 -44.126  0.00  0.00     0.101 C 
BRANCH  15  16
ATOM     16  C   UNL d   1     -55.700 -99.273 -44.192  0.00  0.00     0.019 A 
ATOM     17  C   UNL d   1     -56.033 -99.113 -44.948  0.00  0.00     0.002 A 
ATOM     18  C   UNL d   1     -56.811 -98.866 -45.003  0.00  0.00     0.000 A 
ATOM     19  C   UNL d   1     -57.286 -98.768 -44.321  0.00  0.00     0.000 A 
ATOM     20  C   UNL d   1     -56.947 -98.931 -43.557  0.00  0.00     0.000 A 
ATOM     21  C   UNL d   1     -56.156 -99.180 -43.519  0.00  0.00     0.002 A 
ENDBRANCH  15  16
ENDBRANCH  14  15
ENDBRANCH   3  14
BRANCH   4  22
ATOM     22  C   UNL d   1     -54.769-101.677 -41.609  0.00  0.00     0.042 A 
ATOM     23  C   UNL d   1     -54.790-101.094 -41.035  0.00  0.00     0.006 A 
ATOM     24  C   UNL d   1     -54.774-101.294 -40.241  0.00  0.00     0.030 A 
ATOM     25  C   UNL d   1     -54.737-102.086 -39.998  0.00  0.00     0.140 A 
ATOM     26  C   UNL d   1     -54.715-102.696 -40.588  0.00  0.00     0.030 A 
ATOM     27  F   UNL d   1     -54.720-102.317 -39.211  0.00  0.00    -0.204 F 
ATOM     28  C   UNL d   1     -54.731-102.484 -41.383  0.00  0.00     0.006 A 
ENDBRANCH   4  22
TORSDOF 9
ENDMDL
MODEL 2
REMARK VINA RESULT:      54.6      0.849      1.499
REMARK  9 active torsions:
REMARK  status: ('A' for Active; 'I' for Inactive)
REMARK    1  A    between atoms: P_4  and  C_1 
REMARK    2  A    between atoms: N_7  and  C_3 
REMARK    3  A    between atoms: O_10  and  P_4 
REMARK    4  A    between atoms: O_11  and  P_4 
REMARK    5  A    between atoms: C_8  and  C_5 
REMARK    6  A    between atoms: C_14  and  N_7 
REMARK    7  A    between atoms: C_21  and  O_10 
REMARK    8  A    between atoms: C_20  and  O_11 
REMARK    9  A    between atoms: C_19  and  C_14 
ROOT
ATOM      1  C   UNL d   1     -55.402-101.214 -43.300  0.00  0.00     0.205 A 
ATOM      2  N   UNL d   1     -55.196-101.727 -42.696  0.00  0.00    -0.211 NA
ATOM      3  C   UNL d   1     -55.652-100.500 -42.975  0.00  0.00     0.209 A 
ATOM      4  C   UNL d   1     -55.314-101.344 -42.007  0.00  0.00     0.184 A 
ATOM      5  O   UNL d   1     -55.594-100.590 -42.151  0.00  0.00    -0.270 OA
ENDROOT
BRANCH   1   6
ATOM      6  P   UNL d   1     -55.367-101.378 -44.129  0.00  0.00     0.395 P 
ATOM      7  O   UNL d   1     -54.820-100.771 -44.240  0.00  0.00    -0.251 OA
BRANCH   6   8
ATOM      8  O   UNL d   1     -55.342-101.546 -44.935  0.00  0.00    -0.263 OA
BRANCH   8   9
ATOM      9  C   UNL d   1     -54.714-101.330 -45.393  0.00  0.00     0.126 C 
ATOM     10  C   UNL d   1     -54.811-100.788 -45.977  0.00  0.00     0.029 C 
ENDBRANCH   8   9
ENDBRANCH   6   8
BRANCH   6  11
ATOM     11  O   UNL d   1     -55.927-101.994 -43.998  0.00  0.00    -0.263 OA
BRANCH  11  12
ATOM     12  C   UNL d   1     -55.721-102.754 -44.203  0.00  0.00     0.126 C 
ATOM     13  C   UNL d   1     -55.218-102.841 -44.847  0.00  0.00     0.029 C 
ENDBRANCH  11  12
ENDBRANCH   6  11
ENDBRANCH   1   6
BRANCH   3  14
ATOM     14  N   UNL d   1     -55.896 -99.874 -43.480  0.00  0.00    -0.219 NA
BRANCH  14  15
ATOM     15  C   UNL d   1     -56.396 -99.282 -43.187  0.00  0.00     0.101 C 
BRANCH  15  16
ATOM     16  C   UNL d   1     -57.100 -99.108 -43.585  0.00  0.00     0.019 A 
ATOM     17  C   UNL d   1     -57.826 -99.049 -43.163  0.00  0.00     0.002 A 
ATOM     18  C   UNL d   1     -58.515 -98.877 -43.566  0.00  0.00     0.000 A 
ATOM     19  C   UNL d   1     -58.518 -98.757 -44.394  0.00  0.00     0.000 A 
ATOM     20  C   UNL d   1     -57.783 -98.817 -44.820  0.00  0.00     0.000 A 
ATOM     21  C   UNL d   1     -57.092 -98.992 -44.395  0.00  0.00     0.002 A 
ENDBRANCH  15  16
ENDBRANCH  14  15
ENDBRANCH   3  14
BRANCH   4  22
ATOM     22  C   UNL d   1     -55.165-101.692 -41.274  0.00  0.00     0.042 A 
ATOM     23  C   UNL d   1     -55.117-102.506 -41.190  0.00  0.00     0.006 A 
ATOM     24  C   UNL d   1     -54.968-102.837 -40.456  0.00  0.00     0.030 A 
ATOM     25  C   UNL d   1     -54.862-102.364 -39.784  0.00  0.00     0.140 A 
ATOM     26  C   UNL d   1     -54.911-101.521 -39.864  0.00  0.00     0.030 A 
ATOM     27  F   UNL d   1     -54.712-102.668 -39.036  0.00  0.00    -0.204 F 
ATOM     28  C   UNL d   1     -55.061-101.197 -40.605  0.00  0.00     0.006 A 
ENDBRANCH   4  22
TORSDOF 9
ENDMDL
