MODEL 1
REMARK VINA RESULT:      74.0      0.000      0.000
REMARK  5 active torsions:
REMARK  status: ('A' for Active; 'I' for Inactive)
REMARK       I    between atoms: C_7  and  N_1 
REMARK    1  A    between atoms: C_11  and  C_3 
REMARK    2  A    between atoms: C_14  and  C_5 
REMARK    3  A    between atoms: C_18  and  C_7 
REMARK    4  A    between atoms: C_17  and  O_19 
REMARK    5  A    between atoms: O_19  and  C_18 
ROOT
ATOM      1  N   UNL d   1      14.002  13.628  -3.011  0.00  0.00    -0.193 N 
ATOM      2  N   UNL d   1      14.209  13.598  -2.213  0.00  0.00    -0.162 NA
ATOM      3  C   UNL d   1      14.170  12.805  -1.977  0.00  0.00     0.109 A 
ATOM      4  C   UNL d   1      13.836  12.860  -3.263  0.00  0.00     0.088 A 
ATOM      5  C   UNL d   1      13.942  12.356  -2.620  0.00  0.00     0.041 A 
ATOM      6  C   UNL d   1      13.942  14.258  -3.541  0.00  0.00     0.305 C 
ATOM      7  O   UNL d   1      13.717  14.120  -4.323  0.00  0.00    -0.263 OA
ENDROOT
BRANCH   4   8
ATOM      8  C   UNL d   1      13.605  12.605  -4.012  0.00  0.00     0.018 A 
ATOM      9  C   UNL d   1      13.961  12.924  -4.679  0.00  0.00     0.004 A 
ATOM     10  C   UNL d   1      13.731  12.670  -5.433  0.00  0.00     0.030 A 
ATOM     11  C   UNL d   1      13.151  12.102  -5.506  0.00  0.00     0.140 A 
ATOM     12  C   UNL d   1      12.792  11.780  -4.831  0.00  0.00     0.030 A 
ATOM     13  F   UNL d   1      12.923  11.850  -6.264  0.00  0.00    -0.204 F 
ATOM     14  C   UNL d   1      13.019  12.031  -4.090  0.00  0.00     0.004 A 
ENDBRANCH   4   8
BRANCH   6  15
ATOM     15  C   UNL d   1      14.108  15.026  -3.289  0.00  0.00     0.185 C 
BRANCH  15  16
ATOM     16  O   UNL d   1      14.120  15.645  -3.834  0.00  0.00    -0.300 OA
BRANCH  16  17
ATOM     17  C   UNL d   1      14.600  16.303  -3.701  0.00  0.00     0.100 A 
ATOM     18  C   UNL d   1      14.664  16.891  -4.276  0.00  0.00     0.029 A 
ATOM     19  C   UNL d   1      15.144  17.549  -4.142  0.00  0.00     0.059 A 
ATOM     20  C   UNL d   1      14.249  16.820  -4.981  0.00  0.00     0.021 A 
ATOM     21  C   UNL d   1      15.209  18.135  -4.714  0.00  0.00     0.265 A 
ATOM     22  C   UNL d   1      15.560  17.618  -3.433  0.00  0.00     0.005 A 
ATOM     23  O   UNL d   1      15.689  18.792  -4.580  0.00  0.00    -0.267 OA
ATOM     24  N   UNL d   1      14.794  18.065  -5.423  0.00  0.00    -0.270 N 
ATOM     25  C   UNL d   1      14.314  17.408  -5.557  0.00  0.00     0.083 A 
ATOM     26  C   UNL d   1      14.862  18.662  -6.002  0.00  0.00     0.102 C 
ATOM     27  C   UNL d   1      15.496  17.030  -2.857  0.00  0.00     0.002 A 
ATOM     28  C   UNL d   1      15.016  16.373  -2.991  0.00  0.00     0.025 A 
ENDBRANCH  16  17
ENDBRANCH  15  16
ENDBRANCH   6  15
BRANCH   3  29
ATOM     29  C   UNL d   1      14.338  12.554  -1.219  0.00  0.00     0.049 A 
ATOM     30  S   UNL d   1      13.886  11.987  -0.807  0.00  0.00    -0.085 SA
ATOM     31  C   UNL d   1      14.225  11.883  -0.072  0.00  0.00     0.035 A 
ATOM     32  C   UNL d   1      14.882  12.375  -0.016  0.00  0.00     0.007 A 
ATOM     33  C   UNL d   1      14.953  12.789  -0.722  0.00  0.00     0.009 A 
ENDBRANCH   3  29
TORSDOF 5
ENDMDL
MODEL 2
REMARK VINA RESULT:      75.3      1.449      2.161
REMARK  5 active torsions:
REMARK  status: ('A' for Active; 'I' for Inactive)
REMARK       I    between atoms: C_7  and  N_1 
REMARK    1  A    between atoms: C_11  and  C_3 
REMARK    2  A    between atoms: C_14  and  C_5 
REMARK    3  A    between atoms: C_18  and  C_7 
REMARK    4  A    between atoms: C_17  and  O_19 
REMARK    5  A    between atoms: O_19  and  C_18 
ROOT
ATOM      1  N   UNL d   1      14.079  13.445  -2.957  0.00  0.00    -0.193 N 
ATOM      2  N   UNL d   1      14.225  13.339  -2.152  0.00  0.00    -0.162 NA
ATOM      3  C   UNL d   1      13.978  12.573  -1.955  0.00  0.00     0.109 A 
ATOM      4  C   UNL d   1      13.745  12.750  -3.252  0.00  0.00     0.088 A 
ATOM      5  C   UNL d   1      13.685  12.215  -2.628  0.00  0.00     0.041 A 
ATOM      6  C   UNL d   1      14.208  14.087  -3.461  0.00  0.00     0.305 C 
ATOM      7  O   UNL d   1      14.002  14.033  -4.259  0.00  0.00    -0.263 OA
ENDROOT
BRANCH   4   8
ATOM      8  C   UNL d   1      13.503  12.584  -4.022  0.00  0.00     0.018 A 
ATOM      9  C   UNL d   1      13.756  13.060  -4.641  0.00  0.00     0.004 A 
ATOM     10  C   UNL d   1      13.515  12.895  -5.416  0.00  0.00     0.030 A 
ATOM     11  C   UNL d   1      13.026  12.260  -5.558  0.00  0.00     0.140 A 
ATOM     12  C   UNL d   1      12.770  11.779  -4.931  0.00  0.00     0.030 A 
ATOM     13  F   UNL d   1      12.785  12.098  -6.336  0.00  0.00    -0.204 F 
ATOM     14  C   UNL d   1      13.008  11.942  -4.169  0.00  0.00     0.004 A 
ENDBRANCH   4   8
BRANCH   6  15
ATOM     15  C   UNL d   1      14.541  14.781  -3.167  0.00  0.00     0.185 C 
BRANCH  15  16
ATOM     16  O   UNL d   1      14.179  15.508  -3.315  0.00  0.00    -0.300 OA
BRANCH  16  17
ATOM     17  C   UNL d   1      14.483  16.196  -2.978  0.00  0.00     0.100 A 
ATOM     18  C   UNL d   1      14.849  16.168  -2.238  0.00  0.00     0.029 A 
ATOM     19  C   UNL d   1      15.154  16.857  -1.902  0.00  0.00     0.059 A 
ATOM     20  C   UNL d   1      14.908  15.452  -1.840  0.00  0.00     0.021 A 
ATOM     21  C   UNL d   1      15.518  16.830  -1.166  0.00  0.00     0.265 A 
ATOM     22  C   UNL d   1      15.093  17.574  -2.305  0.00  0.00     0.005 A 
ATOM     23  O   UNL d   1      15.822  17.518  -0.830  0.00  0.00    -0.267 OA
ATOM     24  N   UNL d   1      15.579  16.112  -0.763  0.00  0.00    -0.270 N 
ATOM     25  C   UNL d   1      15.274  15.423  -1.100  0.00  0.00     0.083 A 
ATOM     26  C   UNL d   1      15.949  16.087  -0.016  0.00  0.00     0.102 C 
ATOM     27  C   UNL d   1      14.727  17.604  -3.044  0.00  0.00     0.002 A 
ATOM     28  C   UNL d   1      14.423  16.915  -3.381  0.00  0.00     0.025 A 
ENDBRANCH  16  17
ENDBRANCH  15  16
ENDBRANCH   6  15
BRANCH   3  29
ATOM     29  C   UNL d   1      14.035  12.265  -1.201  0.00  0.00     0.049 A 
ATOM     30  S   UNL d   1      13.376  12.086  -0.724  0.00  0.00    -0.085 SA
ATOM     31  C   UNL d   1      13.654  11.791  -0.015  0.00  0.00     0.035 A 
ATOM     32  C   UNL d   1      14.476  11.782  -0.041  0.00  0.00     0.007 A 
ATOM     33  C   UNL d   1      14.713  12.073  -0.772  0.00  0.00     0.009 A 
ENDBRANCH   3  29
TORSDOF 5
ENDMDL
