MODEL 1
REMARK VINA RESULT:      -7.5      0.000      0.000
REMARK  6 active torsions:
REMARK  status: ('A' for Active; 'I' for Inactive)
REMARK    1  A    between atoms: C_2  and  C_4 
REMARK    2  A    between atoms: C_3  and  C_2 
REMARK       I    between atoms: N_8  and  C_3 
REMARK    3  A    between atoms: C_5  and  C_9 
REMARK    4  A    between atoms: O_16  and  C_5 
REMARK    5  A    between atoms: C_15  and  N_8 
REMARK    6  A    between atoms: C_21  and  O_16 
ROOT
ATOM      1  C   UNL d   1      50.217  34.389  52.658  0.00  0.00     0.064 A 
ATOM      2  C   UNL d   1      50.211  33.839  53.279  0.00  0.00     0.007 A 
ATOM      3  C   UNL d   1      50.925  34.549  52.257  0.00  0.00     0.007 A 
ATOM      4  C   UNL d   1      51.611  33.620  53.085  0.00  0.00     0.085 A 
ATOM      5  C   UNL d   1      51.616  34.165  52.471  0.00  0.00     0.019 A 
ATOM      6  C   UNL d   1      50.906  33.455  53.492  0.00  0.00     0.019 A 
ENDROOT
BRANCH   4   7
ATOM      7  N   UNL d   1      52.306  33.236  53.299  0.00  0.00    -0.208 NA
ATOM      8  C   UNL d   1      52.566  32.578  52.872  0.00  0.00     0.281 C 
ATOM      9  O   UNL d   1      52.121  32.313  52.229  0.00  0.00    -0.265 OA
BRANCH   8  10
ATOM     10  C   UNL d   1      53.259  32.196  53.086  0.00  0.00     0.086 C 
BRANCH  10  11
ATOM     11  C   UNL d   1      53.252  31.384  53.257  0.00  0.00     0.144 A 
ATOM     12  C   UNL d   1      53.645  31.103  53.926  0.00  0.00     0.297 A 
ATOM     13  N   UNL d   1      53.645  30.300  54.105  0.00  0.00    -0.204 NA
ATOM     14  O   UNL d   1      54.042  31.637  54.422  0.00  0.00    -0.264 OA
ATOM     15  C   UNL d   1      53.247  29.781  53.605  0.00  0.00     0.123 A 
ATOM     16  C   UNL d   1      52.854  30.061  52.936  0.00  0.00     0.120 A 
ATOM     17  N   UNL d   1      52.858  30.862  52.763  0.00  0.00    -0.237 NA
ENDBRANCH  10  11
ENDBRANCH   8  10
ENDBRANCH   4   7
BRANCH   1  18
ATOM     18  C   UNL d   1      49.516  34.775  52.445  0.00  0.00     0.300 C 
ATOM     19  O   UNL d   1      49.193  34.659  51.695  0.00  0.00    -0.259 OA
BRANCH  18  20
ATOM     20  O   UNL d   1      49.139  35.275  52.979  0.00  0.00    -0.271 OA
BRANCH  20  21
ATOM     21  C   UNL d   1      48.441  35.648  52.767  0.00  0.00     0.126 C 
ATOM     22  C   UNL d   1      48.028  36.092  53.317  0.00  0.00     0.029 C 
ENDBRANCH  20  21
ENDBRANCH  18  20
ENDBRANCH   1  18
TORSDOF 6
ENDMDL
MODEL 2
REMARK VINA RESULT:      -7.5      1.593      2.127
REMARK  6 active torsions:
REMARK  status: ('A' for Active; 'I' for Inactive)
REMARK    1  A    between atoms: C_2  and  C_4 
REMARK    2  A    between atoms: C_3  and  C_2 
REMARK       I    between atoms: N_8  and  C_3 
REMARK    3  A    between atoms: C_5  and  C_9 
REMARK    4  A    between atoms: O_16  and  C_5 
REMARK    5  A    between atoms: C_15  and  N_8 
REMARK    6  A    between atoms: C_21  and  O_16 
ROOT
ATOM      1  C   UNL d   1      50.231  34.283  52.611  0.00  0.00     0.064 A 
ATOM      2  C   UNL d   1      50.929  34.495  52.217  0.00  0.00     0.007 A 
ATOM      3  C   UNL d   1      50.237  33.646  53.143  0.00  0.00     0.007 A 
ATOM      4  C   UNL d   1      51.619  33.438  52.889  0.00  0.00     0.085 A 
ATOM      5  C   UNL d   1      50.929  33.229  53.279  0.00  0.00     0.019 A 
ATOM      6  C   UNL d   1      51.622  34.074  52.355  0.00  0.00     0.019 A 
ENDROOT
BRANCH   4   7
ATOM      7  N   UNL d   1      52.313  33.017  53.027  0.00  0.00    -0.208 NA
ATOM      8  C   UNL d   1      52.737  33.132  53.726  0.00  0.00     0.281 C 
ATOM      9  O   UNL d   1      52.458  33.673  54.284  0.00  0.00    -0.265 OA
BRANCH   8  10
ATOM     10  C   UNL d   1      53.428  32.713  53.861  0.00  0.00     0.086 C 
BRANCH  10  11
ATOM     11  C   UNL d   1      54.037  33.045  54.317  0.00  0.00     0.144 A 
ATOM     12  C   UNL d   1      54.806  33.065  54.019  0.00  0.00     0.297 A 
ATOM     13  N   UNL d   1      55.417  33.392  54.463  0.00  0.00    -0.204 NA
ATOM     14  O   UNL d   1      54.963  32.751  53.268  0.00  0.00    -0.264 OA
ATOM     15  C   UNL d   1      55.249  33.700  55.207  0.00  0.00     0.123 A 
ATOM     16  C   UNL d   1      54.480  33.680  55.505  0.00  0.00     0.120 A 
ATOM     17  N   UNL d   1      53.875  33.353  55.059  0.00  0.00    -0.237 NA
ENDBRANCH  10  11
ENDBRANCH   8  10
ENDBRANCH   4   7
BRANCH   1  18
ATOM     18  C   UNL d   1      49.535  34.708  52.472  0.00  0.00     0.300 C 
ATOM     19  O   UNL d   1      49.149  34.641  51.746  0.00  0.00    -0.259 OA
BRANCH  18  20
ATOM     20  O   UNL d   1      49.224  35.199  53.055  0.00  0.00    -0.271 OA
BRANCH  20  21
ATOM     21  C   UNL d   1      48.534  35.618  52.912  0.00  0.00     0.126 C 
ATOM     22  C   UNL d   1      48.196  36.067  53.507  0.00  0.00     0.029 C 
ENDBRANCH  20  21
ENDBRANCH  18  20
ENDBRANCH   1  18
TORSDOF 6
ENDMDL
MODEL 3
REMARK VINA RESULT:      -7.2      2.056      5.256
REMARK  6 active torsions:
REMARK  status: ('A' for Active; 'I' for Inactive)
REMARK    1  A    between atoms: C_2  and  C_4 
REMARK    2  A    between atoms: C_3  and  C_2 
REMARK       I    between atoms: N_8  and  C_3 
REMARK    3  A    between atoms: C_5  and  C_9 
REMARK    4  A    between atoms: O_16  and  C_5 
REMARK    5  A    between atoms: C_15  and  N_8 
REMARK    6  A    between atoms: C_21  and  O_16 
ROOT
ATOM      1  C   UNL d   1      52.889  33.467  53.284  0.00  0.00     0.064 A 
ATOM      2  C   UNL d   1      52.322  32.936  52.994  0.00  0.00     0.007 A 
ATOM      3  C   UNL d   1      52.781  34.283  53.177  0.00  0.00     0.007 A 
ATOM      4  C   UNL d   1      51.556  34.038  52.501  0.00  0.00     0.085 A 
ATOM      5  C   UNL d   1      52.117  34.563  52.787  0.00  0.00     0.019 A 
ATOM      6  C   UNL d   1      51.657  33.220  52.603  0.00  0.00     0.019 A 
ENDROOT
BRANCH   4   7
ATOM      7  N   UNL d   1      50.889  34.321  52.109  0.00  0.00    -0.208 NA
ATOM      8  C   UNL d   1      50.163  34.361  52.501  0.00  0.00     0.281 C 
ATOM      9  O   UNL d   1      50.114  34.115  53.287  0.00  0.00    -0.265 OA
BRANCH   8  10
ATOM     10  C   UNL d   1      49.500  34.644  52.110  0.00  0.00     0.086 C 
BRANCH  10  11
ATOM     11  C   UNL d   1      48.970  35.149  52.499  0.00  0.00     0.144 A 
ATOM     12  C   UNL d   1      48.279  35.389  52.117  0.00  0.00     0.297 A 
ATOM     13  N   UNL d   1      47.745  35.890  52.493  0.00  0.00    -0.204 NA
ATOM     14  O   UNL d   1      48.122  35.121  51.347  0.00  0.00    -0.264 OA
ATOM     15  C   UNL d   1      47.912  36.149  53.256  0.00  0.00     0.123 A 
ATOM     16  C   UNL d   1      48.602  35.909  53.638  0.00  0.00     0.120 A 
ATOM     17  N   UNL d   1      49.130  35.410  53.259  0.00  0.00    -0.237 NA
ENDBRANCH  10  11
ENDBRANCH   8  10
ENDBRANCH   4   7
BRANCH   1  18
ATOM     18  C   UNL d   1      53.558  33.180  53.677  0.00  0.00     0.300 C 
ATOM     19  O   UNL d   1      54.075  32.666  53.291  0.00  0.00    -0.259 OA
BRANCH  18  20
ATOM     20  O   UNL d   1      53.711  33.405  54.454  0.00  0.00    -0.271 OA
BRANCH  20  21
ATOM     21  C   UNL d   1      54.371  33.112  54.842  0.00  0.00     0.126 C 
ATOM     22  C   UNL d   1      54.579  33.406  55.577  0.00  0.00     0.029 C 
ENDBRANCH  20  21
ENDBRANCH  18  20
ENDBRANCH   1  18
TORSDOF 6
ENDMDL
MODEL 4
REMARK VINA RESULT:      -6.9      2.134      5.161
REMARK  6 active torsions:
REMARK  status: ('A' for Active; 'I' for Inactive)
REMARK    1  A    between atoms: C_2  and  C_4 
REMARK    2  A    between atoms: C_3  and  C_2 
REMARK       I    between atoms: N_8  and  C_3 
REMARK    3  A    between atoms: C_5  and  C_9 
REMARK    4  A    between atoms: O_16  and  C_5 
REMARK    5  A    between atoms: C_15  and  N_8 
REMARK    6  A    between atoms: C_21  and  O_16 
ROOT
ATOM      1  C   UNL d   1      53.060  30.245  53.502  0.00  0.00     0.064 A 
ATOM      2  C   UNL d   1      52.405  30.543  53.090  0.00  0.00     0.007 A 
ATOM      3  C   UNL d   1      53.696  30.748  53.681  0.00  0.00     0.007 A 
ATOM      4  C   UNL d   1      53.029  31.829  53.044  0.00  0.00     0.085 A 
ATOM      5  C   UNL d   1      53.677  31.534  53.452  0.00  0.00     0.019 A 
ATOM      6  C   UNL d   1      52.389  31.332  52.861  0.00  0.00     0.019 A 
ENDROOT
BRANCH   4   7
ATOM      7  N   UNL d   1      53.012  32.619  52.815  0.00  0.00    -0.208 NA
ATOM      8  C   UNL d   1      52.646  33.183  53.295  0.00  0.00     0.281 C 
ATOM      9  O   UNL d   1      52.300  32.946  54.005  0.00  0.00    -0.265 OA
BRANCH   8  10
ATOM     10  C   UNL d   1      52.630  33.970  53.065  0.00  0.00     0.086 C 
BRANCH  10  11
ATOM     11  C   UNL d   1      52.770  34.570  53.621  0.00  0.00     0.144 A 
ATOM     12  C   UNL d   1      52.220  35.179  53.711  0.00  0.00     0.297 A 
ATOM     13  N   UNL d   1      52.348  35.780  54.259  0.00  0.00    -0.204 NA
ATOM     14  O   UNL d   1      51.533  35.184  53.246  0.00  0.00    -0.264 OA
ATOM     15  C   UNL d   1      53.033  35.764  54.715  0.00  0.00     0.123 A 
ATOM     16  C   UNL d   1      53.583  35.156  54.624  0.00  0.00     0.120 A 
ATOM     17  N   UNL d   1      53.450  34.560  54.077  0.00  0.00    -0.237 NA
ENDBRANCH  10  11
ENDBRANCH   8  10
ENDBRANCH   4   7
BRANCH   1  18
ATOM     18  C   UNL d   1      53.075  29.451  53.732  0.00  0.00     0.300 C 
ATOM     19  O   UNL d   1      52.814  28.865  53.213  0.00  0.00    -0.259 OA
BRANCH  18  20
ATOM     20  O   UNL d   1      53.350  29.240  54.478  0.00  0.00    -0.271 OA
BRANCH  20  21
ATOM     21  C   UNL d   1      53.352  28.452  54.707  0.00  0.00     0.126 C 
ATOM     22  C   UNL d   1      53.479  28.252  55.490  0.00  0.00     0.029 C 
ENDBRANCH  20  21
ENDBRANCH  18  20
ENDBRANCH   1  18
TORSDOF 6
ENDMDL
MODEL 5
REMARK VINA RESULT:      -4.8      9.826     10.803
REMARK  6 active torsions:
REMARK  status: ('A' for Active; 'I' for Inactive)
REMARK    1  A    between atoms: C_2  and  C_4 
REMARK    2  A    between atoms: C_3  and  C_2 
REMARK       I    between atoms: N_8  and  C_3 
REMARK    3  A    between atoms: C_5  and  C_9 
REMARK    4  A    between atoms: O_16  and  C_5 
REMARK    5  A    between atoms: C_15  and  N_8 
REMARK    6  A    between atoms: C_21  and  O_16 
ROOT
ATOM      1  C   UNL d   1      44.559  29.912  61.661  0.00  0.00     0.064 A 
ATOM      2  C   UNL d   1      44.666  30.729  61.569  0.00  0.00     0.007 A 
ATOM      3  C   UNL d   1      44.383  29.444  60.999  0.00  0.00     0.007 A 
ATOM      4  C   UNL d   1      44.421  30.595  60.167  0.00  0.00     0.085 A 
ATOM      5  C   UNL d   1      44.315  29.787  60.257  0.00  0.00     0.019 A 
ATOM      6  C   UNL d   1      44.597  31.071  60.824  0.00  0.00     0.019 A 
ENDROOT
BRANCH   4   7
ATOM      7  N   UNL d   1      44.352  30.937  59.422  0.00  0.00    -0.208 NA
ATOM      8  C   UNL d   1      44.936  30.810  58.850  0.00  0.00     0.281 C 
ATOM      9  O   UNL d   1      45.586  30.337  59.036  0.00  0.00    -0.265 OA
BRANCH   8  10
ATOM     10  C   UNL d   1      44.866  31.152  58.109  0.00  0.00     0.086 C 
BRANCH  10  11
ATOM     11  C   UNL d   1      44.810  30.674  57.432  0.00  0.00     0.144 A 
ATOM     12  C   UNL d   1      44.611  31.014  56.707  0.00  0.00     0.297 A 
ATOM     13  N   UNL d   1      44.552  30.550  56.030  0.00  0.00    -0.204 NA
ATOM     14  O   UNL d   1      44.469  31.830  56.662  0.00  0.00    -0.264 OA
ATOM     15  C   UNL d   1      44.696  29.742  56.087  0.00  0.00     0.123 A 
ATOM     16  C   UNL d   1      44.895  29.402  56.812  0.00  0.00     0.120 A 
ATOM     17  N   UNL d   1      44.951  29.869  57.483  0.00  0.00    -0.237 NA
ENDBRANCH  10  11
ENDBRANCH   8  10
ENDBRANCH   4   7
BRANCH   1  18
ATOM     18  C   UNL d   1      44.628  29.570  62.411  0.00  0.00     0.300 C 
ATOM     19  O   UNL d   1      44.839  30.035  63.059  0.00  0.00    -0.259 OA
BRANCH  18  20
ATOM     20  O   UNL d   1      44.487  28.766  62.515  0.00  0.00    -0.271 OA
BRANCH  20  21
ATOM     21  C   UNL d   1      44.575  28.428  63.256  0.00  0.00     0.126 C 
ATOM     22  C   UNL d   1      44.317  27.662  63.392  0.00  0.00     0.029 C 
ENDBRANCH  20  21
ENDBRANCH  18  20
ENDBRANCH   1  18
TORSDOF 6
ENDMDL
MODEL 6
REMARK VINA RESULT:      -4.7     10.072     11.395
REMARK  6 active torsions:
REMARK  status: ('A' for Active; 'I' for Inactive)
REMARK    1  A    between atoms: C_2  and  C_4 
REMARK    2  A    between atoms: C_3  and  C_2 
REMARK       I    between atoms: N_8  and  C_3 
REMARK    3  A    between atoms: C_5  and  C_9 
REMARK    4  A    between atoms: O_16  and  C_5 
REMARK    5  A    between atoms: C_15  and  N_8 
REMARK    6  A    between atoms: C_21  and  O_16 
ROOT
ATOM      1  C   UNL d   1      44.782  23.928  56.193  0.00  0.00     0.064 A 
ATOM      2  C   UNL d   1      44.899  24.399  55.521  0.00  0.00     0.007 A 
ATOM      3  C   UNL d   1      44.522  24.278  56.899  0.00  0.00     0.007 A 
ATOM      4  C   UNL d   1      44.496  25.550  56.268  0.00  0.00     0.085 A 
ATOM      5  C   UNL d   1      44.380  25.084  56.933  0.00  0.00     0.019 A 
ATOM      6  C   UNL d   1      44.756  25.209  55.557  0.00  0.00     0.019 A 
ENDROOT
BRANCH   4   7
ATOM      7  N   UNL d   1      44.353  26.360  56.304  0.00  0.00    -0.208 NA
ATOM      8  C   UNL d   1      44.958  26.880  56.519  0.00  0.00     0.281 C 
ATOM      9  O   UNL d   1      45.705  26.577  56.698  0.00  0.00    -0.265 OA
BRANCH   8  10
ATOM     10  C   UNL d   1      44.814  27.686  56.554  0.00  0.00     0.086 C 
BRANCH  10  11
ATOM     11  C   UNL d   1      44.952  28.104  57.258  0.00  0.00     0.144 A 
ATOM     12  C   UNL d   1      45.042  28.924  57.234  0.00  0.00     0.297 A 
ATOM     13  N   UNL d   1      45.179  29.350  57.925  0.00  0.00    -0.204 NA
ATOM     14  O   UNL d   1      44.993  29.321  56.507  0.00  0.00    -0.264 OA
ATOM     15  C   UNL d   1      45.226  28.944  58.640  0.00  0.00     0.123 A 
ATOM     16  C   UNL d   1      45.136  28.125  58.663  0.00  0.00     0.120 A 
ATOM     17  N   UNL d   1      44.999  27.706  57.972  0.00  0.00    -0.237 NA
ENDBRANCH  10  11
ENDBRANCH   8  10
ENDBRANCH   4   7
BRANCH   1  18
ATOM     18  C   UNL d   1      44.927  23.115  56.155  0.00  0.00     0.300 C 
ATOM     19  O   UNL d   1      44.315  22.579  56.295  0.00  0.00    -0.259 OA
BRANCH  18  20
ATOM     20  O   UNL d   1      45.680  22.835  55.977  0.00  0.00    -0.271 OA
BRANCH  20  21
ATOM     21  C   UNL d   1      45.818  22.028  55.935  0.00  0.00     0.126 C 
ATOM     22  C   UNL d   1      46.565  21.747  55.755  0.00  0.00     0.029 C 
ENDBRANCH  20  21
ENDBRANCH  18  20
ENDBRANCH   1  18
TORSDOF 6
ENDMDL
MODEL 7
REMARK VINA RESULT:      -4.7      9.821     10.397
REMARK  6 active torsions:
REMARK  status: ('A' for Active; 'I' for Inactive)
REMARK    1  A    between atoms: C_2  and  C_4 
REMARK    2  A    between atoms: C_3  and  C_2 
REMARK       I    between atoms: N_8  and  C_3 
REMARK    3  A    between atoms: C_5  and  C_9 
REMARK    4  A    between atoms: O_16  and  C_5 
REMARK    5  A    between atoms: C_15  and  N_8 
REMARK    6  A    between atoms: C_21  and  O_16 
ROOT
ATOM      1  C   UNL d   1      44.981  28.062  57.436  0.00  0.00     0.064 A 
ATOM      2  C   UNL d   1      45.380  27.494  57.890  0.00  0.00     0.007 A 
ATOM      3  C   UNL d   1      44.447  27.818  56.850  0.00  0.00     0.007 A 
ATOM      4  C   UNL d   1      44.709  26.458  57.168  0.00  0.00     0.085 A 
ATOM      5  C   UNL d   1      44.314  27.020  56.719  0.00  0.00     0.019 A 
ATOM      6  C   UNL d   1      45.245  26.694  57.756  0.00  0.00     0.019 A 
ENDROOT
BRANCH   4   7
ATOM      7  N   UNL d   1      44.575  25.658  57.035  0.00  0.00    -0.208 NA
ATOM      8  C   UNL d   1      44.941  25.274  56.401  0.00  0.00     0.281 C 
ATOM      9  O   UNL d   1      45.442  25.702  55.905  0.00  0.00    -0.265 OA
BRANCH   8  10
ATOM     10  C   UNL d   1      44.806  24.476  56.271  0.00  0.00     0.086 C 
BRANCH  10  11
ATOM     11  C   UNL d   1      44.744  24.184  55.496  0.00  0.00     0.144 A 
ATOM     12  C   UNL d   1      45.054  23.442  55.313  0.00  0.00     0.297 A 
ATOM     13  N   UNL d   1      44.998  23.143  54.548  0.00  0.00    -0.204 NA
ATOM     14  O   UNL d   1      45.425  22.995  55.905  0.00  0.00    -0.264 OA
ATOM     15  C   UNL d   1      44.628  23.596  53.969  0.00  0.00     0.123 A 
ATOM     16  C   UNL d   1      44.318  24.338  54.152  0.00  0.00     0.120 A 
ATOM     17  N   UNL d   1      44.376  24.631  54.916  0.00  0.00    -0.237 NA
ENDBRANCH  10  11
ENDBRANCH   8  10
ENDBRANCH   4   7
BRANCH   1  18
ATOM     18  C   UNL d   1      45.118  28.867  57.572  0.00  0.00     0.300 C 
ATOM     19  O   UNL d   1      45.307  29.365  56.942  0.00  0.00    -0.259 OA
BRANCH  18  20
ATOM     20  O   UNL d   1      45.066  29.174  58.334  0.00  0.00    -0.271 OA
BRANCH  20  21
ATOM     21  C   UNL d   1      45.088  29.985  58.451  0.00  0.00     0.126 C 
ATOM     22  C   UNL d   1      45.109  30.290  59.210  0.00  0.00     0.029 C 
ENDBRANCH  20  21
ENDBRANCH  18  20
ENDBRANCH   1  18
TORSDOF 6
ENDMDL
