MODEL 1
REMARK VINA RESULT:     119.1      0.000      0.000
REMARK  6 active torsions:
REMARK  status: ('A' for Active; 'I' for Inactive)
REMARK    1  A    between atoms: S_5  and  C_2 
REMARK    2  A    between atoms: C_16  and  S_5 
REMARK    3  A    between atoms: N_11  and  C_8 
REMARK    4  A    between atoms: C_18  and  N_11 
REMARK    5  A    between atoms: C_19  and  N_12 
REMARK    6  A    between atoms: C_27  and  C_19 
ROOT
ATOM      1  C   UNL d   1     -58.605 -98.833 -44.933  0.00  0.00     0.197 A 
ATOM      2  C   UNL d   1     -59.131 -98.842 -44.299  0.00  0.00     0.227 A 
ATOM      3  N   UNL d   1     -59.045 -98.860 -45.629  0.00  0.00    -0.192 N 
ATOM      4  N   UNL d   1     -57.777 -98.804 -44.965  0.00  0.00    -0.206 NA
ATOM      5  N   UNL d   1     -59.906 -98.875 -44.608  0.00  0.00    -0.115 NA
ATOM      6  N   UNL d   1     -59.845 -98.886 -45.435  0.00  0.00    -0.058 NA
ATOM      7  C   UNL d   1     -57.384 -98.801 -45.693  0.00  0.00     0.166 A 
ATOM      8  C   UNL d   1     -57.831 -98.828 -46.389  0.00  0.00     0.054 A 
ATOM      9  C   UNL d   1     -58.655 -98.858 -46.361  0.00  0.00     0.089 A 
ATOM     10  C   UNL d   1     -59.099 -98.884 -47.057  0.00  0.00     0.020 A 
ATOM     11  C   UNL d   1     -57.446 -98.826 -47.121  0.00  0.00     0.016 A 
ATOM     12  C   UNL d   1     -57.886 -98.853 -47.818  0.00  0.00     0.058 A 
ATOM     13  C   UNL d   1     -58.714 -98.882 -47.786  0.00  0.00     0.013 A 
ATOM     14 CL   UNL d   1     -57.501 -98.850 -48.545  0.00  0.00    -0.082 Cl
ENDROOT
BRANCH   7  15
ATOM     15  N   UNL d   1     -56.560 -98.772 -45.725  0.00  0.00    -0.227 NA
BRANCH  15  16
ATOM     16  C   UNL d   1     -56.111 -99.348 -45.345  0.00  0.00     0.086 A 
ATOM     17  C   UNL d   1     -55.436 -99.134 -44.921  0.00  0.00     0.038 A 
ATOM     18  C   UNL d   1     -54.994 -99.713 -44.545  0.00  0.00     0.082 A 
ATOM     19  N   UNL d   1     -55.220-100.511 -44.586  0.00  0.00    -0.302 N 
ATOM     20  C   UNL d   1     -55.896-100.718 -45.011  0.00  0.00     0.082 A 
ATOM     21  C   UNL d   1     -56.338-100.139 -45.387  0.00  0.00     0.038 A 
BRANCH  19  22
ATOM     22  C   UNL d   1     -54.775-101.089 -44.208  0.00  0.00     0.080 C 
BRANCH  22  23
ATOM     23  C   UNL d   1     -54.910-101.260 -43.412  0.00  0.00     0.018 A 
ATOM     24  C   UNL d   1     -54.877-100.662 -42.846  0.00  0.00     0.002 A 
ATOM     25  C   UNL d   1     -55.011-100.829 -42.049  0.00  0.00     0.000 A 
ATOM     26  C   UNL d   1     -55.181-101.602 -41.820  0.00  0.00     0.000 A 
ATOM     27  C   UNL d   1     -55.216-102.208 -42.388  0.00  0.00     0.000 A 
ATOM     28  C   UNL d   1     -55.080-102.033 -43.182  0.00  0.00     0.002 A 
ENDBRANCH  22  23
ENDBRANCH  19  22
ENDBRANCH  15  16
ENDBRANCH   7  15
BRANCH   2  29
ATOM     29  S   UNL d   1     -58.938 -98.823 -43.493  0.00  0.00     0.231 S 
ATOM     30  O   UNL d   1     -58.135 -98.775 -43.659  0.00  0.00    -0.215 OA
ATOM     31  O   UNL d   1     -59.748 -98.871 -43.330  0.00  0.00    -0.215 OA
BRANCH  29  32
ATOM     32  C   UNL d   1     -58.802 -98.807 -42.680  0.00  0.00     0.090 A 
ATOM     33  C   UNL d   1     -59.436 -98.800 -42.162  0.00  0.00     0.011 A 
ATOM     34  C   UNL d   1     -59.302 -98.784 -41.348  0.00  0.00     0.001 A 
ATOM     35  C   UNL d   1     -58.526 -98.775 -41.065  0.00  0.00     0.000 A 
ATOM     36  C   UNL d   1     -57.886 -98.781 -41.590  0.00  0.00     0.001 A 
ATOM     37  C   UNL d   1     -58.031 -98.797 -42.397  0.00  0.00     0.011 A 
ENDBRANCH  29  32
ENDBRANCH   2  29
TORSDOF 6
ENDMDL
