MODEL 1
REMARK VINA RESULT:      17.9      0.000      0.000
REMARK  3 active torsions:
REMARK  status: ('A' for Active; 'I' for Inactive)
REMARK    1  A    between atoms: C_2  and  S_1 
REMARK    2  A    between atoms: N_3  and  S_1 
REMARK    3  A    between atoms: N_4  and  C_6 
ROOT
ATOM      1  C   UNL d   1      14.271  12.885  -1.535  0.00  0.00     0.116 A 
ATOM      2  C   UNL d   1      14.731  13.572  -1.431  0.00  0.00     0.037 A 
ATOM      3  C   UNL d   1      15.005  13.761  -0.684  0.00  0.00     0.127 A 
ATOM      4  C   UNL d   1      14.092  12.396  -0.884  0.00  0.00     0.070 A 
ATOM      5  C   UNL d   1      14.820  13.259  -0.018  0.00  0.00     0.024 A 
ATOM      6  C   UNL d   1      14.372  12.595  -0.134  0.00  0.00     0.014 A 
ATOM      7 CL   UNL d   1      13.668  11.780  -1.028  0.00  0.00    -0.082 Cl
ENDROOT
BRANCH   1   8
ATOM      8  S   UNL d   1      13.989  12.691  -2.310  0.00  0.00     0.273 S 
ATOM      9  O   UNL d   1      14.255  11.910  -2.217  0.00  0.00    -0.200 OA
ATOM     10  O   UNL d   1      13.712  13.491  -2.414  0.00  0.00    -0.200 OA
BRANCH   8  11
ATOM     11  N   UNL d   1      13.712  12.517  -3.058  0.00  0.00    -0.210 N 
ATOM     12  C   UNL d   1      13.618  13.063  -3.726  0.00  0.00     0.193 A 
ATOM     13  N   UNL d   1      13.317  12.607  -4.361  0.00  0.00    -0.222 NA
ATOM     14  C   UNL d   1      13.228  11.809  -4.095  0.00  0.00     0.120 A 
ATOM     15  C   UNL d   1      13.474  11.786  -3.308  0.00  0.00     0.114 A 
ENDBRANCH   8  11
ENDBRANCH   1   8
BRANCH   3  16
ATOM     16  N   UNL d   1      15.456  14.435  -0.589  0.00  0.00    -0.114 N 
ATOM     17  O   UNL d   1      16.241  14.458  -0.416  0.00  0.00    -0.532 OA
ATOM     18  O   UNL d   1      15.146  15.195  -0.662  0.00  0.00    -0.532 OA
ENDBRANCH   3  16
TORSDOF 3
ENDMDL
MODEL 2
REMARK VINA RESULT:      19.3      1.215      3.339
REMARK  3 active torsions:
REMARK  status: ('A' for Active; 'I' for Inactive)
REMARK    1  A    between atoms: C_2  and  S_1 
REMARK    2  A    between atoms: N_3  and  S_1 
REMARK    3  A    between atoms: N_4  and  C_6 
ROOT
ATOM      1  C   UNL d   1      13.916  12.532  -2.182  0.00  0.00     0.116 A 
ATOM      2  C   UNL d   1      14.030  12.815  -2.958  0.00  0.00     0.037 A 
ATOM      3  C   UNL d   1      13.518  12.578  -3.549  0.00  0.00     0.127 A 
ATOM      4  C   UNL d   1      13.287  12.013  -2.011  0.00  0.00     0.070 A 
ATOM      5  C   UNL d   1      12.873  12.046  -3.372  0.00  0.00     0.024 A 
ATOM      6  C   UNL d   1      12.774  11.779  -2.614  0.00  0.00     0.014 A 
ATOM      7 CL   UNL d   1      13.223  11.782  -1.289  0.00  0.00    -0.082 Cl
ENDROOT
BRANCH   1   8
ATOM      8  S   UNL d   1      14.449  12.779  -1.571  0.00  0.00     0.273 S 
ATOM      9  O   UNL d   1      14.712  11.997  -1.477  0.00  0.00    -0.200 OA
ATOM     10  O   UNL d   1      14.184  13.585  -1.660  0.00  0.00    -0.200 OA
BRANCH   8  11
ATOM     11  N   UNL d   1      14.958  13.030  -0.983  0.00  0.00    -0.210 N 
ATOM     12  C   UNL d   1      15.602  12.578  -0.616  0.00  0.00     0.193 A 
ATOM     13  N   UNL d   1      15.951  13.087  -0.048  0.00  0.00    -0.222 NA
ATOM     14  C   UNL d   1      15.536  13.824  -0.065  0.00  0.00     0.120 A 
ATOM     15  C   UNL d   1      14.946  13.760  -0.636  0.00  0.00     0.114 A 
ENDBRANCH   8  11
ENDBRANCH   1   8
BRANCH   3  16
ATOM     16  N   UNL d   1      13.635  12.859  -4.307  0.00  0.00    -0.114 N 
ATOM     17  O   UNL d   1      13.914  12.433  -4.930  0.00  0.00    -0.532 OA
ATOM     18  O   UNL d   1      13.475  13.636  -4.526  0.00  0.00    -0.532 OA
ENDBRANCH   3  16
TORSDOF 3
ENDMDL
