MODEL 1
REMARK VINA RESULT:      -6.0      0.000      0.000
REMARK  3 active torsions:
REMARK  status: ('A' for Active; 'I' for Inactive)
REMARK    1  A    between atoms: C_4  and  S_13 
REMARK    2  A    between atoms: C_16  and  C_6 
REMARK    3  A    between atoms: S_13  and  C_16 
ROOT
ATOM      1  C   UNL d   1     -41.494-122.539 -51.986  0.00  0.00     0.059 C 
ENDROOT
BRANCH   1   2
ATOM      2  S   UNL d   1     -42.128-122.704 -51.510  0.00  0.00    -0.046 SA
BRANCH   2   3
ATOM      3  C   UNL d   1     -42.001-122.833 -50.706  0.00  0.00     0.194 A 
ATOM      4  N   UNL d   1     -41.335-123.034 -50.264  0.00  0.00    -0.220 NA
ATOM      5  C   UNL d   1     -41.554-123.085 -49.478  0.00  0.00     0.101 A 
ATOM      6  C   UNL d   1     -41.123-123.264 -48.807  0.00  0.00     0.021 A 
ATOM      7  C   UNL d   1     -42.334-122.922 -49.427  0.00  0.00     0.101 A 
ATOM      8  C   UNL d   1     -41.472-123.281 -48.073  0.00  0.00     0.002 A 
ATOM      9  C   UNL d   1     -42.286-123.113 -47.994  0.00  0.00     0.002 A 
ATOM     10  C   UNL d   1     -42.726-122.929 -48.694  0.00  0.00     0.021 A 
ATOM     11  N   UNL d   1     -42.646-122.758 -50.184  0.00  0.00    -0.220 NA
ENDBRANCH   2   3
ENDBRANCH   1   2
BRANCH   1  12
ATOM     12  C   UNL d   1     -41.604-122.464 -52.791  0.00  0.00     0.107 A 
ATOM     13  C   UNL d   1     -41.378-122.993 -53.366  0.00  0.00     0.101 A 
ATOM     14  N   UNL d   1     -41.586-122.720 -54.113  0.00  0.00    -0.289 N 
ATOM     15  C   UNL d   1     -41.958-121.987 -54.000  0.00  0.00     0.148 A 
ATOM     16  C   UNL d   1     -41.498-123.020 -54.889  0.00  0.00     0.066 A 
ATOM     17  N   UNL d   1     -41.973-121.821 -53.184  0.00  0.00    -0.226 NA
ATOM     18  C   UNL d   1     -42.236-121.561 -54.649  0.00  0.00     0.037 A 
ATOM     19  C   UNL d   1     -42.144-121.867 -55.421  0.00  0.00     0.005 A 
ATOM     20  C   UNL d   1     -41.773-122.599 -55.533  0.00  0.00     0.018 A 
ATOM     21  C   UNL d   1     -41.123-123.758 -54.998  0.00  0.00     0.019 C 
ENDBRANCH   1  12
TORSDOF 3
ENDMDL
MODEL 2
REMARK VINA RESULT:      -5.3      0.607      5.150
REMARK  3 active torsions:
REMARK  status: ('A' for Active; 'I' for Inactive)
REMARK    1  A    between atoms: C_4  and  S_13 
REMARK    2  A    between atoms: C_16  and  C_6 
REMARK    3  A    between atoms: S_13  and  C_16 
ROOT
ATOM      1  C   UNL d   1     -41.667-122.211 -51.240  0.00  0.00     0.059 C 
ENDROOT
BRANCH   1   2
ATOM      2  S   UNL d   1     -41.235-122.577 -51.819  0.00  0.00    -0.046 SA
BRANCH   2   3
ATOM      3  C   UNL d   1     -41.436-122.449 -52.609  0.00  0.00     0.194 A 
ATOM      4  N   UNL d   1     -41.802-121.826 -53.004  0.00  0.00    -0.220 NA
ATOM      5  C   UNL d   1     -41.851-122.020 -53.797  0.00  0.00     0.101 A 
ATOM      6  C   UNL d   1     -42.158-121.611 -54.436  0.00  0.00     0.021 A 
ATOM      7  C   UNL d   1     -41.526-122.742 -53.897  0.00  0.00     0.101 A 
ATOM      8  C   UNL d   1     -42.141-121.925 -55.186  0.00  0.00     0.002 A 
ATOM      9  C   UNL d   1     -41.806-122.679 -55.314  0.00  0.00     0.002 A 
ATOM     10  C   UNL d   1     -41.491-123.096 -54.648  0.00  0.00     0.021 A 
ATOM     11  N   UNL d   1     -41.254-123.041 -53.166  0.00  0.00    -0.220 NA
ENDBRANCH   2   3
ENDBRANCH   1   2
BRANCH   1  12
ATOM     12  C   UNL d   1     -41.740-122.564 -50.508  0.00  0.00     0.107 A 
ATOM     13  C   UNL d   1     -42.422-122.856 -50.173  0.00  0.00     0.101 A 
ATOM     14  N   UNL d   1     -42.271-123.170 -49.429  0.00  0.00    -0.289 N 
ATOM     15  C   UNL d   1     -41.459-123.070 -49.292  0.00  0.00     0.148 A 
ATOM     16  C   UNL d   1     -42.744-123.535 -48.844  0.00  0.00     0.066 A 
ATOM     17  N   UNL d   1     -41.122-122.695 -49.955  0.00  0.00    -0.226 NA
ATOM     18  C   UNL d   1     -41.124-123.329 -48.584  0.00  0.00     0.037 A 
ATOM     19  C   UNL d   1     -41.604-123.694 -48.005  0.00  0.00     0.005 A 
ATOM     20  C   UNL d   1     -42.414-123.794 -48.142  0.00  0.00     0.018 A 
ATOM     21  C   UNL d   1     -43.561-123.634 -48.986  0.00  0.00     0.019 C 
ENDBRANCH   1  12
TORSDOF 3
ENDMDL
