MODEL 1
REMARK VINA RESULT:     116.5      0.000      0.000
REMARK  4 active torsions:
REMARK  status: ('A' for Active; 'I' for Inactive)
REMARK    1  A    between atoms: C_5  and  C_1 
REMARK    2  A    between atoms: C_11  and  C_2 
REMARK       I    between atoms: C_12  and  N_3 
REMARK    3  A    between atoms: C_15  and  N_7 
REMARK    4  A    between atoms: C_14  and  C_9 
ROOT
ATOM      1  C   UNL d   1     -50.333  26.946  34.874  0.00  0.00     0.057 A 
ATOM      2  C   UNL d   1     -51.010  26.550  34.579  0.00  0.00     0.110 A 
ATOM      3  N   UNL d   1     -51.463  26.323  35.239  0.00  0.00    -0.165 NA
ATOM      4  N   UNL d   1     -51.051  26.584  35.922  0.00  0.00    -0.228 N 
ATOM      5  C   UNL d   1     -50.372  26.957  35.679  0.00  0.00     0.103 A 
ENDROOT
BRANCH   1   6
ATOM      6  C   UNL d   1     -49.628  27.339  34.771  0.00  0.00     0.091 A 
ATOM      7  N   UNL d   1     -49.007  27.093  34.264  0.00  0.00    -0.195 N 
ATOM      8  N   UNL d   1     -48.386  27.655  34.324  0.00  0.00    -0.163 NA
ATOM      9  C   UNL d   1     -48.980  26.434  33.786  0.00  0.00     0.281 C 
ATOM     10  C   UNL d   1     -48.627  28.228  34.856  0.00  0.00     0.103 A 
ATOM     11  C   UNL d   1     -49.381  28.048  35.136  0.00  0.00     0.040 A 
ATOM     12  O   UNL d   1     -49.644  25.934  33.792  0.00  0.00    -0.265 OA
ATOM     13  C   UNL d   1     -48.324  26.260  33.311  0.00  0.00     0.068 C 
BRANCH  10  14
ATOM     14  C   UNL d   1     -48.200  28.901  35.099  0.00  0.00     0.019 A 
ATOM     15  C   UNL d   1     -48.326  29.626  34.712  0.00  0.00     0.002 A 
ATOM     16  C   UNL d   1     -47.924  30.293  34.928  0.00  0.00     0.000 A 
ATOM     17  C   UNL d   1     -47.379  30.264  35.542  0.00  0.00     0.000 A 
ATOM     18  C   UNL d   1     -47.252  29.545  35.929  0.00  0.00     0.000 A 
ATOM     19  C   UNL d   1     -46.951  30.936  35.786  0.00  0.00     0.000 C 
ATOM     20  C   UNL d   1     -47.654  28.871  35.714  0.00  0.00     0.002 A 
ENDBRANCH  10  14
ENDBRANCH   1   6
BRANCH   2  21
ATOM     21  C   UNL d   1     -51.572  26.211  34.077  0.00  0.00     0.049 A 
ATOM     22  S   UNL d   1     -52.239  26.605  33.788  0.00  0.00    -0.085 SA
ATOM     23  C   UNL d   1     -52.641  26.044  33.306  0.00  0.00     0.035 A 
ATOM     24  C   UNL d   1     -52.220  25.337  33.311  0.00  0.00     0.007 A 
ATOM     25  C   UNL d   1     -51.549  25.449  33.797  0.00  0.00     0.009 A 
ENDBRANCH   2  21
BRANCH   4  26
ATOM     26  C   UNL d   1     -51.320  26.466  36.708  0.00  0.00     0.083 A 
ATOM     27  C   UNL d   1     -51.928  25.937  36.864  0.00  0.00     0.019 A 
ATOM     28  C   UNL d   1     -52.163  25.848  37.643  0.00  0.00     0.002 A 
ATOM     29  C   UNL d   1     -51.823  26.260  38.268  0.00  0.00     0.000 A 
ATOM     30  C   UNL d   1     -51.205  26.795  38.090  0.00  0.00     0.002 A 
ATOM     31  C   UNL d   1     -50.952  26.903  37.327  0.00  0.00     0.019 A 
ENDBRANCH   4  26
TORSDOF 4
ENDMDL
MODEL 2
REMARK VINA RESULT:     116.8      1.420      2.682
REMARK  4 active torsions:
REMARK  status: ('A' for Active; 'I' for Inactive)
REMARK    1  A    between atoms: C_5  and  C_1 
REMARK    2  A    between atoms: C_11  and  C_2 
REMARK       I    between atoms: C_12  and  N_3 
REMARK    3  A    between atoms: C_15  and  N_7 
REMARK    4  A    between atoms: C_14  and  C_9 
ROOT
ATOM      1  C   UNL d   1     -49.640  26.747  34.488  0.00  0.00     0.057 A 
ATOM      2  C   UNL d   1     -49.538  26.013  34.098  0.00  0.00     0.110 A 
ATOM      3  N   UNL d   1     -50.276  25.807  33.774  0.00  0.00    -0.165 NA
ATOM      4  N   UNL d   1     -50.812  26.421  33.973  0.00  0.00    -0.228 N 
ATOM      5  C   UNL d   1     -50.408  26.978  34.404  0.00  0.00     0.103 A 
ENDROOT
BRANCH   1   6
ATOM      6  C   UNL d   1     -49.361  27.375  34.924  0.00  0.00     0.091 A 
ATOM      7  N   UNL d   1     -49.538  27.519  35.731  0.00  0.00    -0.195 N 
ATOM      8  N   UNL d   1     -49.138  28.221  35.962  0.00  0.00    -0.163 NA
ATOM      9  C   UNL d   1     -50.007  27.078  36.229  0.00  0.00     0.281 C 
ATOM     10  C   UNL d   1     -48.730  28.494  35.309  0.00  0.00     0.103 A 
ATOM     11  C   UNL d   1     -48.856  27.989  34.669  0.00  0.00     0.040 A 
ATOM     12  O   UNL d   1     -50.363  26.397  35.911  0.00  0.00    -0.265 OA
ATOM     13  C   UNL d   1     -50.133  27.289  37.020  0.00  0.00     0.068 C 
BRANCH  10  14
ATOM     14  C   UNL d   1     -48.251  29.175  35.263  0.00  0.00     0.019 A 
ATOM     15  C   UNL d   1     -47.526  29.192  35.670  0.00  0.00     0.002 A 
ATOM     16  C   UNL d   1     -47.043  29.840  35.642  0.00  0.00     0.000 A 
ATOM     17  C   UNL d   1     -47.265  30.499  35.204  0.00  0.00     0.000 A 
ATOM     18  C   UNL d   1     -47.984  30.485  34.798  0.00  0.00     0.000 A 
ATOM     19  C   UNL d   1     -46.787  31.180  35.157  0.00  0.00     0.000 C 
ATOM     20  C   UNL d   1     -48.473  29.834  34.824  0.00  0.00     0.002 A 
ENDBRANCH  10  14
ENDBRANCH   1   6
BRANCH   2  21
ATOM     21  C   UNL d   1     -49.210  25.317  33.794  0.00  0.00     0.049 A 
ATOM     22  S   UNL d   1     -48.416  25.226  33.587  0.00  0.00    -0.085 SA
ATOM     23  C   UNL d   1     -48.345  24.435  33.308  0.00  0.00     0.035 A 
ATOM     24  C   UNL d   1     -49.080  24.070  33.350  0.00  0.00     0.007 A 
ATOM     25  C   UNL d   1     -49.620  24.629  33.656  0.00  0.00     0.009 A 
ENDBRANCH   2  21
BRANCH   4  26
ATOM     26  C   UNL d   1     -51.621  26.429  33.751  0.00  0.00     0.083 A 
ATOM     27  C   UNL d   1     -52.059  25.736  33.747  0.00  0.00     0.019 A 
ATOM     28  C   UNL d   1     -52.845  25.784  33.524  0.00  0.00     0.002 A 
ATOM     29  C   UNL d   1     -53.211  26.487  33.307  0.00  0.00     0.000 A 
ATOM     30  C   UNL d   1     -52.750  27.185  33.317  0.00  0.00     0.002 A 
ATOM     31  C   UNL d   1     -51.968  27.166  33.534  0.00  0.00     0.019 A 
ENDBRANCH   4  26
TORSDOF 4
ENDMDL
MODEL 3
REMARK VINA RESULT:     119.1      1.531      2.353
REMARK  4 active torsions:
REMARK  status: ('A' for Active; 'I' for Inactive)
REMARK    1  A    between atoms: C_5  and  C_1 
REMARK    2  A    between atoms: C_11  and  C_2 
REMARK       I    between atoms: C_12  and  N_3 
REMARK    3  A    between atoms: C_15  and  N_7 
REMARK    4  A    between atoms: C_14  and  C_9 
ROOT
ATOM      1  C   UNL d   1     -48.960  28.405  35.037  0.00  0.00     0.057 A 
ATOM      2  C   UNL d   1     -49.365  27.761  34.686  0.00  0.00     0.110 A 
ATOM      3  N   UNL d   1     -49.801  27.391  35.291  0.00  0.00    -0.165 NA
ATOM      4  N   UNL d   1     -49.651  27.818  35.998  0.00  0.00    -0.228 N 
ATOM      5  C   UNL d   1     -49.141  28.425  35.822  0.00  0.00     0.103 A 
ENDROOT
BRANCH   1   6
ATOM      6  C   UNL d   1     -48.459  29.045  35.001  0.00  0.00     0.091 A 
ATOM      7  N   UNL d   1     -47.640  29.029  35.182  0.00  0.00    -0.195 N 
ATOM      8  N   UNL d   1     -47.336  29.805  35.072  0.00  0.00    -0.163 NA
ATOM      9  C   UNL d   1     -47.192  28.394  35.423  0.00  0.00     0.281 C 
ATOM     10  C   UNL d   1     -47.958  30.277  34.830  0.00  0.00     0.103 A 
ATOM     11  C   UNL d   1     -48.648  29.828  34.782  0.00  0.00     0.040 A 
ATOM     12  O   UNL d   1     -47.580  27.664  35.504  0.00  0.00    -0.265 OA
ATOM     13  C   UNL d   1     -46.381  28.461  35.584  0.00  0.00     0.068 C 
BRANCH  10  14
ATOM     14  C   UNL d   1     -47.931  31.091  34.652  0.00  0.00     0.019 A 
ATOM     15  C   UNL d   1     -48.363  31.381  34.003  0.00  0.00     0.002 A 
ATOM     16  C   UNL d   1     -48.354  32.165  33.809  0.00  0.00     0.000 A 
ATOM     17  C   UNL d   1     -47.912  32.695  34.257  0.00  0.00     0.000 A 
ATOM     18  C   UNL d   1     -47.482  32.410  34.902  0.00  0.00     0.000 A 
ATOM     19  C   UNL d   1     -47.885  33.508  34.079  0.00  0.00     0.000 C 
ATOM     20  C   UNL d   1     -47.488  31.620  35.101  0.00  0.00     0.002 A 
ENDBRANCH  10  14
ENDBRANCH   1   6
BRANCH   2  21
ATOM     21  C   UNL d   1     -49.652  27.208  34.142  0.00  0.00     0.049 A 
ATOM     22  S   UNL d   1     -50.415  27.216  33.826  0.00  0.00    -0.085 SA
ATOM     23  C   UNL d   1     -50.451  26.555  33.306  0.00  0.00     0.035 A 
ATOM     24  C   UNL d   1     -49.726  26.169  33.316  0.00  0.00     0.007 A 
ATOM     25  C   UNL d   1     -49.228  26.583  33.843  0.00  0.00     0.009 A 
ENDBRANCH   2  21
BRANCH   4  26
ATOM     26  C   UNL d   1     -49.985  27.626  36.743  0.00  0.00     0.083 A 
ATOM     27  C   UNL d   1     -50.505  26.996  36.816  0.00  0.00     0.019 A 
ATOM     28  C   UNL d   1     -50.810  26.839  37.559  0.00  0.00     0.002 A 
ATOM     29  C   UNL d   1     -50.623  27.280  38.228  0.00  0.00     0.000 A 
ATOM     30  C   UNL d   1     -50.091  27.920  38.134  0.00  0.00     0.002 A 
ATOM     31  C   UNL d   1     -49.774  28.097  37.410  0.00  0.00     0.019 A 
ENDBRANCH   4  26
TORSDOF 4
ENDMDL
