MODEL 1
REMARK VINA RESULT:      14.6      0.000      0.000
REMARK  1 active torsions:
REMARK  status: ('A' for Active; 'I' for Inactive)
REMARK    1  A    between atoms: C_9  and  C_4 
ROOT
ATOM      1  S   UNL d   1     -52.168  25.168  33.338  0.00  0.00    -0.085 SA
ATOM      2  N   UNL d   1     -51.700  23.417  33.317  0.00  0.00    -0.207 NA
ATOM      3  C   UNL d   1     -50.965  23.757  33.319  0.00  0.00     0.280 A 
ATOM      4  C   UNL d   1     -51.360  25.234  33.337  0.00  0.00     0.034 A 
ATOM      5  C   UNL d   1     -50.804  24.597  33.328  0.00  0.00     0.069 A 
ATOM      6  C   UNL d   1     -52.526  24.575  33.332  0.00  0.00     0.047 A 
ATOM      7  C   UNL d   1     -52.323  23.775  33.323  0.00  0.00     0.091 A 
ATOM      8  O   UNL d   1     -50.317  23.251  33.312  0.00  0.00    -0.265 OA
ATOM      9  C   UNL d   1     -53.317  24.801  33.337  0.00  0.00     0.008 A 
ATOM     10  C   UNL d   1     -52.913  23.201  33.318  0.00  0.00     0.020 A 
ATOM     11  C   UNL d   1     -53.713  23.424  33.322  0.00  0.00     0.002 A 
ATOM     12  C   UNL d   1     -53.915  24.224  33.332  0.00  0.00     0.001 A 
ENDROOT
BRANCH   4  13
ATOM     13  C   UNL d   1     -51.052  26.004  33.345  0.00  0.00     0.006 A 
ATOM     14  C   UNL d   1     -51.553  26.651  33.306  0.00  0.00     0.001 A 
ATOM     15  C   UNL d   1     -51.251  27.411  33.314  0.00  0.00     0.000 A 
ATOM     16  C   UNL d   1     -50.435  27.527  33.361  0.00  0.00     0.000 A 
ATOM     17  C   UNL d   1     -49.922  26.871  33.400  0.00  0.00     0.000 A 
ATOM     18  C   UNL d   1     -50.233  26.109  33.392  0.00  0.00     0.001 A 
ENDBRANCH   4  13
TORSDOF 1
ENDMDL
