MODEL 1
REMARK VINA RESULT:     102.2      0.000      0.000
REMARK  10 active torsions:
REMARK  status: ('A' for Active; 'I' for Inactive)
REMARK    1  A    between atoms: C_9  and  S_1 
REMARK    2  A    between atoms: N_20  and  S_1 
REMARK    3  A    between atoms: S_2  and  C_10 
REMARK    4  A    between atoms: N_19  and  S_2 
REMARK    5  A    between atoms: C_28  and  N_19 
REMARK    6  A    between atoms: C_29  and  N_20 
REMARK    7  A    between atoms: C_24  and  C_28 
REMARK    8  A    between atoms: C_30  and  C_24 
REMARK    9  A    between atoms: C_25  and  C_29 
REMARK   10  A    between atoms: C_31  and  C_25 
ROOT
ATOM      1  C   UNL d   1      61.714  45.572  49.655  0.00  0.00     0.300 A 
ATOM      2  C   UNL d   1      61.665  45.177  50.370  0.00  0.00     0.064 A 
ATOM      3  C   UNL d   1      61.182  46.748  50.259  0.00  0.00     0.104 A 
ATOM      4  O   UNL d   1      61.474  46.355  49.597  0.00  0.00    -0.273 OA
ATOM      5  C   UNL d   1      61.374  45.567  51.032  0.00  0.00     0.007 A 
ATOM      6  C   UNL d   1      61.130  46.355  50.981  0.00  0.00     0.023 A 
ATOM      7  C   UNL d   1      61.856  43.996  51.143  0.00  0.00     0.105 A 
ATOM      8  C   UNL d   1      60.651  47.930  50.854  0.00  0.00     0.107 A 
ATOM      9  C   UNL d   1      61.904  44.398  50.427  0.00  0.00     0.018 A 
ATOM     10  C   UNL d   1      60.942  47.536  50.197  0.00  0.00     0.038 A 
ATOM     11  C   UNL d   1      61.322  45.173  51.754  0.00  0.00     0.001 A 
ATOM     12  C   UNL d   1      60.838  46.748  51.643  0.00  0.00     0.003 A 
ATOM     13  O   UNL d   1      62.006  45.186  48.985  0.00  0.00    -0.259 OA
ATOM     14  C   UNL d   1      61.562  44.390  51.812  0.00  0.00     0.013 A 
ATOM     15  C   UNL d   1      60.598  47.536  51.581  0.00  0.00     0.013 A 
ENDROOT
BRANCH   7  16
ATOM     16  S   UNL d   1      62.097  43.209  51.200  0.00  0.00     0.285 S 
ATOM     17  O   UNL d   1      62.788  42.967  50.825  0.00  0.00    -0.198 OA
ATOM     18  O   UNL d   1      61.643  42.666  51.635  0.00  0.00    -0.198 OA
BRANCH  16  19
ATOM     19  N   UNL d   1      62.348  42.424  51.251  0.00  0.00    -0.157 NA
BRANCH  19  20
ATOM     20  C   UNL d   1      62.688  42.056  50.596  0.00  0.00     0.116 C 
BRANCH  20  21
ATOM     21  C   UNL d   1      62.961  41.279  50.658  0.00  0.00     0.067 C 
BRANCH  21  22
ATOM     22  C   UNL d   1      62.845  40.750  50.035  0.00  0.00     0.236 C 
ATOM     23  O   UNL d   1      63.158  40.922  49.290  0.00  0.00    -0.283 OA
ENDBRANCH  21  22
ENDBRANCH  20  21
ENDBRANCH  19  20
ENDBRANCH  16  19
ENDBRANCH   7  16
BRANCH   8  24
ATOM     24  S   UNL d   1      60.408  48.718  50.801  0.00  0.00     0.285 S 
ATOM     25  O   UNL d   1      60.935  49.293  50.535  0.00  0.00    -0.198 OA
ATOM     26  O   UNL d   1      59.641  48.926  51.012  0.00  0.00    -0.198 OA
BRANCH  24  27
ATOM     27  N   UNL d   1      60.159  49.503  50.750  0.00  0.00    -0.157 NA
BRANCH  27  28
ATOM     28  C   UNL d   1      59.511  49.701  50.280  0.00  0.00     0.116 C 
BRANCH  28  29
ATOM     29  C   UNL d   1      58.748  49.703  50.594  0.00  0.00     0.067 C 
BRANCH  29  30
ATOM     30  C   UNL d   1      58.090  49.706  50.098  0.00  0.00     0.236 C 
ATOM     31  O   UNL d   1      57.370  49.402  50.364  0.00  0.00    -0.283 OA
ENDBRANCH  29  30
ENDBRANCH  28  29
ENDBRANCH  27  28
ENDBRANCH  24  27
ENDBRANCH   8  24
TORSDOF 10
ENDMDL
