MODEL 1
REMARK VINA RESULT:      -5.3      0.000      0.000
REMARK  2 active torsions:
REMARK  status: ('A' for Active; 'I' for Inactive)
REMARK       I    between atoms: C_7  and  N_1 
REMARK    1  A    between atoms: C_6  and  C_3 
REMARK    2  A    between atoms: C_8  and  C_4 
ROOT
ATOM      1  N   UNL d   1      57.822   0.230  32.119  0.00  0.00    -0.195 N 
ATOM      2  N   UNL d   1      58.291   0.272  31.457  0.00  0.00    -0.163 NA
ATOM      3  C   UNL d   1      57.075  -0.034  31.894  0.00  0.00     0.091 A 
ATOM      4  C   UNL d   1      57.832   0.032  30.814  0.00  0.00     0.104 A 
ATOM      5  C   UNL d   1      57.087  -0.154  31.089  0.00  0.00     0.040 A 
ATOM      6  C   UNL d   1      58.055   0.425  32.916  0.00  0.00     0.281 C 
ATOM      7  O   UNL d   1      57.533   0.359  33.522  0.00  0.00    -0.265 OA
ATOM      8  C   UNL d   1      58.826   0.682  33.048  0.00  0.00     0.068 C 
ENDROOT
BRANCH   3   9
ATOM      9  C   UNL d   1      56.431  -0.152  32.402  0.00  0.00     0.057 A 
ATOM     10  C   UNL d   1      56.172  -0.901  32.554  0.00  0.00     0.197 A 
ATOM     11  O   UNL d   1      56.534  -1.540  32.213  0.00  0.00    -0.286 OA
ATOM     12  C   UNL d   1      55.527  -1.026  33.063  0.00  0.00     0.042 A 
ATOM     13  C   UNL d   1      55.144  -0.388  33.420  0.00  0.00     0.003 A 
ATOM     14  C   UNL d   1      55.422   0.365  33.253  0.00  0.00     0.000 A 
ATOM     15  C   UNL d   1      56.047   0.483  32.760  0.00  0.00     0.005 A 
ENDBRANCH   3   9
BRANCH   4  16
ATOM     16  C   UNL d   1      58.083  -0.013  30.030  0.00  0.00     0.039 A 
ATOM     17  C   UNL d   1      57.987   0.636  29.528  0.00  0.00     0.101 A 
ATOM     18  N   UNL d   1      58.239   0.591  28.744  0.00  0.00    -0.242 NA
ATOM     19  C   UNL d   1      58.586  -0.102  28.461  0.00  0.00     0.099 A 
ATOM     20  C   UNL d   1      58.682  -0.750  28.962  0.00  0.00     0.021 A 
ATOM     21  C   UNL d   1      58.430  -0.706  29.748  0.00  0.00     0.005 A 
ENDBRANCH   4  16
TORSDOF 2
ENDMDL
MODEL 2
REMARK VINA RESULT:      -4.1      1.212      3.718
REMARK  2 active torsions:
REMARK  status: ('A' for Active; 'I' for Inactive)
REMARK       I    between atoms: C_7  and  N_1 
REMARK    1  A    between atoms: C_6  and  C_3 
REMARK    2  A    between atoms: C_8  and  C_4 
ROOT
ATOM      1  N   UNL d   1      58.350   0.269  31.478  0.00  0.00    -0.195 N 
ATOM      2  N   UNL d   1      57.887   0.247  32.145  0.00  0.00    -0.163 NA
ATOM      3  C   UNL d   1      57.887   0.053  30.831  0.00  0.00     0.091 A 
ATOM      4  C   UNL d   1      57.129   0.015  31.911  0.00  0.00     0.104 A 
ATOM      5  C   UNL d   1      57.137  -0.102  31.104  0.00  0.00     0.040 A 
ATOM      6  C   UNL d   1      59.176   0.479  31.443  0.00  0.00     0.281 C 
ATOM      7  O   UNL d   1      59.569   0.477  30.744  0.00  0.00    -0.265 OA
ATOM      8  C   UNL d   1      59.559   0.682  32.144  0.00  0.00     0.068 C 
ENDROOT
BRANCH   3   9
ATOM      9  C   UNL d   1      58.148   0.005  30.046  0.00  0.00     0.057 A 
ATOM     10  C   UNL d   1      58.205  -0.714  29.686  0.00  0.00     0.197 A 
ATOM     11  O   UNL d   1      58.011  -1.393  30.084  0.00  0.00    -0.286 OA
ATOM     12  C   UNL d   1      58.466  -0.769  28.899  0.00  0.00     0.042 A 
ATOM     13  C   UNL d   1      58.669  -0.090  28.475  0.00  0.00     0.003 A 
ATOM     14  C   UNL d   1      58.604   0.632  28.859  0.00  0.00     0.000 A 
ATOM     15  C   UNL d   1      58.351   0.681  29.621  0.00  0.00     0.005 A 
ENDBRANCH   3   9
BRANCH   4  16
ATOM     16  C   UNL d   1      56.478  -0.080  32.409  0.00  0.00     0.039 A 
ATOM     17  C   UNL d   1      56.193  -0.837  32.574  0.00  0.00     0.101 A 
ATOM     18  N   UNL d   1      55.542  -0.932  33.071  0.00  0.00    -0.242 NA
ATOM     19  C   UNL d   1      55.176  -0.271  33.403  0.00  0.00     0.099 A 
ATOM     20  C   UNL d   1      55.461   0.485  33.238  0.00  0.00     0.021 A 
ATOM     21  C   UNL d   1      56.113   0.581  32.740  0.00  0.00     0.005 A 
ENDBRANCH   4  16
TORSDOF 2
ENDMDL
MODEL 3
REMARK VINA RESULT:      -3.7      1.705      4.137
REMARK  2 active torsions:
REMARK  status: ('A' for Active; 'I' for Inactive)
REMARK       I    between atoms: C_7  and  N_1 
REMARK    1  A    between atoms: C_6  and  C_3 
REMARK    2  A    between atoms: C_8  and  C_4 
ROOT
ATOM      1  N   UNL d   1      58.111  -0.380  29.672  0.00  0.00    -0.195 N 
ATOM      2  N   UNL d   1      57.597  -0.038  30.200  0.00  0.00    -0.163 NA
ATOM      3  C   UNL d   1      58.356  -1.105  29.978  0.00  0.00     0.091 A 
ATOM      4  C   UNL d   1      57.521  -0.554  30.840  0.00  0.00     0.104 A 
ATOM      5  C   UNL d   1      57.990  -1.206  30.697  0.00  0.00     0.040 A 
ATOM      6  C   UNL d   1      58.360  -0.052  28.925  0.00  0.00     0.281 C 
ATOM      7  O   UNL d   1      58.873  -0.451  28.455  0.00  0.00    -0.265 OA
ATOM      8  C   UNL d   1      58.062   0.682  28.700  0.00  0.00     0.068 C 
ENDROOT
BRANCH   3   9
ATOM      9  C   UNL d   1      58.882  -1.630  29.612  0.00  0.00     0.057 A 
ATOM     10  C   UNL d   1      58.613  -2.336  29.331  0.00  0.00     0.197 A 
ATOM     11  O   UNL d   1      57.832  -2.539  29.402  0.00  0.00    -0.286 OA
ATOM     12  C   UNL d   1      59.135  -2.867  28.963  0.00  0.00     0.042 A 
ATOM     13  C   UNL d   1      59.936  -2.680  28.880  0.00  0.00     0.003 A 
ATOM     14  C   UNL d   1      60.190  -1.957  29.172  0.00  0.00     0.000 A 
ATOM     15  C   UNL d   1      59.681  -1.445  29.528  0.00  0.00     0.005 A 
ENDBRANCH   3   9
BRANCH   4  16
ATOM     16  C   UNL d   1      57.053  -0.431  31.508  0.00  0.00     0.039 A 
ATOM     17  C   UNL d   1      56.943   0.332  31.800  0.00  0.00     0.101 A 
ATOM     18  N   UNL d   1      56.475   0.456  32.468  0.00  0.00    -0.242 NA
ATOM     19  C   UNL d   1      56.117  -0.186  32.845  0.00  0.00     0.099 A 
ATOM     20  C   UNL d   1      56.227  -0.950  32.553  0.00  0.00     0.021 A 
ATOM     21  C   UNL d   1      56.696  -1.073  31.884  0.00  0.00     0.005 A 
ENDBRANCH   4  16
TORSDOF 2
ENDMDL
MODEL 4
REMARK VINA RESULT:      -3.4      1.160      2.022
REMARK  2 active torsions:
REMARK  status: ('A' for Active; 'I' for Inactive)
REMARK       I    between atoms: C_7  and  N_1 
REMARK    1  A    between atoms: C_6  and  C_3 
REMARK    2  A    between atoms: C_8  and  C_4 
ROOT
ATOM      1  N   UNL d   1      56.272  -0.823  32.527  0.00  0.00    -0.195 N 
ATOM      2  N   UNL d   1      56.686  -0.832  31.828  0.00  0.00    -0.163 NA
ATOM      3  C   UNL d   1      56.292  -0.057  32.833  0.00  0.00     0.091 A 
ATOM      4  C   UNL d   1      56.965  -0.065  31.698  0.00  0.00     0.104 A 
ATOM      5  C   UNL d   1      56.720   0.404  32.318  0.00  0.00     0.040 A 
ATOM      6  C   UNL d   1      55.881  -1.487  32.891  0.00  0.00     0.281 C 
ATOM      7  O   UNL d   1      55.490  -1.401  33.586  0.00  0.00    -0.265 OA
ATOM      8  C   UNL d   1      55.914  -2.218  32.512  0.00  0.00     0.068 C 
ENDROOT
BRANCH   3   9
ATOM      9  C   UNL d   1      55.936   0.189  33.540  0.00  0.00     0.057 A 
ATOM     10  C   UNL d   1      56.395   0.433  34.156  0.00  0.00     0.197 A 
ATOM     11  O   UNL d   1      57.203   0.441  34.092  0.00  0.00    -0.286 OA
ATOM     12  C   UNL d   1      56.044   0.682  34.867  0.00  0.00     0.042 A 
ATOM     13  C   UNL d   1      55.223   0.682  34.953  0.00  0.00     0.003 A 
ATOM     14  C   UNL d   1      54.773   0.430  34.314  0.00  0.00     0.000 A 
ATOM     15  C   UNL d   1      55.116   0.190  33.628  0.00  0.00     0.005 A 
ENDBRANCH   3   9
BRANCH   4  16
ATOM     16  C   UNL d   1      57.415   0.182  31.052  0.00  0.00     0.039 A 
ATOM     17  C   UNL d   1      57.041   0.435  30.361  0.00  0.00     0.101 A 
ATOM     18  N   UNL d   1      57.491   0.682  29.715  0.00  0.00    -0.242 NA
ATOM     19  C   UNL d   1      58.315   0.676  29.760  0.00  0.00     0.099 A 
ATOM     20  C   UNL d   1      58.689   0.424  30.451  0.00  0.00     0.021 A 
ATOM     21  C   UNL d   1      58.238   0.177  31.097  0.00  0.00     0.005 A 
ENDBRANCH   4  16
TORSDOF 2
ENDMDL
MODEL 5
REMARK VINA RESULT:      -3.4      1.848      4.179
REMARK  2 active torsions:
REMARK  status: ('A' for Active; 'I' for Inactive)
REMARK       I    between atoms: C_7  and  N_1 
REMARK    1  A    between atoms: C_6  and  C_3 
REMARK    2  A    between atoms: C_8  and  C_4 
ROOT
ATOM      1  N   UNL d   1      58.069   0.292  29.688  0.00  0.00    -0.195 N 
ATOM      2  N   UNL d   1      57.393   0.292  30.138  0.00  0.00    -0.163 NA
ATOM      3  C   UNL d   1      58.704   0.081  30.169  0.00  0.00     0.091 A 
ATOM      4  C   UNL d   1      57.610   0.078  30.906  0.00  0.00     0.104 A 
ATOM      5  C   UNL d   1      58.415  -0.050  30.918  0.00  0.00     0.040 A 
ATOM      6  C   UNL d   1      58.122   0.479  28.857  0.00  0.00     0.281 C 
ATOM      7  O   UNL d   1      58.829   0.458  28.478  0.00  0.00    -0.265 OA
ATOM      8  C   UNL d   1      57.432   0.681  28.456  0.00  0.00     0.068 C 
ENDROOT
BRANCH   3   9
ATOM      9  C   UNL d   1      59.494   0.015  29.924  0.00  0.00     0.057 A 
ATOM     10  C   UNL d   1      59.801  -0.709  29.749  0.00  0.00     0.197 A 
ATOM     11  O   UNL d   1      59.345  -1.376  29.809  0.00  0.00    -0.286 OA
ATOM     12  C   UNL d   1      60.591  -0.781  29.503  0.00  0.00     0.042 A 
ATOM     13  C   UNL d   1      61.073  -0.113  29.436  0.00  0.00     0.003 A 
ATOM     14  C   UNL d   1      60.742   0.614  29.619  0.00  0.00     0.000 A 
ATOM     15  C   UNL d   1      59.976   0.680  29.856  0.00  0.00     0.005 A 
ENDBRANCH   3   9
BRANCH   4  16
ATOM     16  C   UNL d   1      57.100   0.006  31.550  0.00  0.00     0.039 A 
ATOM     17  C   UNL d   1      56.897   0.672  31.993  0.00  0.00     0.101 A 
ATOM     18  N   UNL d   1      56.386   0.600  32.637  0.00  0.00    -0.242 NA
ATOM     19  C   UNL d   1      56.078  -0.139  32.838  0.00  0.00     0.099 A 
ATOM     20  C   UNL d   1      56.281  -0.805  32.396  0.00  0.00     0.021 A 
ATOM     21  C   UNL d   1      56.792  -0.733  31.751  0.00  0.00     0.005 A 
ENDBRANCH   4  16
TORSDOF 2
ENDMDL
MODEL 6
REMARK VINA RESULT:      -2.5      1.456      3.959
REMARK  2 active torsions:
REMARK  status: ('A' for Active; 'I' for Inactive)
REMARK       I    between atoms: C_7  and  N_1 
REMARK    1  A    between atoms: C_6  and  C_3 
REMARK    2  A    between atoms: C_8  and  C_4 
ROOT
ATOM      1  N   UNL d   1      57.228   0.426  33.197  0.00  0.00    -0.195 N 
ATOM      2  N   UNL d   1      56.707   0.561  33.805  0.00  0.00    -0.163 NA
ATOM      3  C   UNL d   1      56.797   0.228  32.522  0.00  0.00     0.091 A 
ATOM      4  C   UNL d   1      55.945   0.447  33.506  0.00  0.00     0.104 A 
ATOM      5  C   UNL d   1      56.008   0.243  32.719  0.00  0.00     0.040 A 
ATOM      6  C   UNL d   1      58.078   0.477  33.239  0.00  0.00     0.281 C 
ATOM      7  O   UNL d   1      58.529   0.328  32.593  0.00  0.00    -0.265 OA
ATOM      8  C   UNL d   1      58.423   0.682  33.959  0.00  0.00     0.068 C 
ENDROOT
BRANCH   3   9
ATOM      9  C   UNL d   1      57.119   0.049  31.779  0.00  0.00     0.057 A 
ATOM     10  C   UNL d   1      57.059  -0.700  31.487  0.00  0.00     0.197 A 
ATOM     11  O   UNL d   1      56.687  -1.281  31.912  0.00  0.00    -0.286 OA
ATOM     12  C   UNL d   1      57.380  -0.887  30.744  0.00  0.00     0.042 A 
ATOM     13  C   UNL d   1      57.763  -0.309  30.294  0.00  0.00     0.003 A 
ATOM     14  C   UNL d   1      57.813   0.447  30.609  0.00  0.00     0.000 A 
ATOM     15  C   UNL d   1      57.502   0.624  31.329  0.00  0.00     0.005 A 
ENDBRANCH   3   9
BRANCH   4  16
ATOM     16  C   UNL d   1      55.242   0.525  33.931  0.00  0.00     0.039 A 
ATOM     17  C   UNL d   1      54.523   0.590  33.531  0.00  0.00     0.101 A 
ATOM     18  N   UNL d   1      53.820   0.668  33.956  0.00  0.00    -0.242 NA
ATOM     19  C   UNL d   1      53.837   0.682  34.781  0.00  0.00     0.099 A 
ATOM     20  C   UNL d   1      54.556   0.617  35.181  0.00  0.00     0.021 A 
ATOM     21  C   UNL d   1      55.259   0.538  34.755  0.00  0.00     0.005 A 
ENDBRANCH   4  16
TORSDOF 2
ENDMDL
