MODEL 1
REMARK VINA RESULT:       4.9      0.000      0.000
REMARK  6 active torsions:
REMARK  status: ('A' for Active; 'I' for Inactive)
REMARK    1  A    between atoms: C_3  and  N_1 
REMARK       I    between atoms: C_4  and  N_1 
REMARK    2  A    between atoms: C_6  and  N_1 
REMARK    3  A    between atoms: N_2  and  C_3 
REMARK    4  A    between atoms: C_7  and  C_4 
REMARK    5  A    between atoms: O_22  and  C_15 
REMARK    6  A    between atoms: C_24  and  O_22 
ROOT
ATOM      1  N   UNL d   1      32.641  21.355 -21.991  0.00  0.00    -0.258 N 
ATOM      2  C   UNL d   1      32.389  20.579 -21.848  0.00  0.00     0.266 C 
ATOM      3  O   UNL d   1      32.020  20.381 -21.199  0.00  0.00    -0.267 OA
ENDROOT
BRANCH   1   4
ATOM      4  C   UNL d   1      33.034  21.549 -22.692  0.00  0.00     0.171 C 
BRANCH   4   5
ATOM      5  N   UNL d   1      33.033  22.247 -23.131  0.00  0.00    -0.257 N 
ATOM      6  C   UNL d   1      32.840  22.336 -23.926  0.00  0.00     0.266 A 
ATOM      7  O   UNL d   1      32.607  21.724 -24.440  0.00  0.00    -0.267 OA
ATOM      8  C   UNL d   1      32.916  23.139 -24.133  0.00  0.00     0.063 A 
ATOM      9  C   UNL d   1      33.159  23.549 -23.458  0.00  0.00     0.024 A 
ATOM     10  C   UNL d   1      33.233  23.009 -22.836  0.00  0.00     0.085 A 
ENDBRANCH   4   5
ENDBRANCH   1   4
BRANCH   1  11
ATOM     11  C   UNL d   1      32.500  21.946 -21.426  0.00  0.00     0.068 A 
ATOM     12  C   UNL d   1      33.098  22.164 -20.892  0.00  0.00     0.018 A 
ATOM     13  C   UNL d   1      32.941  22.748 -20.342  0.00  0.00     0.002 A 
ATOM     14  C   UNL d   1      32.215  23.114 -20.310  0.00  0.00     0.000 A 
ATOM     15  C   UNL d   1      31.626  22.899 -20.835  0.00  0.00     0.002 A 
ATOM     16  C   UNL d   1      32.066  23.702 -19.751  0.00  0.00     0.000 C 
ATOM     17  C   UNL d   1      31.759  22.317 -21.395  0.00  0.00     0.018 A 
ENDBRANCH   1  11
BRANCH   2  18
ATOM     18  C   UNL d   1      32.535  20.002 -22.417  0.00  0.00     0.057 A 
ATOM     19  C   UNL d   1      33.090  19.415 -22.265  0.00  0.00     0.007 A 
ATOM     20  C   UNL d   1      33.240  18.837 -22.829  0.00  0.00     0.025 A 
ATOM     21  C   UNL d   1      32.828  18.849 -23.553  0.00  0.00     0.100 A 
ATOM     22  C   UNL d   1      32.276  19.436 -23.701  0.00  0.00     0.025 A 
ATOM     23  C   UNL d   1      32.119  20.024 -23.135  0.00  0.00     0.007 A 
BRANCH  21  24
ATOM     24  O   UNL d   1      32.990  18.269 -24.100  0.00  0.00    -0.305 OA
BRANCH  24  25
ATOM     25  C   UNL d   1      32.383  17.844 -24.467  0.00  0.00     0.123 C 
ATOM     26  C   UNL d   1      32.552  17.141 -24.857  0.00  0.00     0.029 C 
ENDBRANCH  24  25
ENDBRANCH  21  24
ENDBRANCH   2  18
TORSDOF 6
ENDMDL
MODEL 2
REMARK VINA RESULT:       6.2      1.220      4.239
REMARK  6 active torsions:
REMARK  status: ('A' for Active; 'I' for Inactive)
REMARK    1  A    between atoms: C_3  and  N_1 
REMARK       I    between atoms: C_4  and  N_1 
REMARK    2  A    between atoms: C_6  and  N_1 
REMARK    3  A    between atoms: N_2  and  C_3 
REMARK    4  A    between atoms: C_7  and  C_4 
REMARK    5  A    between atoms: O_22  and  C_15 
REMARK    6  A    between atoms: C_24  and  O_22 
ROOT
ATOM      1  N   UNL d   1      32.715  20.000 -22.301  0.00  0.00    -0.258 N 
ATOM      2  C   UNL d   1      32.368  20.159 -21.565  0.00  0.00     0.266 C 
ATOM      3  O   UNL d   1      31.938  19.636 -21.193  0.00  0.00    -0.267 OA
ENDROOT
BRANCH   1   4
ATOM      4  C   UNL d   1      33.171  20.571 -22.685  0.00  0.00     0.171 C 
BRANCH   4   5
ATOM      5  N   UNL d   1      33.192  20.796 -23.479  0.00  0.00    -0.257 N 
ATOM      6  C   UNL d   1      33.180  21.562 -23.780  0.00  0.00     0.266 A 
ATOM      7  O   UNL d   1      33.146  22.260 -23.329  0.00  0.00    -0.267 OA
ATOM      8  C   UNL d   1      33.210  21.523 -24.612  0.00  0.00     0.063 A 
ATOM      9  C   UNL d   1      33.239  20.725 -24.824  0.00  0.00     0.024 A 
ATOM     10  C   UNL d   1      33.228  20.270 -24.134  0.00  0.00     0.085 A 
ENDBRANCH   4   5
ENDBRANCH   1   4
BRANCH   1  11
ATOM     11  C   UNL d   1      32.603  19.259 -22.658  0.00  0.00     0.068 A 
ATOM     12  C   UNL d   1      31.860  19.054 -22.969  0.00  0.00     0.018 A 
ATOM     13  C   UNL d   1      31.767  18.320 -23.317  0.00  0.00     0.002 A 
ATOM     14  C   UNL d   1      32.387  17.793 -23.363  0.00  0.00     0.000 A 
ATOM     15  C   UNL d   1      33.118  17.995 -23.057  0.00  0.00     0.002 A 
ATOM     16  C   UNL d   1      32.283  17.055 -23.717  0.00  0.00     0.000 C 
ATOM     17  C   UNL d   1      33.235  18.724 -22.704  0.00  0.00     0.018 A 
ENDBRANCH   1  11
BRANCH   2  18
ATOM     18  C   UNL d   1      32.486  20.897 -21.222  0.00  0.00     0.057 A 
ATOM     19  C   UNL d   1      31.965  21.511 -21.390  0.00  0.00     0.007 A 
ATOM     20  C   UNL d   1      32.079  22.249 -21.049  0.00  0.00     0.025 A 
ATOM     21  C   UNL d   1      32.723  22.373 -20.535  0.00  0.00     0.100 A 
ATOM     22  C   UNL d   1      33.240  21.759 -20.370  0.00  0.00     0.025 A 
ATOM     23  C   UNL d   1      33.132  21.009 -20.711  0.00  0.00     0.007 A 
BRANCH  21  24
ATOM     24  O   UNL d   1      32.820  23.111 -20.207  0.00  0.00    -0.305 OA
BRANCH  24  25
ATOM     25  C   UNL d   1      32.322  23.383 -19.606  0.00  0.00     0.123 C 
ATOM     26  C   UNL d   1      32.447  23.145 -18.830  0.00  0.00     0.029 C 
ENDBRANCH  24  25
ENDBRANCH  21  24
ENDBRANCH   2  18
TORSDOF 6
ENDMDL
MODEL 3
REMARK VINA RESULT:       6.8      1.647      4.904
REMARK  6 active torsions:
REMARK  status: ('A' for Active; 'I' for Inactive)
REMARK    1  A    between atoms: C_3  and  N_1 
REMARK       I    between atoms: C_4  and  N_1 
REMARK    2  A    between atoms: C_6  and  N_1 
REMARK    3  A    between atoms: N_2  and  C_3 
REMARK    4  A    between atoms: C_7  and  C_4 
REMARK    5  A    between atoms: O_22  and  C_15 
REMARK    6  A    between atoms: C_24  and  O_22 
ROOT
ATOM      1  N   UNL d   1      32.451  18.338 -23.480  0.00  0.00    -0.258 N 
ATOM      2  C   UNL d   1      32.869  18.401 -22.767  0.00  0.00     0.266 C 
ATOM      3  O   UNL d   1      33.241  17.800 -22.456  0.00  0.00    -0.267 OA
ENDROOT
BRANCH   1   4
ATOM      4  C   UNL d   1      32.059  18.991 -23.800  0.00  0.00     0.171 C 
BRANCH   4   5
ATOM      5  N   UNL d   1      31.356  19.037 -24.229  0.00  0.00    -0.257 N 
ATOM      6  C   UNL d   1      31.167  19.577 -24.820  0.00  0.00     0.266 A 
ATOM      7  O   UNL d   1      31.662  20.186 -25.097  0.00  0.00    -0.267 OA
ATOM      8  C   UNL d   1      30.399  19.414 -25.096  0.00  0.00     0.063 A 
ATOM      9  C   UNL d   1      30.111  18.767 -24.671  0.00  0.00     0.024 A 
ATOM     10  C   UNL d   1      30.693  18.528 -24.134  0.00  0.00     0.085 A 
ENDBRANCH   4   5
ENDBRANCH   1   4
BRANCH   1  11
ATOM     11  C   UNL d   1      32.425  17.611 -23.880  0.00  0.00     0.068 A 
ATOM     12  C   UNL d   1      31.878  17.029 -23.651  0.00  0.00     0.018 A 
ATOM     13  C   UNL d   1      31.866  16.318 -24.056  0.00  0.00     0.002 A 
ATOM     14  C   UNL d   1      32.377  16.176 -24.673  0.00  0.00     0.000 A 
ATOM     15  C   UNL d   1      32.916  16.749 -24.898  0.00  0.00     0.002 A 
ATOM     16  C   UNL d   1      32.357  15.455 -25.075  0.00  0.00     0.000 C 
ATOM     17  C   UNL d   1      32.947  17.467 -24.508  0.00  0.00     0.018 A 
ENDBRANCH   1  11
BRANCH   2  18
ATOM     18  C   UNL d   1      32.887  19.127 -22.381  0.00  0.00     0.057 A 
ATOM     19  C   UNL d   1      32.991  19.816 -22.817  0.00  0.00     0.007 A 
ATOM     20  C   UNL d   1      33.010  20.544 -22.436  0.00  0.00     0.025 A 
ATOM     21  C   UNL d   1      32.924  20.579 -21.608  0.00  0.00     0.100 A 
ATOM     22  C   UNL d   1      32.820  19.890 -21.177  0.00  0.00     0.025 A 
ATOM     23  C   UNL d   1      32.800  19.151 -21.555  0.00  0.00     0.007 A 
BRANCH  21  24
ATOM     24  O   UNL d   1      32.945  21.308 -21.247  0.00  0.00    -0.305 OA
BRANCH  24  25
ATOM     25  C   UNL d   1      32.279  21.798 -21.230  0.00  0.00     0.123 C 
ATOM     26  C   UNL d   1      32.342  22.584 -21.462  0.00  0.00     0.029 C 
ENDBRANCH  24  25
ENDBRANCH  21  24
ENDBRANCH   2  18
TORSDOF 6
ENDMDL
MODEL 4
REMARK VINA RESULT:       7.5      3.908      6.089
REMARK  6 active torsions:
REMARK  status: ('A' for Active; 'I' for Inactive)
REMARK    1  A    between atoms: C_3  and  N_1 
REMARK       I    between atoms: C_4  and  N_1 
REMARK    2  A    between atoms: C_6  and  N_1 
REMARK    3  A    between atoms: N_2  and  C_3 
REMARK    4  A    between atoms: C_7  and  C_4 
REMARK    5  A    between atoms: O_22  and  C_15 
REMARK    6  A    between atoms: C_24  and  O_22 
ROOT
ATOM      1  N   UNL d   1      30.071  17.477 -24.254  0.00  0.00    -0.258 N 
ATOM      2  C   UNL d   1      29.315  17.723 -24.017  0.00  0.00     0.266 C 
ATOM      3  O   UNL d   1      29.146  18.466 -23.894  0.00  0.00    -0.267 OA
ENDROOT
BRANCH   1   4
ATOM      4  C   UNL d   1      30.234  16.677 -24.381  0.00  0.00     0.171 C 
BRANCH   4   5
ATOM      5  N   UNL d   1      30.949  16.266 -24.363  0.00  0.00    -0.257 N 
ATOM      6  C   UNL d   1      31.201  15.729 -23.793  0.00  0.00     0.266 A 
ATOM      7  O   UNL d   1      30.771  15.500 -23.119  0.00  0.00    -0.267 OA
ATOM      8  C   UNL d   1      31.959  15.453 -24.002  0.00  0.00     0.063 A 
ATOM      9  C   UNL d   1      32.175  15.824 -24.708  0.00  0.00     0.024 A 
ATOM     10  C   UNL d   1      31.560  16.326 -24.938  0.00  0.00     0.085 A 
ENDBRANCH   4   5
ENDBRANCH   1   4
BRANCH   1  11
ATOM     11  C   UNL d   1      30.672  18.038 -24.364  0.00  0.00     0.068 A 
ATOM     12  C   UNL d   1      30.623  18.583 -24.989  0.00  0.00     0.018 A 
ATOM     13  C   UNL d   1      31.224  19.130 -25.083  0.00  0.00     0.002 A 
ATOM     14  C   UNL d   1      31.862  19.147 -24.577  0.00  0.00     0.000 A 
ATOM     15  C   UNL d   1      31.910  18.610 -23.961  0.00  0.00     0.002 A 
ATOM     16  C   UNL d   1      32.463  19.703 -24.680  0.00  0.00     0.000 C 
ATOM     17  C   UNL d   1      31.320  18.054 -23.848  0.00  0.00     0.018 A 
ENDBRANCH   1  11
BRANCH   2  18
ATOM     18  C   UNL d   1      28.728  17.156 -23.912  0.00  0.00     0.057 A 
ATOM     19  C   UNL d   1      28.448  16.737 -24.561  0.00  0.00     0.007 A 
ATOM     20  C   UNL d   1      27.862  16.170 -24.461  0.00  0.00     0.025 A 
ATOM     21  C   UNL d   1      27.554  16.023 -23.700  0.00  0.00     0.100 A 
ATOM     22  C   UNL d   1      27.836  16.442 -23.056  0.00  0.00     0.025 A 
ATOM     23  C   UNL d   1      28.429  17.017 -23.149  0.00  0.00     0.007 A 
BRANCH  21  24
ATOM     24  O   UNL d   1      26.974  15.458 -23.620  0.00  0.00    -0.305 OA
BRANCH  24  25
ATOM     25  C   UNL d   1      26.256  15.629 -23.247  0.00  0.00     0.123 C 
ATOM     26  C   UNL d   1      25.547  15.485 -23.635  0.00  0.00     0.029 C 
ENDBRANCH  24  25
ENDBRANCH  21  24
ENDBRANCH   2  18
TORSDOF 6
ENDMDL
