MODEL 1
REMARK VINA RESULT:      41.5      0.000      0.000
REMARK  4 active torsions:
REMARK  status: ('A' for Active; 'I' for Inactive)
REMARK    1  A    between atoms: C_11  and  C_3 
REMARK    2  A    between atoms: N_10  and  C_4 
REMARK    3  A    between atoms: C_13  and  N_10 
REMARK    4  A    between atoms: C_14  and  C_13 
ROOT
ATOM      1  C   UNL d   1      13.442  13.679  -4.375  0.00  0.00     0.167 A 
ATOM      2  N   UNL d   1      13.418  13.374  -3.610  0.00  0.00    -0.195 N 
ATOM      3  C   UNL d   1      13.563  14.487  -4.320  0.00  0.00     0.057 A 
ATOM      4  C   UNL d   1      13.302  12.569  -3.490  0.00  0.00     0.167 A 
ATOM      5  N   UNL d   1      13.525  13.997  -3.089  0.00  0.00    -0.161 NA
ATOM      6  N   UNL d   1      13.349  13.178  -5.021  0.00  0.00    -0.227 NA
ATOM      7  C   UNL d   1      13.209  12.066  -4.143  0.00  0.00     0.058 A 
ATOM      8  C   UNL d   1      13.614  14.678  -3.518  0.00  0.00     0.124 A 
ATOM      9  C   UNL d   1      13.233  12.368  -4.899  0.00  0.00     0.086 A 
ATOM     10  C   UNL d   1      13.138  11.847  -5.534  0.00  0.00     0.021 C 
ENDROOT
BRANCH   4  11
ATOM     11  N   UNL d   1      13.278  12.264  -2.725  0.00  0.00    -0.224 NA
BRANCH  11  12
ATOM     12  C   UNL d   1      13.890  11.786  -2.454  0.00  0.00     0.120 C 
BRANCH  12  13
ATOM     13  C   UNL d   1      14.093  11.787  -1.646  0.00  0.00     0.101 A 
ATOM     14  N   UNL d   1      14.888  11.795  -1.416  0.00  0.00    -0.242 NA
ATOM     15  C   UNL d   1      15.088  11.796  -0.622  0.00  0.00     0.099 A 
ATOM     16  C   UNL d   1      14.495  11.789  -0.043  0.00  0.00     0.021 A 
ATOM     17  C   UNL d   1      13.703  11.781  -0.274  0.00  0.00     0.003 A 
ATOM     18  C   UNL d   1      13.501  11.780  -1.077  0.00  0.00     0.021 A 
ENDBRANCH  12  13
ENDBRANCH  11  12
ENDBRANCH   4  11
BRANCH   3  19
ATOM     19  C   UNL d   1      13.613  14.954  -5.000  0.00  0.00     0.004 A 
ATOM     20  C   UNL d   1      12.929  15.315  -5.294  0.00  0.00     0.000 A 
ATOM     21  C   UNL d   1      12.971  15.780  -5.969  0.00  0.00     0.000 A 
ATOM     22  C   UNL d   1      13.699  15.888  -6.357  0.00  0.00     0.000 A 
ATOM     23  C   UNL d   1      14.375  15.525  -6.057  0.00  0.00     0.000 A 
ATOM     24  C   UNL d   1      14.330  15.058  -5.378  0.00  0.00     0.000 A 
ENDBRANCH   3  19
TORSDOF 4
ENDMDL
