MODEL 1
REMARK VINA RESULT:      -9.8      0.000      0.000
REMARK  4 active torsions:
REMARK  status: ('A' for Active; 'I' for Inactive)
REMARK    1  A    between atoms: C_6  and  N_1 
REMARK    2  A    between atoms: C_8  and  C_14 
REMARK    3  A    between atoms: O_20  and  C_8 
REMARK    4  A    between atoms: C_22  and  O_20 
ROOT
ATOM      1  N   UNL d   1      52.201  33.793  53.399  0.00  0.00    -0.242 N 
ATOM      2  C   UNL d   1      52.648  34.333  53.879  0.00  0.00     0.267 A 
ATOM      3  C   UNL d   1      52.487  33.118  53.387  0.00  0.00     0.267 A 
ATOM      4  C   UNL d   1      53.267  33.868  54.164  0.00  0.00     0.061 A 
ATOM      5  C   UNL d   1      53.165  33.098  53.852  0.00  0.00     0.061 A 
ATOM      6  C   UNL d   1      53.701  32.482  54.032  0.00  0.00     0.005 A 
ATOM      7  C   UNL d   1      53.904  34.014  54.653  0.00  0.00     0.005 A 
ATOM      8  O   UNL d   1      52.519  35.124  54.037  0.00  0.00    -0.267 OA
ATOM      9  O   UNL d   1      52.168  32.475  52.964  0.00  0.00    -0.267 OA
ATOM     10  C   UNL d   1      54.328  32.670  54.527  0.00  0.00     0.000 A 
ATOM     11  C   UNL d   1      54.430  33.440  54.839  0.00  0.00     0.000 A 
ATOM     12  C   UNL d   1      55.066  33.586  55.327  0.00  0.00     0.000 C 
ENDROOT
BRANCH   1  13
ATOM     13  C   UNL d   1      51.515  33.973  52.979  0.00  0.00     0.070 A 
ATOM     14  C   UNL d   1      51.553  34.222  52.190  0.00  0.00     0.018 A 
ATOM     15  C   UNL d   1      50.867  34.403  51.770  0.00  0.00     0.007 A 
ATOM     16  C   UNL d   1      50.127  34.341  52.122  0.00  0.00     0.064 A 
ATOM     17  C   UNL d   1      50.071  34.082  52.947  0.00  0.00     0.007 A 
ATOM     18  C   UNL d   1      50.804  33.899  53.364  0.00  0.00     0.018 A 
BRANCH  16  19
ATOM     19  C   UNL d   1      49.466  34.533  51.660  0.00  0.00     0.300 C 
ATOM     20  O   UNL d   1      49.418  34.238  50.866  0.00  0.00    -0.259 OA
BRANCH  19  21
ATOM     21  O   UNL d   1      48.904  34.984  51.975  0.00  0.00    -0.271 OA
BRANCH  21  22
ATOM     22  C   UNL d   1      48.270  35.177  51.533  0.00  0.00     0.126 C 
ATOM     23  C   UNL d   1      47.673  35.704  51.831  0.00  0.00     0.029 C 
ENDBRANCH  21  22
ENDBRANCH  19  21
ENDBRANCH  16  19
ENDBRANCH   1  13
TORSDOF 4
ENDMDL
MODEL 2
REMARK VINA RESULT:      -7.9      1.063      5.056
REMARK  4 active torsions:
REMARK  status: ('A' for Active; 'I' for Inactive)
REMARK    1  A    between atoms: C_6  and  N_1 
REMARK    2  A    between atoms: C_8  and  C_14 
REMARK    3  A    between atoms: O_20  and  C_8 
REMARK    4  A    between atoms: C_22  and  O_20 
ROOT
ATOM      1  N   UNL d   1      49.812  34.617  52.589  0.00  0.00    -0.242 N 
ATOM      2  C   UNL d   1      49.296  34.566  51.917  0.00  0.00     0.267 A 
ATOM      3  C   UNL d   1      49.569  35.079  53.102  0.00  0.00     0.267 A 
ATOM      4  C   UNL d   1      48.683  35.085  52.107  0.00  0.00     0.061 A 
ATOM      5  C   UNL d   1      48.856  35.410  52.859  0.00  0.00     0.061 A 
ATOM      6  C   UNL d   1      48.343  35.962  53.221  0.00  0.00     0.005 A 
ATOM      7  C   UNL d   1      48.000  35.315  51.726  0.00  0.00     0.005 A 
ATOM      8  O   UNL d   1      49.364  34.122  51.235  0.00  0.00    -0.267 OA
ATOM      9  O   UNL d   1      49.959  35.240  53.820  0.00  0.00    -0.267 OA
ATOM     10  C   UNL d   1      47.667  36.168  52.804  0.00  0.00     0.000 A 
ATOM     11  C   UNL d   1      47.494  35.843  52.053  0.00  0.00     0.000 A 
ATOM     12  C   UNL d   1      46.812  36.073  51.671  0.00  0.00     0.000 C 
ENDROOT
BRANCH   1  13
ATOM     13  C   UNL d   1      50.520  34.205  52.687  0.00  0.00     0.070 A 
ATOM     14  C   UNL d   1      50.547  33.507  53.132  0.00  0.00     0.018 A 
ATOM     15  C   UNL d   1      51.254  33.094  53.230  0.00  0.00     0.007 A 
ATOM     16  C   UNL d   1      51.951  33.365  52.890  0.00  0.00     0.064 A 
ATOM     17  C   UNL d   1      51.940  34.094  52.421  0.00  0.00     0.007 A 
ATOM     18  C   UNL d   1      51.186  34.505  52.334  0.00  0.00     0.018 A 
BRANCH  16  19
ATOM     19  C   UNL d   1      52.638  32.917  53.015  0.00  0.00     0.300 C 
ATOM     20  O   UNL d   1      52.753  32.205  52.568  0.00  0.00    -0.259 OA
BRANCH  19  21
ATOM     21  O   UNL d   1      53.161  33.169  53.546  0.00  0.00    -0.271 OA
BRANCH  21  22
ATOM     22  C   UNL d   1      53.820  32.741  53.673  0.00  0.00     0.126 C 
ATOM     23  C   UNL d   1      54.396  32.984  54.249  0.00  0.00     0.029 C 
ENDBRANCH  21  22
ENDBRANCH  19  21
ENDBRANCH  16  19
ENDBRANCH   1  13
TORSDOF 4
ENDMDL
MODEL 3
REMARK VINA RESULT:      -7.2      2.452      4.581
REMARK  4 active torsions:
REMARK  status: ('A' for Active; 'I' for Inactive)
REMARK    1  A    between atoms: C_6  and  N_1 
REMARK    2  A    between atoms: C_8  and  C_14 
REMARK    3  A    between atoms: O_20  and  C_8 
REMARK    4  A    between atoms: C_22  and  O_20 
ROOT
ATOM      1  N   UNL d   1      53.099  32.856  53.788  0.00  0.00    -0.242 N 
ATOM      2  C   UNL d   1      53.344  33.324  54.453  0.00  0.00     0.267 A 
ATOM      3  C   UNL d   1      52.840  33.260  53.235  0.00  0.00     0.267 A 
ATOM      4  C   UNL d   1      53.189  34.098  54.210  0.00  0.00     0.061 A 
ATOM      5  C   UNL d   1      52.869  34.057  53.437  0.00  0.00     0.061 A 
ATOM      6  C   UNL d   1      52.648  34.747  53.022  0.00  0.00     0.005 A 
ATOM      7  C   UNL d   1      53.283  34.828  54.559  0.00  0.00     0.005 A 
ATOM      8  O   UNL d   1      53.659  33.092  55.170  0.00  0.00    -0.267 OA
ATOM      9  O   UNL d   1      52.561  32.952  52.513  0.00  0.00    -0.267 OA
ATOM     10  C   UNL d   1      52.760  35.463  53.409  0.00  0.00     0.000 A 
ATOM     11  C   UNL d   1      53.079  35.504  54.181  0.00  0.00     0.000 A 
ATOM     12  C   UNL d   1      53.174  36.234  54.531  0.00  0.00     0.000 C 
ENDROOT
BRANCH   1  13
ATOM     13  C   UNL d   1      53.135  32.034  53.737  0.00  0.00     0.070 A 
ATOM     14  C   UNL d   1      52.446  31.575  53.767  0.00  0.00     0.018 A 
ATOM     15  C   UNL d   1      52.481  30.753  53.716  0.00  0.00     0.007 A 
ATOM     16  C   UNL d   1      53.201  30.366  53.632  0.00  0.00     0.064 A 
ATOM     17  C   UNL d   1      53.932  30.832  53.598  0.00  0.00     0.007 A 
ATOM     18  C   UNL d   1      53.866  31.691  53.655  0.00  0.00     0.018 A 
BRANCH  16  19
ATOM     19  C   UNL d   1      53.188  29.539  53.585  0.00  0.00     0.300 C 
ATOM     20  O   UNL d   1      52.715  29.168  52.985  0.00  0.00    -0.259 OA
BRANCH  19  21
ATOM     21  O   UNL d   1      53.616  29.124  54.098  0.00  0.00    -0.271 OA
BRANCH  21  22
ATOM     22  C   UNL d   1      53.307  28.459  54.410  0.00  0.00     0.126 C 
ATOM     23  C   UNL d   1      53.665  28.086  55.084  0.00  0.00     0.029 C 
ENDBRANCH  21  22
ENDBRANCH  19  21
ENDBRANCH  16  19
ENDBRANCH   1  13
TORSDOF 4
ENDMDL
