MODEL 1
REMARK VINA RESULT:      -6.6      0.000      0.000
REMARK  4 active torsions:
REMARK  status: ('A' for Active; 'I' for Inactive)
REMARK    1  A    between atoms: C_6  and  C_2 
REMARK    2  A    between atoms: C_7  and  C_5 
REMARK    3  A    between atoms: O_8  and  C_7 
REMARK    4  A    between atoms: C_9  and  O_8 
ROOT
ATOM      1  N   UNL d   1     -45.712  12.579  23.315  0.00  0.00    -0.121 NA
ATOM      2  C   UNL d   1     -45.768  11.763  23.373  0.00  0.00     0.204 A 
ATOM      3  O   UNL d   1     -46.574  11.569  23.431  0.00  0.00    -0.267 OA
ATOM      4  N   UNL d   1     -46.473  12.896  23.336  0.00  0.00    -0.119 NA
ATOM      5  C   UNL d   1     -47.007  12.270  23.407  0.00  0.00     0.230 A 
ENDROOT
BRANCH   5   6
ATOM      6  C   UNL d   1     -47.828  12.341  23.448  0.00  0.00     0.169 C 
BRANCH   6   7
ATOM      7  O   UNL d   1     -48.312  11.835  23.007  0.00  0.00    -0.301 OA
BRANCH   7   8
ATOM      8  C   UNL d   1     -49.133  11.943  23.020  0.00  0.00     0.100 A 
ATOM      9  C   UNL d   1     -49.515  12.291  22.378  0.00  0.00     0.025 A 
ATOM     10  C   UNL d   1     -50.331  12.395  22.397  0.00  0.00     0.002 A 
ATOM     11  C   UNL d   1     -50.767  12.153  23.053  0.00  0.00     0.000 A 
ATOM     12  C   UNL d   1     -50.380  11.803  23.696  0.00  0.00     0.002 A 
ATOM     13  C   UNL d   1     -49.562  11.694  23.687  0.00  0.00     0.025 A 
ENDBRANCH   7   8
ENDBRANCH   6   7
ENDBRANCH   5   6
BRANCH   2  14
ATOM     14  C   UNL d   1     -45.141  11.227  23.374  0.00  0.00     0.043 A 
ATOM     15  C   UNL d   1     -44.410  11.443  23.053  0.00  0.00     0.004 A 
ATOM     16  C   UNL d   1     -43.784  10.907  23.054  0.00  0.00     0.000 A 
ATOM     17  C   UNL d   1     -43.887  10.155  23.376  0.00  0.00     0.000 A 
ATOM     18  C   UNL d   1     -44.618   9.938  23.698  0.00  0.00     0.000 A 
ATOM     19  C   UNL d   1     -45.244  10.475  23.697  0.00  0.00     0.004 A 
ENDBRANCH   2  14
TORSDOF 4
ENDMDL
MODEL 2
REMARK VINA RESULT:      -6.5      2.153      5.037
REMARK  4 active torsions:
REMARK  status: ('A' for Active; 'I' for Inactive)
REMARK    1  A    between atoms: C_6  and  C_2 
REMARK    2  A    between atoms: C_7  and  C_5 
REMARK    3  A    between atoms: O_8  and  C_7 
REMARK    4  A    between atoms: C_9  and  O_8 
ROOT
ATOM      1  N   UNL d   1     -48.015  15.210  22.422  0.00  0.00    -0.121 NA
ATOM      2  C   UNL d   1     -48.630  14.751  22.709  0.00  0.00     0.204 A 
ATOM      3  O   UNL d   1     -48.316  14.011  22.920  0.00  0.00    -0.267 OA
ATOM      4  N   UNL d   1     -47.321  14.765  22.451  0.00  0.00    -0.119 NA
ATOM      5  C   UNL d   1     -47.507  14.023  22.760  0.00  0.00     0.230 A 
ENDROOT
BRANCH   5   6
ATOM      6  C   UNL d   1     -46.974  13.406  22.884  0.00  0.00     0.169 C 
BRANCH   6   7
ATOM      7  O   UNL d   1     -47.105  12.857  23.488  0.00  0.00    -0.301 OA
BRANCH   7   8
ATOM      8  C   UNL d   1     -46.672  12.150  23.499  0.00  0.00     0.100 A 
ATOM      9  C   UNL d   1     -47.044  11.439  23.689  0.00  0.00     0.025 A 
ATOM     10  C   UNL d   1     -46.608  10.741  23.697  0.00  0.00     0.002 A 
ATOM     11  C   UNL d   1     -45.804  10.750  23.518  0.00  0.00     0.000 A 
ATOM     12  C   UNL d   1     -45.434  11.466  23.328  0.00  0.00     0.002 A 
ATOM     13  C   UNL d   1     -45.862  12.172  23.316  0.00  0.00     0.025 A 
ENDBRANCH   7   8
ENDBRANCH   6   7
ENDBRANCH   5   6
BRANCH   2  14
ATOM     14  C   UNL d   1     -49.420  14.976  22.779  0.00  0.00     0.043 A 
ATOM     15  C   UNL d   1     -49.656  15.477  23.394  0.00  0.00     0.004 A 
ATOM     16  C   UNL d   1     -50.446  15.702  23.463  0.00  0.00     0.000 A 
ATOM     17  C   UNL d   1     -51.001  15.428  22.918  0.00  0.00     0.000 A 
ATOM     18  C   UNL d   1     -50.766  14.928  22.303  0.00  0.00     0.000 A 
ATOM     19  C   UNL d   1     -49.976  14.702  22.234  0.00  0.00     0.004 A 
ENDBRANCH   2  14
TORSDOF 4
ENDMDL
MODEL 3
REMARK VINA RESULT:      -6.4      2.084      2.590
REMARK  4 active torsions:
REMARK  status: ('A' for Active; 'I' for Inactive)
REMARK    1  A    between atoms: C_6  and  C_2 
REMARK    2  A    between atoms: C_7  and  C_5 
REMARK    3  A    between atoms: O_8  and  C_7 
REMARK    4  A    between atoms: C_9  and  O_8 
ROOT
ATOM      1  N   UNL d   1     -46.466  13.538  22.606  0.00  0.00    -0.121 NA
ATOM      2  C   UNL d   1     -46.879  12.989  23.054  0.00  0.00     0.204 A 
ATOM      3  O   UNL d   1     -47.601  13.335  23.275  0.00  0.00    -0.267 OA
ATOM      4  N   UNL d   1     -46.924  14.222  22.545  0.00  0.00    -0.119 NA
ATOM      5  C   UNL d   1     -47.627  14.096  22.959  0.00  0.00     0.230 A 
ENDROOT
BRANCH   5   6
ATOM      6  C   UNL d   1     -48.242  14.639  23.039  0.00  0.00     0.169 C 
BRANCH   6   7
ATOM      7  O   UNL d   1     -48.899  14.602  22.538  0.00  0.00    -0.301 OA
BRANCH   7   8
ATOM      8  C   UNL d   1     -49.624  14.912  22.792  0.00  0.00     0.100 A 
ATOM      9  C   UNL d   1     -50.330  14.539  22.584  0.00  0.00     0.025 A 
ATOM     10  C   UNL d   1     -51.047  14.852  22.839  0.00  0.00     0.002 A 
ATOM     11  C   UNL d   1     -51.062  15.534  23.300  0.00  0.00     0.000 A 
ATOM     12  C   UNL d   1     -50.352  15.906  23.507  0.00  0.00     0.002 A 
ATOM     13  C   UNL d   1     -49.627  15.601  23.256  0.00  0.00     0.025 A 
ENDBRANCH   7   8
ENDBRANCH   6   7
ENDBRANCH   5   6
BRANCH   2  14
ATOM     14  C   UNL d   1     -46.626  12.229  23.254  0.00  0.00     0.043 A 
ATOM     15  C   UNL d   1     -47.176  11.662  23.499  0.00  0.00     0.004 A 
ATOM     16  C   UNL d   1     -46.924  10.902  23.698  0.00  0.00     0.000 A 
ATOM     17  C   UNL d   1     -46.123  10.709  23.652  0.00  0.00     0.000 A 
ATOM     18  C   UNL d   1     -45.574  11.277  23.407  0.00  0.00     0.000 A 
ATOM     19  C   UNL d   1     -45.826  12.036  23.208  0.00  0.00     0.004 A 
ENDBRANCH   2  14
TORSDOF 4
ENDMDL
MODEL 4
REMARK VINA RESULT:      -6.2      1.595      4.835
REMARK  4 active torsions:
REMARK  status: ('A' for Active; 'I' for Inactive)
REMARK    1  A    between atoms: C_6  and  C_2 
REMARK    2  A    between atoms: C_7  and  C_5 
REMARK    3  A    between atoms: O_8  and  C_7 
REMARK    4  A    between atoms: C_9  and  O_8 
ROOT
ATOM      1  N   UNL d   1     -46.853  14.370  22.743  0.00  0.00    -0.121 NA
ATOM      2  C   UNL d   1     -47.470  13.855  22.583  0.00  0.00     0.204 A 
ATOM      3  O   UNL d   1     -47.153  13.088  22.535  0.00  0.00    -0.267 OA
ATOM      4  N   UNL d   1     -46.155  13.934  22.795  0.00  0.00    -0.119 NA
ATOM      5  C   UNL d   1     -46.340  13.140  22.666  0.00  0.00     0.230 A 
ENDROOT
BRANCH   5   6
ATOM      6  C   UNL d   1     -45.803  12.514  22.668  0.00  0.00     0.169 C 
BRANCH   6   7
ATOM      7  O   UNL d   1     -45.712  12.046  23.345  0.00  0.00    -0.301 OA
BRANCH   7   8
ATOM      8  C   UNL d   1     -45.153  11.435  23.345  0.00  0.00     0.100 A 
ATOM      9  C   UNL d   1     -45.332  10.711  23.698  0.00  0.00     0.025 A 
ATOM     10  C   UNL d   1     -44.772  10.107  23.695  0.00  0.00     0.002 A 
ATOM     11  C   UNL d   1     -44.036  10.223  23.342  0.00  0.00     0.000 A 
ATOM     12  C   UNL d   1     -43.861  10.951  22.989  0.00  0.00     0.002 A 
ATOM     13  C   UNL d   1     -44.415  11.563  22.986  0.00  0.00     0.025 A 
ENDBRANCH   7   8
ENDBRANCH   6   7
ENDBRANCH   5   6
BRANCH   2  14
ATOM     14  C   UNL d   1     -48.265  14.055  22.487  0.00  0.00     0.043 A 
ATOM     15  C   UNL d   1     -48.626  14.579  23.014  0.00  0.00     0.004 A 
ATOM     16  C   UNL d   1     -49.421  14.779  22.918  0.00  0.00     0.000 A 
ATOM     17  C   UNL d   1     -49.854  14.455  22.296  0.00  0.00     0.000 A 
ATOM     18  C   UNL d   1     -49.493  13.930  21.769  0.00  0.00     0.000 A 
ATOM     19  C   UNL d   1     -48.698  13.730  21.865  0.00  0.00     0.004 A 
ENDBRANCH   2  14
TORSDOF 4
ENDMDL
MODEL 5
REMARK VINA RESULT:      -5.9      1.245      1.572
REMARK  4 active torsions:
REMARK  status: ('A' for Active; 'I' for Inactive)
REMARK    1  A    between atoms: C_6  and  C_2 
REMARK    2  A    between atoms: C_7  and  C_5 
REMARK    3  A    between atoms: O_8  and  C_7 
REMARK    4  A    between atoms: C_9  and  O_8 
ROOT
ATOM      1  N   UNL d   1     -46.338  14.096  22.843  0.00  0.00    -0.121 NA
ATOM      2  C   UNL d   1     -46.217  13.310  22.647  0.00  0.00     0.204 A 
ATOM      3  O   UNL d   1     -46.956  12.929  22.660  0.00  0.00    -0.267 OA
ATOM      4  N   UNL d   1     -47.144  14.211  22.979  0.00  0.00    -0.119 NA
ATOM      5  C   UNL d   1     -47.527  13.488  22.866  0.00  0.00     0.230 A 
ENDROOT
BRANCH   5   6
ATOM      6  C   UNL d   1     -48.336  13.355  22.946  0.00  0.00     0.169 C 
BRANCH   6   7
ATOM      7  O   UNL d   1     -48.655  12.610  22.777  0.00  0.00    -0.301 OA
BRANCH   7   8
ATOM      8  C   UNL d   1     -49.454  12.462  22.939  0.00  0.00     0.100 A 
ATOM      9  C   UNL d   1     -50.042  12.881  22.542  0.00  0.00     0.025 A 
ATOM     10  C   UNL d   1     -50.834  12.729  22.707  0.00  0.00     0.002 A 
ATOM     11  C   UNL d   1     -51.040  12.161  23.267  0.00  0.00     0.000 A 
ATOM     12  C   UNL d   1     -50.447  11.741  23.664  0.00  0.00     0.002 A 
ATOM     13  C   UNL d   1     -49.650  11.886  23.505  0.00  0.00     0.025 A 
ENDBRANCH   7   8
ENDBRANCH   6   7
ENDBRANCH   5   6
BRANCH   2  14
ATOM     14  C   UNL d   1     -45.495  12.954  22.467  0.00  0.00     0.043 A 
ATOM     15  C   UNL d   1     -44.986  13.306  21.918  0.00  0.00     0.004 A 
ATOM     16  C   UNL d   1     -44.264  12.950  21.739  0.00  0.00     0.000 A 
ATOM     17  C   UNL d   1     -44.050  12.244  22.107  0.00  0.00     0.000 A 
ATOM     18  C   UNL d   1     -44.559  11.892  22.656  0.00  0.00     0.000 A 
ATOM     19  C   UNL d   1     -45.281  12.248  22.836  0.00  0.00     0.004 A 
ENDBRANCH   2  14
TORSDOF 4
ENDMDL
MODEL 6
REMARK VINA RESULT:      -5.6      1.549      4.998
REMARK  4 active torsions:
REMARK  status: ('A' for Active; 'I' for Inactive)
REMARK    1  A    between atoms: C_6  and  C_2 
REMARK    2  A    between atoms: C_7  and  C_5 
REMARK    3  A    between atoms: O_8  and  C_7 
REMARK    4  A    between atoms: C_9  and  O_8 
ROOT
ATOM      1  N   UNL d   1     -47.817  14.067  22.807  0.00  0.00    -0.121 NA
ATOM      2  C   UNL d   1     -48.026  13.328  22.522  0.00  0.00     0.204 A 
ATOM      3  O   UNL d   1     -47.328  12.887  22.425  0.00  0.00    -0.267 OA
ATOM      4  N   UNL d   1     -46.996  14.093  22.888  0.00  0.00    -0.119 NA
ATOM      5  C   UNL d   1     -46.693  13.362  22.652  0.00  0.00     0.230 A 
ENDROOT
BRANCH   5   6
ATOM      6  C   UNL d   1     -45.897  13.151  22.645  0.00  0.00     0.169 C 
BRANCH   6   7
ATOM      7  O   UNL d   1     -45.467  13.165  21.938  0.00  0.00    -0.301 OA
BRANCH   7   8
ATOM      8  C   UNL d   1     -44.702  12.849  21.919  0.00  0.00     0.100 A 
ATOM      9  C   UNL d   1     -44.502  12.218  22.411  0.00  0.00     0.025 A 
ATOM     10  C   UNL d   1     -43.740  11.908  22.387  0.00  0.00     0.002 A 
ATOM     11  C   UNL d   1     -43.177  12.225  21.875  0.00  0.00     0.000 A 
ATOM     12  C   UNL d   1     -43.381  12.859  21.383  0.00  0.00     0.002 A 
ATOM     13  C   UNL d   1     -44.143  13.177  21.399  0.00  0.00     0.025 A 
ENDBRANCH   7   8
ENDBRANCH   6   7
ENDBRANCH   5   6
BRANCH   2  14
ATOM     14  C   UNL d   1     -48.790  13.063  22.360  0.00  0.00     0.043 A 
ATOM     15  C   UNL d   1     -49.154  13.261  21.644  0.00  0.00     0.004 A 
ATOM     16  C   UNL d   1     -49.918  12.997  21.482  0.00  0.00     0.000 A 
ATOM     17  C   UNL d   1     -50.319  12.534  22.035  0.00  0.00     0.000 A 
ATOM     18  C   UNL d   1     -49.955  12.335  22.750  0.00  0.00     0.000 A 
ATOM     19  C   UNL d   1     -49.191  12.600  22.913  0.00  0.00     0.004 A 
ENDBRANCH   2  14
TORSDOF 4
ENDMDL
MODEL 7
REMARK VINA RESULT:      -5.6      8.683      9.739
REMARK  4 active torsions:
REMARK  status: ('A' for Active; 'I' for Inactive)
REMARK    1  A    between atoms: C_6  and  C_2 
REMARK    2  A    between atoms: C_7  and  C_5 
REMARK    3  A    between atoms: O_8  and  C_7 
REMARK    4  A    between atoms: C_9  and  O_8 
ROOT
ATOM      1  N   UNL d   1     -40.416  13.875  18.069  0.00  0.00    -0.121 NA
ATOM      2  C   UNL d   1     -39.617  14.037  17.987  0.00  0.00     0.204 A 
ATOM      3  O   UNL d   1     -39.347  14.347  18.710  0.00  0.00    -0.267 OA
ATOM      4  N   UNL d   1     -40.648  14.079  18.834  0.00  0.00    -0.119 NA
ATOM      5  C   UNL d   1     -39.986  14.371  19.231  0.00  0.00     0.230 A 
ENDROOT
BRANCH   5   6
ATOM      6  C   UNL d   1     -39.972  14.639  20.011  0.00  0.00     0.169 C 
BRANCH   6   7
ATOM      7  O   UNL d   1     -39.329  14.462  20.501  0.00  0.00    -0.301 OA
BRANCH   7   8
ATOM      8  C   UNL d   1     -39.292  14.792  21.260  0.00  0.00     0.100 A 
ATOM      9  C   UNL d   1     -39.436  15.597  21.369  0.00  0.00     0.025 A 
ATOM     10  C   UNL d   1     -39.397  15.918  22.126  0.00  0.00     0.002 A 
ATOM     11  C   UNL d   1     -39.215  15.441  22.772  0.00  0.00     0.000 A 
ATOM     12  C   UNL d   1     -39.071  14.634  22.659  0.00  0.00     0.002 A 
ATOM     13  C   UNL d   1     -39.107  14.301  21.904  0.00  0.00     0.025 A 
ENDBRANCH   7   8
ENDBRANCH   6   7
ENDBRANCH   5   6
BRANCH   2  14
ATOM     14  C   UNL d   1     -39.158  13.918  17.313  0.00  0.00     0.043 A 
ATOM     15  C   UNL d   1     -39.159  14.480  16.706  0.00  0.00     0.004 A 
ATOM     16  C   UNL d   1     -38.701  14.360  16.031  0.00  0.00     0.000 A 
ATOM     17  C   UNL d   1     -38.241  13.679  15.962  0.00  0.00     0.000 A 
ATOM     18  C   UNL d   1     -38.240  13.117  16.569  0.00  0.00     0.000 A 
ATOM     19  C   UNL d   1     -38.699  13.236  17.243  0.00  0.00     0.004 A 
ENDBRANCH   2  14
TORSDOF 4
ENDMDL
