MODEL 1
REMARK VINA RESULT:      -7.1      0.000      0.000
REMARK  1 active torsions:
REMARK  status: ('A' for Active; 'I' for Inactive)
REMARK    1  A    between atoms: C_7  and  C_3 
ROOT
ATOM      1  C   UNL d   1     -49.655  14.409  23.324  0.00  0.00     0.179 A 
ATOM      2  N   UNL d   1     -49.036  13.892  23.277  0.00  0.00    -0.221 NA
ATOM      3  C   UNL d   1     -48.400  14.266  22.905  0.00  0.00     0.101 A 
ATOM      4  N   UNL d   1     -49.414  15.109  22.985  0.00  0.00    -0.282 N 
ATOM      5  C   UNL d   1     -48.640  15.008  22.731  0.00  0.00     0.101 A 
ATOM      6  S   UNL d   1     -50.438  14.524  23.576  0.00  0.00    -0.048 SA
ATOM      7  C   UNL d   1     -50.045  15.652  23.028  0.00  0.00     0.089 A 
ATOM      8  C   UNL d   1     -50.676  15.309  23.386  0.00  0.00     0.057 A 
ENDROOT
BRANCH   3   9
ATOM      9  C   UNL d   1     -47.648  13.975  22.728  0.00  0.00     0.019 A 
ATOM     10  C   UNL d   1     -46.971  14.379  22.958  0.00  0.00     0.002 A 
ATOM     11  C   UNL d   1     -46.214  14.087  22.780  0.00  0.00     0.011 A 
ATOM     12  C   UNL d   1     -46.138  13.401  22.376  0.00  0.00     0.058 A 
ATOM     13  C   UNL d   1     -46.826  12.968  22.129  0.00  0.00     0.011 A 
ATOM     14 CL   UNL d   1     -45.368  13.105  22.195  0.00  0.00    -0.082 Cl
ATOM     15  C   UNL d   1     -47.575  13.267  22.311  0.00  0.00     0.002 A 
ENDBRANCH   3   9
TORSDOF 1
ENDMDL
MODEL 2
REMARK VINA RESULT:      -6.5      2.544      3.829
REMARK  1 active torsions:
REMARK  status: ('A' for Active; 'I' for Inactive)
REMARK    1  A    between atoms: C_7  and  C_3 
ROOT
ATOM      1  C   UNL d   1     -47.129  12.456  23.058  0.00  0.00     0.179 A 
ATOM      2  N   UNL d   1     -47.581  13.013  22.687  0.00  0.00    -0.221 NA
ATOM      3  C   UNL d   1     -48.369  12.765  22.687  0.00  0.00     0.101 A 
ATOM      4  N   UNL d   1     -47.628  11.856  23.293  0.00  0.00    -0.282 N 
ATOM      5  C   UNL d   1     -48.388  12.058  23.059  0.00  0.00     0.101 A 
ATOM      6  S   UNL d   1     -46.365  12.239  23.301  0.00  0.00    -0.048 SA
ATOM      7  C   UNL d   1     -47.172  11.274  23.679  0.00  0.00     0.089 A 
ATOM      8  C   UNL d   1     -46.401  11.494  23.691  0.00  0.00     0.057 A 
ENDROOT
BRANCH   3   9
ATOM      9  C   UNL d   1     -49.038  13.137  22.378  0.00  0.00     0.019 A 
ATOM     10  C   UNL d   1     -49.457  12.807  21.753  0.00  0.00     0.002 A 
ATOM     11  C   UNL d   1     -50.130  13.180  21.441  0.00  0.00     0.011 A 
ATOM     12  C   UNL d   1     -50.380  13.873  21.752  0.00  0.00     0.058 A 
ATOM     13  C   UNL d   1     -49.961  14.231  22.398  0.00  0.00     0.011 A 
ATOM     14 CL   UNL d   1     -51.064  14.252  21.435  0.00  0.00    -0.082 Cl
ATOM     15  C   UNL d   1     -49.291  13.852  22.702  0.00  0.00     0.002 A 
ENDBRANCH   3   9
TORSDOF 1
ENDMDL
MODEL 3
REMARK VINA RESULT:      -5.2      8.458      9.117
REMARK  1 active torsions:
REMARK  status: ('A' for Active; 'I' for Inactive)
REMARK    1  A    between atoms: C_7  and  C_3 
ROOT
ATOM      1  C   UNL d   1     -40.649  15.502  18.288  0.00  0.00     0.179 A 
ATOM      2  N   UNL d   1     -40.501  15.517  19.082  0.00  0.00    -0.221 NA
ATOM      3  C   UNL d   1     -40.173  14.794  19.309  0.00  0.00     0.101 A 
ATOM      4  N   UNL d   1     -40.416  14.772  18.011  0.00  0.00    -0.282 N 
ATOM      5  C   UNL d   1     -40.125  14.346  18.650  0.00  0.00     0.101 A 
ATOM      6  S   UNL d   1     -40.941  15.922  17.634  0.00  0.00    -0.048 SA
ATOM      7  C   UNL d   1     -40.564  14.744  17.191  0.00  0.00     0.089 A 
ATOM      8  C   UNL d   1     -40.884  15.437  16.947  0.00  0.00     0.057 A 
ENDROOT
BRANCH   3   9
ATOM      9  C   UNL d   1     -39.927  14.538  20.055  0.00  0.00     0.019 A 
ATOM     10  C   UNL d   1     -40.464  14.436  20.668  0.00  0.00     0.002 A 
ATOM     11  C   UNL d   1     -40.219  14.179  21.417  0.00  0.00     0.011 A 
ATOM     12  C   UNL d   1     -39.445  14.025  21.551  0.00  0.00     0.058 A 
ATOM     13  C   UNL d   1     -38.873  14.124  20.931  0.00  0.00     0.011 A 
ATOM     14 CL   UNL d   1     -39.196  13.763  22.314  0.00  0.00    -0.082 Cl
ATOM     15  C   UNL d   1     -39.128  14.381  20.187  0.00  0.00     0.002 A 
ENDBRANCH   3   9
TORSDOF 1
ENDMDL
MODEL 4
REMARK VINA RESULT:      -5.1      8.773      9.367
REMARK  1 active torsions:
REMARK  status: ('A' for Active; 'I' for Inactive)
REMARK    1  A    between atoms: C_7  and  C_3 
ROOT
ATOM      1  C   UNL d   1     -39.092  14.358  20.488  0.00  0.00     0.179 A 
ATOM      2  N   UNL d   1     -39.134  14.553  19.705  0.00  0.00    -0.221 NA
ATOM      3  C   UNL d   1     -39.919  14.721  19.510  0.00  0.00     0.101 A 
ATOM      4  N   UNL d   1     -39.848  14.402  20.789  0.00  0.00    -0.282 N 
ATOM      5  C   UNL d   1     -40.347  14.627  20.178  0.00  0.00     0.101 A 
ATOM      6  S   UNL d   1     -38.599  14.130  21.116  0.00  0.00    -0.048 SA
ATOM      7  C   UNL d   1     -39.819  14.202  21.599  0.00  0.00     0.089 A 
ATOM      8  C   UNL d   1     -39.064  14.034  21.812  0.00  0.00     0.057 A 
ENDROOT
BRANCH   3   9
ATOM      9  C   UNL d   1     -40.245  14.947  18.786  0.00  0.00     0.019 A 
ATOM     10  C   UNL d   1     -40.567  15.694  18.678  0.00  0.00     0.002 A 
ATOM     11  C   UNL d   1     -40.895  15.922  17.951  0.00  0.00     0.011 A 
ATOM     12  C   UNL d   1     -40.901  15.407  17.339  0.00  0.00     0.058 A 
ATOM     13  C   UNL d   1     -40.573  14.628  17.429  0.00  0.00     0.011 A 
ATOM     14 CL   UNL d   1     -41.235  15.638  16.599  0.00  0.00    -0.082 Cl
ATOM     15  C   UNL d   1     -40.248  14.411  18.158  0.00  0.00     0.002 A 
ENDBRANCH   3   9
TORSDOF 1
ENDMDL
MODEL 5
REMARK VINA RESULT:      -5.0      8.484      9.768
REMARK  1 active torsions:
REMARK  status: ('A' for Active; 'I' for Inactive)
REMARK    1  A    between atoms: C_7  and  C_3 
ROOT
ATOM      1  C   UNL d   1     -40.564  14.422  19.697  0.00  0.00     0.179 A 
ATOM      2  N   UNL d   1     -40.473  14.124  18.951  0.00  0.00    -0.221 NA
ATOM      3  C   UNL d   1     -39.729  14.339  18.664  0.00  0.00     0.101 A 
ATOM      4  N   UNL d   1     -39.881  14.825  19.882  0.00  0.00    -0.282 N 
ATOM      5  C   UNL d   1     -39.375  14.766  19.239  0.00  0.00     0.101 A 
ATOM      6  S   UNL d   1     -41.066  14.489  20.355  0.00  0.00    -0.048 SA
ATOM      7  C   UNL d   1     -39.962  15.138  20.651  0.00  0.00     0.089 A 
ATOM      8  C   UNL d   1     -40.680  14.941  20.951  0.00  0.00     0.057 A 
ENDROOT
BRANCH   3   9
ATOM      9  C   UNL d   1     -39.377  14.171  17.936  0.00  0.00     0.019 A 
ATOM     10  C   UNL d   1     -39.437  14.691  17.304  0.00  0.00     0.002 A 
ATOM     11  C   UNL d   1     -39.083  14.524  16.572  0.00  0.00     0.011 A 
ATOM     12  C   UNL d   1     -38.674  13.843  16.476  0.00  0.00     0.058 A 
ATOM     13  C   UNL d   1     -38.600  13.291  17.117  0.00  0.00     0.011 A 
ATOM     14 CL   UNL d   1     -38.315  13.672  15.731  0.00  0.00    -0.082 Cl
ATOM     15  C   UNL d   1     -38.956  13.467  17.842  0.00  0.00     0.002 A 
ENDBRANCH   3   9
TORSDOF 1
ENDMDL
MODEL 6
REMARK VINA RESULT:      -4.9      8.577     10.017
REMARK  1 active torsions:
REMARK  status: ('A' for Active; 'I' for Inactive)
REMARK    1  A    between atoms: C_7  and  C_3 
ROOT
ATOM      1  C   UNL d   1     -39.054  13.582  17.861  0.00  0.00     0.179 A 
ATOM      2  N   UNL d   1     -39.603  13.673  18.447  0.00  0.00    -0.221 NA
ATOM      3  C   UNL d   1     -39.592  14.456  18.709  0.00  0.00     0.101 A 
ATOM      4  N   UNL d   1     -38.696  14.306  17.751  0.00  0.00    -0.282 N 
ATOM      5  C   UNL d   1     -39.036  14.835  18.279  0.00  0.00     0.101 A 
ATOM      6  S   UNL d   1     -38.702  13.058  17.323  0.00  0.00    -0.048 SA
ATOM      7  C   UNL d   1     -38.126  14.226  17.148  0.00  0.00     0.089 A 
ATOM      8  C   UNL d   1     -38.119  13.471  16.877  0.00  0.00     0.057 A 
ENDROOT
BRANCH   3   9
ATOM      9  C   UNL d   1     -40.045  14.822  19.295  0.00  0.00     0.019 A 
ATOM     10  C   UNL d   1     -40.077  14.522  20.058  0.00  0.00     0.002 A 
ATOM     11  C   UNL d   1     -40.531  14.889  20.648  0.00  0.00     0.011 A 
ATOM     12  C   UNL d   1     -40.949  15.548  20.474  0.00  0.00     0.058 A 
ATOM     13  C   UNL d   1     -40.930  15.876  19.690  0.00  0.00     0.011 A 
ATOM     14 CL   UNL d   1     -41.412  15.922  21.073  0.00  0.00    -0.082 Cl
ATOM     15  C   UNL d   1     -40.474  15.503  19.109  0.00  0.00     0.002 A 
ENDBRANCH   3   9
TORSDOF 1
ENDMDL
