MODEL 1
REMARK VINA RESULT:       7.1      0.000      0.000
REMARK  4 active torsions:
REMARK  status: ('A' for Active; 'I' for Inactive)
REMARK       I    between atoms: C_2  and  N_1 
REMARK    1  A    between atoms: C_7  and  N_1 
REMARK    2  A    between atoms: C_5  and  C_2 
REMARK    3  A    between atoms: C_3  and  C_6 
REMARK    4  A    between atoms: C_6  and  C_5 
ROOT
ATOM      1  N   UNL d   1      46.545 -17.850  43.672  0.00  0.00    -0.208 NA
ATOM      2  C   UNL d   1      46.207 -17.477  44.317  0.00  0.00     0.279 C 
ATOM      3  O   UNL d   1      45.895 -17.927  44.935  0.00  0.00    -0.265 OA
ENDROOT
BRANCH   2   4
ATOM      4  C   UNL d   1      46.176 -16.655  44.355  0.00  0.00     0.063 C 
BRANCH   4   5
ATOM      5  C   UNL d   1      45.526 -16.279  44.694  0.00  0.00     0.011 C 
BRANCH   5   6
ATOM      6  C   UNL d   1      45.499 -15.457  44.740  0.00  0.00     0.030 A 
ATOM      7  S   UNL d   1      46.072 -14.866  44.609  0.00  0.00    -0.086 SA
ATOM      8  C   UNL d   1      45.719 -14.124  44.741  0.00  0.00     0.035 A 
ATOM      9  C   UNL d   1      44.924 -14.246  44.955  0.00  0.00     0.007 A 
ATOM     10  C   UNL d   1      44.784 -15.076  44.955  0.00  0.00     0.007 A 
ENDBRANCH   5   6
ENDBRANCH   4   5
ENDBRANCH   2   4
BRANCH   1  11
ATOM     11  C   UNL d   1      46.576 -18.673  43.635  0.00  0.00     0.085 A 
ATOM     12  C   UNL d   1      46.594 -19.043  42.913  0.00  0.00     0.018 A 
ATOM     13  C   UNL d   1      46.582 -18.603  42.217  0.00  0.00     0.002 C 
ATOM     14  C   UNL d   1      46.626 -19.871  42.865  0.00  0.00     0.002 A 
ATOM     15  C   UNL d   1      46.638 -20.317  43.562  0.00  0.00     0.000 A 
ATOM     16  C   UNL d   1      46.619 -19.943  44.297  0.00  0.00     0.002 A 
ATOM     17  C   UNL d   1      46.589 -19.121  44.335  0.00  0.00     0.019 A 
ENDBRANCH   1  11
TORSDOF 4
ENDMDL
