MODEL 1
REMARK VINA RESULT:      -6.1      0.000      0.000
REMARK  4 active torsions:
REMARK  status: ('A' for Active; 'I' for Inactive)
REMARK    1  A    between atoms: N_2  and  S_1 
REMARK    2  A    between atoms: C_5  and  S_1 
REMARK    3  A    between atoms: C_4  and  N_2 
REMARK    4  A    between atoms: C_7  and  C_3 
ROOT
ATOM      1  S   UNL d   1     -41.440-122.482 -51.982  0.00  0.00     0.285 S 
ATOM      2  O   UNL d   1     -41.747-123.248 -51.803  0.00  0.00    -0.198 OA
ATOM      3  O   UNL d   1     -41.130-121.709 -52.158  0.00  0.00    -0.198 OA
ENDROOT
BRANCH   1   4
ATOM      4  N   UNL d   1     -41.397-122.307 -51.158  0.00  0.00    -0.158 NA
BRANCH   4   5
ATOM      5  C   UNL d   1     -41.936-122.649 -50.607  0.00  0.00     0.094 A 
ATOM      6  C   UNL d   1     -42.582-122.249 -50.399  0.00  0.00     0.018 A 
ATOM      7  C   UNL d   1     -43.140-122.542 -49.864  0.00  0.00     0.002 A 
ATOM      8  C   UNL d   1     -42.667-121.536 -50.740  0.00  0.00     0.002 C 
ATOM      9  C   UNL d   1     -43.005-123.310 -49.525  0.00  0.00     0.000 A 
ATOM     10  C   UNL d   1     -42.338-123.680 -49.763  0.00  0.00     0.002 A 
ATOM     11  C   UNL d   1     -43.494-123.686 -48.988  0.00  0.00     0.000 C 
ATOM     12  C   UNL d   1     -41.774-123.392 -50.301  0.00  0.00     0.018 A 
ATOM     13  C   UNL d   1     -41.123-123.817 -50.498  0.00  0.00     0.002 C 
ENDBRANCH   4   5
ENDBRANCH   1   4
BRANCH   1  14
ATOM     14  C   UNL d   1     -41.484-122.662 -52.817  0.00  0.00     0.106 A 
ATOM     15  C   UNL d   1     -41.894-122.122 -53.300  0.00  0.00     0.020 A 
ATOM     16  C   UNL d   1     -41.946-122.281 -54.108  0.00  0.00     0.076 A 
ATOM     17  C   UNL d   1     -41.602-122.958 -54.431  0.00  0.00     0.064 A 
ATOM     18  C   UNL d   1     -41.199-123.489 -53.952  0.00  0.00     0.012 A 
ATOM     19 CL   UNL d   1     -41.663-123.105 -55.249  0.00  0.00    -0.082 Cl
ATOM     20  C   UNL d   1     -41.124-123.371 -53.155  0.00  0.00     0.014 A 
BRANCH  16  21
ATOM     21  C   UNL d   1     -42.357-121.739 -54.597  0.00  0.00     0.212 C 
ATOM     22  O   UNL d   1     -41.878-121.195 -54.963  0.00  0.00    -0.644 OA
ATOM     23  O   UNL d   1     -43.209-121.787 -54.678  0.00  0.00    -0.644 OA
ENDBRANCH  16  21
ENDBRANCH   1  14
TORSDOF 4
ENDMDL
MODEL 2
REMARK VINA RESULT:      -4.5      1.779      4.339
REMARK  4 active torsions:
REMARK  status: ('A' for Active; 'I' for Inactive)
REMARK    1  A    between atoms: N_2  and  S_1 
REMARK    2  A    between atoms: C_5  and  S_1 
REMARK    3  A    between atoms: C_4  and  N_2 
REMARK    4  A    between atoms: C_7  and  C_3 
ROOT
ATOM      1  S   UNL d   1     -41.527-122.400 -51.945  0.00  0.00     0.285 S 
ATOM      2  O   UNL d   1     -41.660-121.570 -51.879  0.00  0.00    -0.198 OA
ATOM      3  O   UNL d   1     -41.390-123.238 -52.016  0.00  0.00    -0.198 OA
ENDROOT
BRANCH   1   4
ATOM      4  N   UNL d   1     -41.123-122.277 -52.675  0.00  0.00    -0.158 NA
BRANCH   4   5
ATOM      5  C   UNL d   1     -41.521-122.348 -53.416  0.00  0.00     0.094 A 
ATOM      6  C   UNL d   1     -41.530-123.043 -53.784  0.00  0.00     0.018 A 
ATOM      7  C   UNL d   1     -41.907-123.163 -54.511  0.00  0.00     0.002 A 
ATOM      8  C   UNL d   1     -41.150-123.633 -53.411  0.00  0.00     0.002 C 
ATOM      9  C   UNL d   1     -42.301-122.501 -54.871  0.00  0.00     0.000 A 
ATOM     10  C   UNL d   1     -42.267-121.815 -54.463  0.00  0.00     0.002 A 
ATOM     11  C   UNL d   1     -42.700-122.516 -55.585  0.00  0.00     0.000 C 
ATOM     12  C   UNL d   1     -41.890-121.688 -53.733  0.00  0.00     0.018 A 
ATOM     13  C   UNL d   1     -41.893-120.970 -53.375  0.00  0.00     0.002 C 
ENDBRANCH   4   5
ENDBRANCH   1   4
BRANCH   1  14
ATOM     14  C   UNL d   1     -41.937-122.522 -51.205  0.00  0.00     0.106 A 
ATOM     15  C   UNL d   1     -41.472-122.713 -50.541  0.00  0.00     0.020 A 
ATOM     16  C   UNL d   1     -41.852-122.834 -49.819  0.00  0.00     0.076 A 
ATOM     17  C   UNL d   1     -42.672-122.769 -49.754  0.00  0.00     0.064 A 
ATOM     18  C   UNL d   1     -43.127-122.581 -50.410  0.00  0.00     0.012 A 
ATOM     19 CL   UNL d   1     -43.042-122.894 -49.017  0.00  0.00    -0.082 Cl
ATOM     20  C   UNL d   1     -42.796-122.454 -51.137  0.00  0.00     0.014 A 
BRANCH  16  21
ATOM     21  C   UNL d   1     -41.386-123.026 -49.148  0.00  0.00     0.212 C 
ATOM     22  O   UNL d   1     -41.223-123.817 -49.076  0.00  0.00    -0.644 OA
ATOM     23  O   UNL d   1     -41.126-122.411 -48.610  0.00  0.00    -0.644 OA
ENDBRANCH  16  21
ENDBRANCH   1  14
TORSDOF 4
ENDMDL
MODEL 3
REMARK VINA RESULT:      -3.8      2.196      4.431
REMARK  4 active torsions:
REMARK  status: ('A' for Active; 'I' for Inactive)
REMARK    1  A    between atoms: N_2  and  S_1 
REMARK    2  A    between atoms: C_5  and  S_1 
REMARK    3  A    between atoms: C_4  and  N_2 
REMARK    4  A    between atoms: C_7  and  C_3 
ROOT
ATOM      1  S   UNL d   1     -41.661-122.856 -50.658  0.00  0.00     0.285 S 
ATOM      2  O   UNL d   1     -41.227-123.573 -50.562  0.00  0.00    -0.198 OA
ATOM      3  O   UNL d   1     -42.095-122.131 -50.758  0.00  0.00    -0.198 OA
ENDROOT
BRANCH   1   4
ATOM      4  N   UNL d   1     -41.123-122.611 -51.260  0.00  0.00    -0.158 NA
BRANCH   4   5
ATOM      5  C   UNL d   1     -41.384-122.458 -52.047  0.00  0.00     0.094 A 
ATOM      6  C   UNL d   1     -41.619-121.732 -52.242  0.00  0.00     0.018 A 
ATOM      7  C   UNL d   1     -41.884-121.531 -52.999  0.00  0.00     0.002 A 
ATOM      8  C   UNL d   1     -41.586-121.194 -51.657  0.00  0.00     0.002 C 
ATOM      9  C   UNL d   1     -41.901-122.142 -53.591  0.00  0.00     0.000 A 
ATOM     10  C   UNL d   1     -41.655-122.863 -53.351  0.00  0.00     0.002 A 
ATOM     11  C   UNL d   1     -42.145-122.046 -54.366  0.00  0.00     0.000 C 
ATOM     12  C   UNL d   1     -41.387-123.071 -52.592  0.00  0.00     0.018 A 
ATOM     13  C   UNL d   1     -41.153-123.817 -52.416  0.00  0.00     0.002 C 
ENDBRANCH   4   5
ENDBRANCH   1   4
BRANCH   1  14
ATOM     14  C   UNL d   1     -42.204-123.106 -50.048  0.00  0.00     0.106 A 
ATOM     15  C   UNL d   1     -41.917-123.119 -49.266  0.00  0.00     0.020 A 
ATOM     16  C   UNL d   1     -42.429-123.357 -48.665  0.00  0.00     0.076 A 
ATOM     17  C   UNL d   1     -43.206-123.578 -48.832  0.00  0.00     0.064 A 
ATOM     18  C   UNL d   1     -43.487-123.565 -49.602  0.00  0.00     0.012 A 
ATOM     19 CL   UNL d   1     -43.713-123.817 -48.213  0.00  0.00    -0.082 Cl
ATOM     20  C   UNL d   1     -43.018-123.337 -50.222  0.00  0.00     0.014 A 
BRANCH  16  21
ATOM     21  C   UNL d   1     -42.143-123.371 -47.877  0.00  0.00     0.212 C 
ATOM     22  O   UNL d   1     -42.629-123.002 -47.343  0.00  0.00    -0.644 OA
ATOM     23  O   UNL d   1     -41.398-123.752 -47.692  0.00  0.00    -0.644 OA
ENDBRANCH  16  21
ENDBRANCH   1  14
TORSDOF 4
ENDMDL
