MODEL 1
REMARK VINA RESULT:      -8.3      0.000      0.000
REMARK  4 active torsions:
REMARK  status: ('A' for Active; 'I' for Inactive)
REMARK    1  A    between atoms: C_3  and  C_1 
REMARK    2  A    between atoms: C_4  and  C_1 
REMARK    3  A    between atoms: C_2  and  C_3 
REMARK    4  A    between atoms: C_6  and  C_4 
ROOT
ATOM      1  C   UNL d   1      54.094  33.024  53.863  0.00  0.00     0.196 C 
ATOM      2  O   UNL d   1      54.918  32.992  53.797  0.00  0.00    -0.287 OA
ENDROOT
BRANCH   1   3
ATOM      3  C   UNL d   1      53.645  32.342  53.745  0.00  0.00     0.044 C 
BRANCH   3   4
ATOM      4  C   UNL d   1      53.824  31.551  53.605  0.00  0.00     0.028 C 
BRANCH   4   5
ATOM      5  C   UNL d   1      53.375  30.875  53.456  0.00  0.00     0.100 A 
ATOM      6  O   UNL d   1      52.723  30.759  52.960  0.00  0.00    -0.305 OA
ATOM      7  C   UNL d   1      52.485  29.974  53.018  0.00  0.00     0.123 A 
ATOM      8  C   UNL d   1      52.995  29.594  53.558  0.00  0.00     0.029 A 
ATOM      9  C   UNL d   1      53.545  30.143  53.831  0.00  0.00     0.027 A 
ENDBRANCH   4   5
ENDBRANCH   3   4
ENDBRANCH   1   3
BRANCH   1  10
ATOM     10  C   UNL d   1      53.731  33.744  54.049  0.00  0.00     0.039 A 
ATOM     11  C   UNL d   1      53.294  34.156  53.483  0.00  0.00     0.006 A 
ATOM     12  C   UNL d   1      52.938  34.873  53.682  0.00  0.00     0.042 A 
ATOM     13  C   UNL d   1      53.018  35.178  54.446  0.00  0.00     0.196 A 
ATOM     14  C   UNL d   1      53.460  34.758  55.014  0.00  0.00     0.042 A 
ATOM     15  O   UNL d   1      52.662  35.895  54.645  0.00  0.00    -0.287 OA
ATOM     16  C   UNL d   1      53.812  34.049  54.813  0.00  0.00     0.006 A 
ENDBRANCH   1  10
TORSDOF 4
ENDMDL
MODEL 2
REMARK VINA RESULT:      -7.9      2.029      3.184
REMARK  4 active torsions:
REMARK  status: ('A' for Active; 'I' for Inactive)
REMARK    1  A    between atoms: C_3  and  C_1 
REMARK    2  A    between atoms: C_4  and  C_1 
REMARK    3  A    between atoms: C_2  and  C_3 
REMARK    4  A    between atoms: C_6  and  C_4 
ROOT
ATOM      1  C   UNL d   1      52.478  32.946  53.044  0.00  0.00     0.196 C 
ATOM      2  O   UNL d   1      52.668  32.284  52.585  0.00  0.00    -0.287 OA
ENDROOT
BRANCH   1   3
ATOM      3  C   UNL d   1      52.974  33.170  53.665  0.00  0.00     0.044 C 
BRANCH   3   4
ATOM      4  C   UNL d   1      53.705  32.915  53.940  0.00  0.00     0.028 C 
BRANCH   4   5
ATOM      5  C   UNL d   1      54.204  33.145  54.556  0.00  0.00     0.100 A 
ATOM      6  O   UNL d   1      54.132  33.042  55.374  0.00  0.00    -0.305 OA
ATOM      7  C   UNL d   1      54.788  33.379  55.739  0.00  0.00     0.123 A 
ATOM      8  C   UNL d   1      55.276  33.697  55.141  0.00  0.00     0.029 A 
ATOM      9  C   UNL d   1      54.922  33.556  54.411  0.00  0.00     0.027 A 
ENDBRANCH   4   5
ENDBRANCH   3   4
ENDBRANCH   1   3
BRANCH   1  10
ATOM     10  C   UNL d   1      51.792  33.374  52.872  0.00  0.00     0.039 A 
ATOM     11  C   UNL d   1      51.780  33.928  52.262  0.00  0.00     0.006 A 
ATOM     12  C   UNL d   1      51.088  34.348  52.101  0.00  0.00     0.042 A 
ATOM     13  C   UNL d   1      50.408  34.213  52.552  0.00  0.00     0.196 A 
ATOM     14  C   UNL d   1      50.425  33.653  53.167  0.00  0.00     0.042 A 
ATOM     15  O   UNL d   1      49.717  34.633  52.392  0.00  0.00    -0.287 OA
ATOM     16  C   UNL d   1      51.112  33.239  53.323  0.00  0.00     0.006 A 
ENDBRANCH   1  10
TORSDOF 4
ENDMDL
MODEL 3
REMARK VINA RESULT:      -7.8      1.956      3.087
REMARK  4 active torsions:
REMARK  status: ('A' for Active; 'I' for Inactive)
REMARK    1  A    between atoms: C_3  and  C_1 
REMARK    2  A    between atoms: C_4  and  C_1 
REMARK    3  A    between atoms: C_2  and  C_3 
REMARK    4  A    between atoms: C_6  and  C_4 
ROOT
ATOM      1  C   UNL d   1      53.304  32.565  53.643  0.00  0.00     0.196 C 
ATOM      2  O   UNL d   1      53.454  31.851  53.254  0.00  0.00    -0.287 OA
ENDROOT
BRANCH   1   3
ATOM      3  C   UNL d   1      52.574  32.939  53.548  0.00  0.00     0.044 C 
BRANCH   3   4
ATOM      4  C   UNL d   1      52.058  33.044  52.917  0.00  0.00     0.028 C 
BRANCH   4   5
ATOM      5  C   UNL d   1      51.391  33.512  52.786  0.00  0.00     0.100 A 
ATOM      6  O   UNL d   1      50.685  33.573  53.214  0.00  0.00    -0.305 OA
ATOM      7  C   UNL d   1      50.200  34.125  52.844  0.00  0.00     0.123 A 
ATOM      8  C   UNL d   1      50.609  34.412  52.175  0.00  0.00     0.029 A 
ATOM      9  C   UNL d   1      51.343  34.039  52.135  0.00  0.00     0.027 A 
ENDBRANCH   4   5
ENDBRANCH   3   4
ENDBRANCH   1   3
BRANCH   1  10
ATOM     10  C   UNL d   1      53.891  32.896  54.123  0.00  0.00     0.039 A 
ATOM     11  C   UNL d   1      53.801  32.927  54.942  0.00  0.00     0.006 A 
ATOM     12  C   UNL d   1      54.394  33.260  55.409  0.00  0.00     0.042 A 
ATOM     13  C   UNL d   1      55.078  33.561  55.056  0.00  0.00     0.196 A 
ATOM     14  C   UNL d   1      55.165  33.528  54.228  0.00  0.00     0.042 A 
ATOM     15  O   UNL d   1      55.671  33.894  55.522  0.00  0.00    -0.287 OA
ATOM     16  C   UNL d   1      54.575  33.198  53.770  0.00  0.00     0.006 A 
ENDBRANCH   1  10
TORSDOF 4
ENDMDL
MODEL 4
REMARK VINA RESULT:      -7.8      1.007      4.276
REMARK  4 active torsions:
REMARK  status: ('A' for Active; 'I' for Inactive)
REMARK    1  A    between atoms: C_3  and  C_1 
REMARK    2  A    between atoms: C_4  and  C_1 
REMARK    3  A    between atoms: C_2  and  C_3 
REMARK    4  A    between atoms: C_6  and  C_4 
ROOT
ATOM      1  C   UNL d   1      52.852  31.942  52.969  0.00  0.00     0.196 C 
ATOM      2  O   UNL d   1      52.626  32.053  52.182  0.00  0.00    -0.287 OA
ENDROOT
BRANCH   1   3
ATOM      3  C   UNL d   1      52.960  32.595  53.462  0.00  0.00     0.044 C 
BRANCH   3   4
ATOM      4  C   UNL d   1      52.858  33.407  53.373  0.00  0.00     0.028 C 
BRANCH   4   5
ATOM      5  C   UNL d   1      52.952  34.059  53.870  0.00  0.00     0.100 A 
ATOM      6  O   UNL d   1      53.189  34.103  54.662  0.00  0.00    -0.305 OA
ATOM      7  C   UNL d   1      53.190  34.892  54.893  0.00  0.00     0.123 A 
ATOM      8  C   UNL d   1      52.949  35.348  54.235  0.00  0.00     0.029 A 
ATOM      9  C   UNL d   1      52.802  34.840  53.604  0.00  0.00     0.027 A 
ENDBRANCH   4   5
ENDBRANCH   3   4
ENDBRANCH   1   3
BRANCH   1  10
ATOM     10  C   UNL d   1      52.968  31.174  53.253  0.00  0.00     0.039 A 
ATOM     11  C   UNL d   1      53.693  30.944  53.571  0.00  0.00     0.006 A 
ATOM     12  C   UNL d   1      53.795  30.174  53.850  0.00  0.00     0.042 A 
ATOM     13  C   UNL d   1      53.170  29.634  53.810  0.00  0.00     0.196 A 
ATOM     14  C   UNL d   1      52.440  29.870  53.488  0.00  0.00     0.042 A 
ATOM     15  O   UNL d   1      53.272  28.864  54.089  0.00  0.00    -0.287 OA
ATOM     16  C   UNL d   1      52.344  30.633  53.213  0.00  0.00     0.006 A 
ENDBRANCH   1  10
TORSDOF 4
ENDMDL
MODEL 5
REMARK VINA RESULT:      -7.6      1.763      4.091
REMARK  4 active torsions:
REMARK  status: ('A' for Active; 'I' for Inactive)
REMARK    1  A    between atoms: C_3  and  C_1 
REMARK    2  A    between atoms: C_4  and  C_1 
REMARK    3  A    between atoms: C_2  and  C_3 
REMARK    4  A    between atoms: C_6  and  C_4 
ROOT
ATOM      1  C   UNL d   1      53.161  32.102  53.163  0.00  0.00     0.196 C 
ATOM      2  O   UNL d   1      53.883  32.504  53.140  0.00  0.00    -0.287 OA
ENDROOT
BRANCH   1   3
ATOM      3  C   UNL d   1      52.461  32.503  52.990  0.00  0.00     0.044 C 
BRANCH   3   4
ATOM      4  C   UNL d   1      52.246  33.296  52.952  0.00  0.00     0.028 C 
BRANCH   4   5
ATOM      5  C   UNL d   1      51.531  33.697  52.854  0.00  0.00     0.100 A 
ATOM      6  O   UNL d   1      50.866  33.738  53.344  0.00  0.00    -0.305 OA
ATOM      7  C   UNL d   1      50.303  34.217  52.984  0.00  0.00     0.123 A 
ATOM      8  C   UNL d   1      50.621  34.479  52.257  0.00  0.00     0.029 A 
ATOM      9  C   UNL d   1      51.377  34.162  52.173  0.00  0.00     0.027 A 
ENDBRANCH   4   5
ENDBRANCH   3   4
ENDBRANCH   1   3
BRANCH   1  10
ATOM     10  C   UNL d   1      53.152  31.299  53.360  0.00  0.00     0.039 A 
ATOM     11  C   UNL d   1      52.788  30.746  52.868  0.00  0.00     0.006 A 
ATOM     12  C   UNL d   1      52.787  29.948  53.077  0.00  0.00     0.042 A 
ATOM     13  C   UNL d   1      53.150  29.702  53.778  0.00  0.00     0.196 A 
ATOM     14  C   UNL d   1      53.517  30.264  54.271  0.00  0.00     0.042 A 
ATOM     15  O   UNL d   1      53.149  28.904  53.987  0.00  0.00    -0.287 OA
ATOM     16  C   UNL d   1      53.516  31.053  54.061  0.00  0.00     0.006 A 
ENDBRANCH   1  10
TORSDOF 4
ENDMDL
MODEL 6
REMARK VINA RESULT:      -7.3      1.941      2.203
REMARK  4 active torsions:
REMARK  status: ('A' for Active; 'I' for Inactive)
REMARK    1  A    between atoms: C_3  and  C_1 
REMARK    2  A    between atoms: C_4  and  C_1 
REMARK    3  A    between atoms: C_2  and  C_3 
REMARK    4  A    between atoms: C_6  and  C_4 
ROOT
ATOM      1  C   UNL d   1      52.464  33.255  53.076  0.00  0.00     0.196 C 
ATOM      2  O   UNL d   1      53.087  33.706  53.381  0.00  0.00    -0.287 OA
ENDROOT
BRANCH   1   3
ATOM      3  C   UNL d   1      52.559  32.442  52.971  0.00  0.00     0.044 C 
BRANCH   3   4
ATOM      4  C   UNL d   1      53.107  31.887  53.232  0.00  0.00     0.028 C 
BRANCH   4   5
ATOM      5  C   UNL d   1      53.118  31.063  53.278  0.00  0.00     0.100 A 
ATOM      6  O   UNL d   1      52.679  30.495  52.866  0.00  0.00    -0.305 OA
ATOM      7  C   UNL d   1      52.908  29.748  53.124  0.00  0.00     0.123 A 
ATOM      8  C   UNL d   1      53.500  29.852  53.705  0.00  0.00     0.029 A 
ATOM      9  C   UNL d   1      53.632  30.659  53.803  0.00  0.00     0.027 A 
ENDBRANCH   4   5
ENDBRANCH   3   4
ENDBRANCH   1   3
BRANCH   1  10
ATOM     10  C   UNL d   1      51.753  33.629  52.880  0.00  0.00     0.039 A 
ATOM     11  C   UNL d   1      51.643  33.968  52.136  0.00  0.00     0.006 A 
ATOM     12  C   UNL d   1      50.929  34.337  51.954  0.00  0.00     0.042 A 
ATOM     13  C   UNL d   1      50.323  34.367  52.516  0.00  0.00     0.196 A 
ATOM     14  C   UNL d   1      50.438  34.023  53.266  0.00  0.00     0.042 A 
ATOM     15  O   UNL d   1      49.608  34.736  52.334  0.00  0.00    -0.287 OA
ATOM     16  C   UNL d   1      51.147  33.658  53.442  0.00  0.00     0.006 A 
ENDBRANCH   1  10
TORSDOF 4
ENDMDL
MODEL 7
REMARK VINA RESULT:      -6.2      3.099      4.721
REMARK  4 active torsions:
REMARK  status: ('A' for Active; 'I' for Inactive)
REMARK    1  A    between atoms: C_3  and  C_1 
REMARK    2  A    between atoms: C_4  and  C_1 
REMARK    3  A    between atoms: C_2  and  C_3 
REMARK    4  A    between atoms: C_6  and  C_4 
ROOT
ATOM      1  C   UNL d   1      51.127  34.269  52.531  0.00  0.00     0.196 C 
ATOM      2  O   UNL d   1      51.190  34.111  51.721  0.00  0.00    -0.287 OA
ENDROOT
BRANCH   1   3
ATOM      3  C   UNL d   1      50.421  34.568  52.837  0.00  0.00     0.044 C 
BRANCH   3   4
ATOM      4  C   UNL d   1      49.691  34.767  52.514  0.00  0.00     0.028 C 
BRANCH   4   5
ATOM      5  C   UNL d   1      49.059  35.237  52.760  0.00  0.00     0.100 A 
ATOM      6  O   UNL d   1      48.961  35.693  53.444  0.00  0.00    -0.305 OA
ATOM      7  C   UNL d   1      48.223  36.054  53.415  0.00  0.00     0.123 A 
ATOM      8  C   UNL d   1      47.854  35.821  52.703  0.00  0.00     0.029 A 
ATOM      9  C   UNL d   1      48.364  35.318  52.296  0.00  0.00     0.027 A 
ENDBRANCH   4   5
ENDBRANCH   3   4
ENDBRANCH   1   3
BRANCH   1  10
ATOM     10  C   UNL d   1      51.775  34.123  53.023  0.00  0.00     0.039 A 
ATOM     11  C   UNL d   1      52.275  34.735  53.257  0.00  0.00     0.006 A 
ATOM     12  C   UNL d   1      52.918  34.575  53.749  0.00  0.00     0.042 A 
ATOM     13  C   UNL d   1      53.060  33.802  54.006  0.00  0.00     0.196 A 
ATOM     14  C   UNL d   1      52.552  33.187  53.767  0.00  0.00     0.042 A 
ATOM     15  O   UNL d   1      53.703  33.642  54.498  0.00  0.00    -0.287 OA
ATOM     16  C   UNL d   1      51.917  33.350  53.280  0.00  0.00     0.006 A 
ENDBRANCH   1  10
TORSDOF 4
ENDMDL
