MODEL 1
REMARK VINA RESULT:      46.6      0.000      0.000
REMARK  2 active torsions:
REMARK  status: ('A' for Active; 'I' for Inactive)
REMARK    1  A    between atoms: C_3  and  C_1 
REMARK       I    between atoms: N_6  and  C_3 
REMARK    2  A    between atoms: C_9  and  N_7 
ROOT
ATOM      1  C   UNL d   1      14.865  12.951  -0.813  0.00  0.00     0.270 C 
ATOM      2  N   UNL d   1      14.545  12.855  -1.555  0.00  0.00    -0.269 N 
ATOM      3  N   UNL d   1      13.891  12.674  -3.087  0.00  0.00    -0.286 N 
ATOM      4  O   UNL d   1      14.765  12.344  -0.237  0.00  0.00    -0.266 OA
ATOM      5  C   UNL d   1      14.645  13.459  -2.129  0.00  0.00     0.102 A 
ATOM      6  C   UNL d   1      14.116  12.170  -1.766  0.00  0.00     0.102 A 
ATOM      7  C   UNL d   1      14.313  13.356  -2.892  0.00  0.00     0.101 A 
ATOM      8  C   UNL d   1      13.791  12.070  -2.513  0.00  0.00     0.101 A 
ENDROOT
BRANCH   1   9
ATOM      9  C   UNL d   1      15.295  13.646  -0.613  0.00  0.00     0.120 A 
ATOM     10  C   UNL d   1      16.075  13.577  -0.289  0.00  0.00     0.305 A 
ATOM     11  O   UNL d   1      16.491  14.255  -0.096  0.00  0.00    -0.273 OA
ATOM     12  O   UNL d   1      16.414  12.813  -0.170  0.00  0.00    -0.259 OA
ATOM     13  C   UNL d   1      16.168  15.002  -0.208  0.00  0.00     0.103 A 
ATOM     14  C   UNL d   1      15.389  15.072  -0.532  0.00  0.00     0.023 A 
ATOM     15  C   UNL d   1      16.585  15.688  -0.014  0.00  0.00     0.025 A 
ATOM     16  C   UNL d   1      14.974  14.390  -0.725  0.00  0.00     0.012 A 
ATOM     17  C   UNL d   1      15.068  15.823  -0.644  0.00  0.00     0.002 A 
ATOM     18  C   UNL d   1      15.482  16.496  -0.451  0.00  0.00     0.000 A 
ATOM     19  C   UNL d   1      16.262  16.427  -0.127  0.00  0.00     0.002 A 
ENDBRANCH   1   9
BRANCH   3  20
ATOM     20  C   UNL d   1      13.570  12.581  -3.837  0.00  0.00     0.148 A 
ATOM     21  N   UNL d   1      13.728  11.884  -4.275  0.00  0.00    -0.227 NA
ATOM     22  C   UNL d   1      13.407  11.779  -5.037  0.00  0.00     0.101 A 
ATOM     23  C   UNL d   1      12.928  12.379  -5.352  0.00  0.00     0.021 A 
ATOM     24  C   UNL d   1      12.770  13.077  -4.914  0.00  0.00     0.005 A 
ATOM     25  C   UNL d   1      13.092  13.169  -4.164  0.00  0.00     0.037 A 
ENDBRANCH   3  20
TORSDOF 2
ENDMDL
