MODEL 1
REMARK VINA RESULT:      20.4      0.000      0.000
REMARK  6 active torsions:
REMARK  status: ('A' for Active; 'I' for Inactive)
REMARK    1  A    between atoms: N_2  and  C_1 
REMARK       I    between atoms: C_4  and  N_2 
REMARK    2  A    between atoms: C_6  and  C_4 
REMARK    3  A    between atoms: C_9  and  C_6 
REMARK    4  A    between atoms: C_8  and  O_15 
REMARK    5  A    between atoms: O_15  and  C_9 
REMARK    6  A    between atoms: O_17  and  C_10 
ROOT
ATOM      1  C   UNL d   1     -54.801-102.520 -39.231  0.00  0.00     0.128 C 
ENDROOT
BRANCH   1   2
ATOM      2  C   UNL d   1     -55.446-102.875 -38.845  0.00  0.00     0.089 C 
BRANCH   2   3
ATOM      3  C   UNL d   1     -55.577-102.723 -38.045  0.00  0.00     0.283 C 
ATOM      4  N   UNL d   1     -54.942-102.508 -37.565  0.00  0.00    -0.183 NA
ATOM      5  O   UNL d   1     -56.336-102.786 -37.730  0.00  0.00    -0.265 OA
BRANCH   4   6
ATOM      6  C   UNL d   1     -55.076-102.356 -36.760  0.00  0.00     0.197 A 
ATOM      7  N   UNL d   1     -55.556-102.790 -36.254  0.00  0.00    -0.219 NA
ATOM      8  C   UNL d   1     -55.525-102.444 -35.513  0.00  0.00     0.108 A 
ATOM      9  C   UNL d   1     -55.021-101.789 -35.562  0.00  0.00     0.059 A 
ATOM     10  S   UNL d   1     -54.742-101.733 -36.332  0.00  0.00    -0.046 SA
ENDBRANCH   4   6
ENDBRANCH   2   3
ENDBRANCH   1   2
BRANCH   1  11
ATOM     11  O   UNL d   1     -54.777-102.877 -39.974  0.00  0.00    -0.305 OA
BRANCH  11  12
ATOM     12  C   UNL d   1     -54.794-102.411 -40.652  0.00  0.00     0.100 A 
ATOM     13  C   UNL d   1     -54.711-101.590 -40.592  0.00  0.00     0.027 A 
ATOM     14  C   UNL d   1     -54.728-101.125 -41.270  0.00  0.00     0.026 A 
ATOM     15  C   UNL d   1     -54.828-101.475 -42.011  0.00  0.00     0.094 A 
ATOM     16  C   UNL d   1     -54.911-102.292 -42.072  0.00  0.00     0.026 A 
ATOM     17  C   UNL d   1     -54.894-102.762 -41.392  0.00  0.00     0.027 A 
BRANCH  15  18
ATOM     18  O   UNL d   1     -54.845-101.001 -42.692  0.00  0.00    -0.328 OA
ATOM     19  C   UNL d   1     -54.995-101.339 -43.428  0.00  0.00     0.181 C 
ENDBRANCH  15  18
ENDBRANCH  11  12
ENDBRANCH   1  11
TORSDOF 6
ENDMDL
