MODEL 1
REMARK VINA RESULT:      -2.3      0.000      0.000
REMARK  4 active torsions:
REMARK  status: ('A' for Active; 'I' for Inactive)
REMARK    1  A    between atoms: C_11  and  C_3 
REMARK    2  A    between atoms: N_10  and  C_4 
REMARK    3  A    between atoms: C_13  and  N_10 
REMARK    4  A    between atoms: C_14  and  C_13 
ROOT
ATOM      1  C   UNL d   1      32.899  19.204 -23.389  0.00  0.00     0.167 A 
ATOM      2  N   UNL d   1      32.984  19.689 -22.729  0.00  0.00    -0.195 N 
ATOM      3  C   UNL d   1      32.735  18.447 -23.124  0.00  0.00     0.057 A 
ATOM      4  C   UNL d   1      33.153  20.489 -22.824  0.00  0.00     0.167 A 
ATOM      5  N   UNL d   1      32.872  19.228 -22.062  0.00  0.00    -0.161 NA
ATOM      6  N   UNL d   1      32.983  19.517 -24.144  0.00  0.00    -0.227 NA
ATOM      7  C   UNL d   1      33.237  20.802 -23.587  0.00  0.00     0.058 A 
ATOM      8  C   UNL d   1      32.719  18.469 -22.299  0.00  0.00     0.124 A 
ATOM      9  C   UNL d   1      33.153  20.322 -24.240  0.00  0.00     0.086 A 
ATOM     10  C   UNL d   1      33.241  20.657 -24.989  0.00  0.00     0.021 C 
ENDROOT
BRANCH   4  11
ATOM     11  N   UNL d   1      33.239  20.975 -22.164  0.00  0.00    -0.224 NA
BRANCH  11  12
ATOM     12  C   UNL d   1      32.918  21.732 -22.167  0.00  0.00     0.120 C 
BRANCH  12  13
ATOM     13  C   UNL d   1      32.738  22.110 -21.447  0.00  0.00     0.101 A 
ATOM     14  N   UNL d   1      33.182  21.945 -20.767  0.00  0.00    -0.242 NA
ATOM     15  C   UNL d   1      33.005  22.317 -20.059  0.00  0.00     0.099 A 
ATOM     16  C   UNL d   1      32.382  22.862 -20.019  0.00  0.00     0.021 A 
ATOM     17  C   UNL d   1      31.942  23.025 -20.697  0.00  0.00     0.003 A 
ATOM     18  C   UNL d   1      32.120  22.649 -21.413  0.00  0.00     0.021 A 
ENDBRANCH  12  13
ENDBRANCH  11  12
ENDBRANCH   4  11
BRANCH   3  19
ATOM     19  C   UNL d   1      32.618  17.828 -23.659  0.00  0.00     0.004 A 
ATOM     20  C   UNL d   1      31.878  17.737 -24.018  0.00  0.00     0.000 A 
ATOM     21  C   UNL d   1      31.755  17.125 -24.550  0.00  0.00     0.000 A 
ATOM     22  C   UNL d   1      32.372  16.597 -24.730  0.00  0.00     0.000 A 
ATOM     23  C   UNL d   1      33.107  16.695 -24.368  0.00  0.00     0.000 A 
ATOM     24  C   UNL d   1      33.227  17.312 -23.833  0.00  0.00     0.000 A 
ENDBRANCH   3  19
TORSDOF 4
ENDMDL
MODEL 2
REMARK VINA RESULT:      -2.1      1.437      2.214
REMARK  4 active torsions:
REMARK  status: ('A' for Active; 'I' for Inactive)
REMARK    1  A    between atoms: C_11  and  C_3 
REMARK    2  A    between atoms: N_10  and  C_4 
REMARK    3  A    between atoms: C_13  and  N_10 
REMARK    4  A    between atoms: C_14  and  C_13 
ROOT
ATOM      1  C   UNL d   1      32.755  18.541 -23.661  0.00  0.00     0.167 A 
ATOM      2  N   UNL d   1      32.859  19.324 -23.896  0.00  0.00    -0.195 N 
ATOM      3  C   UNL d   1      32.530  18.109 -24.319  0.00  0.00     0.057 A 
ATOM      4  C   UNL d   1      33.088  19.893 -23.347  0.00  0.00     0.167 A 
ATOM      5  N   UNL d   1      32.698  19.368 -24.697  0.00  0.00    -0.161 NA
ATOM      6  N   UNL d   1      32.879  18.327 -22.876  0.00  0.00    -0.227 NA
ATOM      7  C   UNL d   1      33.213  19.675 -22.558  0.00  0.00     0.058 A 
ATOM      8  C   UNL d   1      32.497  18.629 -24.959  0.00  0.00     0.124 A 
ATOM      9  C   UNL d   1      33.109  18.900 -22.325  0.00  0.00     0.086 A 
ATOM     10  C   UNL d   1      33.239  18.707 -21.532  0.00  0.00     0.021 C 
ENDROOT
BRANCH   4  11
ATOM     11  N   UNL d   1      33.192  20.675 -23.583  0.00  0.00    -0.224 NA
BRANCH  11  12
ATOM     12  C   UNL d   1      33.228  21.273 -23.019  0.00  0.00     0.120 C 
BRANCH  12  13
ATOM     13  C   UNL d   1      33.185  22.071 -23.255  0.00  0.00     0.101 A 
ATOM     14  N   UNL d   1      33.235  22.272 -24.057  0.00  0.00    -0.242 NA
ATOM     15  C   UNL d   1      33.193  23.056 -24.289  0.00  0.00     0.099 A 
ATOM     16  C   UNL d   1      33.099  23.654 -23.723  0.00  0.00     0.021 A 
ATOM     17  C   UNL d   1      33.049  23.452 -22.925  0.00  0.00     0.003 A 
ATOM     18  C   UNL d   1      33.092  22.659 -22.690  0.00  0.00     0.021 A 
ENDBRANCH  12  13
ENDBRANCH  11  12
ENDBRANCH   4  11
BRANCH   3  19
ATOM     19  C   UNL d   1      32.382  17.298 -24.260  0.00  0.00     0.004 A 
ATOM     20  C   UNL d   1      33.002  16.764 -24.388  0.00  0.00     0.000 A 
ATOM     21  C   UNL d   1      32.863  15.957 -24.332  0.00  0.00     0.000 A 
ATOM     22  C   UNL d   1      32.101  15.676 -24.148  0.00  0.00     0.000 A 
ATOM     23  C   UNL d   1      31.490  16.215 -24.023  0.00  0.00     0.000 A 
ATOM     24  C   UNL d   1      31.633  17.026 -24.080  0.00  0.00     0.000 A 
ENDBRANCH   3  19
TORSDOF 4
ENDMDL
MODEL 3
REMARK VINA RESULT:      -0.6      0.976      5.059
REMARK  4 active torsions:
REMARK  status: ('A' for Active; 'I' for Inactive)
REMARK    1  A    between atoms: C_11  and  C_3 
REMARK    2  A    between atoms: N_10  and  C_4 
REMARK    3  A    between atoms: C_13  and  N_10 
REMARK    4  A    between atoms: C_14  and  C_13 
ROOT
ATOM      1  C   UNL d   1      33.028  21.767 -21.118  0.00  0.00     0.167 A 
ATOM      2  N   UNL d   1      33.120  21.016 -21.444  0.00  0.00    -0.195 N 
ATOM      3  C   UNL d   1      33.041  21.690 -20.303  0.00  0.00     0.057 A 
ATOM      4  C   UNL d   1      33.128  20.920 -22.261  0.00  0.00     0.167 A 
ATOM      5  N   UNL d   1      33.191  20.482 -20.828  0.00  0.00    -0.161 NA
ATOM      6  N   UNL d   1      32.943  22.422 -21.608  0.00  0.00    -0.227 NA
ATOM      7  C   UNL d   1      33.043  21.581 -22.753  0.00  0.00     0.058 A 
ATOM      8  C   UNL d   1      33.143  20.890 -20.129  0.00  0.00     0.124 A 
ATOM      9  C   UNL d   1      32.951  22.323 -22.430  0.00  0.00     0.086 A 
ATOM     10  C   UNL d   1      32.867  22.967 -22.941  0.00  0.00     0.021 C 
ENDROOT
BRANCH   4  11
ATOM     11  N   UNL d   1      33.221  20.169 -22.587  0.00  0.00    -0.224 NA
BRANCH  11  12
ATOM     12  C   UNL d   1      32.880  19.991 -23.314  0.00  0.00     0.120 C 
BRANCH  12  13
ATOM     13  C   UNL d   1      32.931  19.219 -23.620  0.00  0.00     0.101 A 
ATOM     14  N   UNL d   1      32.934  18.567 -23.109  0.00  0.00    -0.242 NA
ATOM     15  C   UNL d   1      32.985  17.807 -23.411  0.00  0.00     0.099 A 
ATOM     16  C   UNL d   1      33.034  17.685 -24.229  0.00  0.00     0.021 A 
ATOM     17  C   UNL d   1      33.030  18.336 -24.737  0.00  0.00     0.003 A 
ATOM     18  C   UNL d   1      32.979  19.104 -24.432  0.00  0.00     0.021 A 
ENDBRANCH  12  13
ENDBRANCH  11  12
ENDBRANCH   4  11
BRANCH   3  19
ATOM     19  C   UNL d   1      32.961  22.352 -19.815  0.00  0.00     0.004 A 
ATOM     20  C   UNL d   1      33.229  22.314 -19.033  0.00  0.00     0.000 A 
ATOM     21  C   UNL d   1      33.153  22.967 -18.542  0.00  0.00     0.000 A 
ATOM     22  C   UNL d   1      32.806  23.667 -18.829  0.00  0.00     0.000 A 
ATOM     23  C   UNL d   1      32.541  23.696 -19.610  0.00  0.00     0.000 A 
ATOM     24  C   UNL d   1      32.620  23.037 -20.101  0.00  0.00     0.000 A 
ENDBRANCH   3  19
TORSDOF 4
ENDMDL
