MODEL 1
REMARK VINA RESULT:      -7.7      0.000      0.000
REMARK  4 active torsions:
REMARK  status: ('A' for Active; 'I' for Inactive)
REMARK    1  A    between atoms: C_7  and  C_3 
REMARK       I    between atoms: N_13  and  C_7 
REMARK    2  A    between atoms: C_14  and  N_13 
REMARK    3  A    between atoms: C_16  and  C_14 
REMARK    4  A    between atoms: C_15  and  C_16 
ROOT
ATOM      1  C   UNL d   1      51.612  34.273  52.677  0.00  0.00     0.285 C 
ATOM      2  O   UNL d   1      51.726  34.415  51.882  0.00  0.00    -0.265 OA
ATOM      3  N   UNL d   1      50.865  34.348  53.009  0.00  0.00    -0.206 NA
ENDROOT
BRANCH   1   4
ATOM      4  C   UNL d   1      52.247  34.053  53.160  0.00  0.00     0.133 A 
ATOM      5  C   UNL d   1      52.574  33.299  53.077  0.00  0.00     0.272 A 
ATOM      6  N   UNL d   1      53.210  33.065  53.554  0.00  0.00    -0.265 N 
ATOM      7  O   UNL d   1      52.272  32.772  52.521  0.00  0.00    -0.266 OA
ATOM      8  C   UNL d   1      53.511  33.593  54.109  0.00  0.00     0.181 A 
ATOM      9  C   UNL d   1      53.638  32.372  53.598  0.00  0.00     0.123 A 
ATOM     10  N   UNL d   1      53.187  34.343  54.192  0.00  0.00    -0.220 NA
ATOM     11  S   UNL d   1      54.133  33.221  54.501  0.00  0.00    -0.049 SA
ATOM     12  C   UNL d   1      52.554  34.574  53.717  0.00  0.00     0.111 A 
ATOM     13  C   UNL d   1      54.209  32.459  54.178  0.00  0.00     0.043 A 
ENDBRANCH   1   4
BRANCH   3  14
ATOM     14  C   UNL d   1      50.228  34.566  52.539  0.00  0.00     0.102 C 
BRANCH  14  15
ATOM     15  C   UNL d   1      49.459  34.580  52.841  0.00  0.00     0.021 C 
BRANCH  15  16
ATOM     16  C   UNL d   1      48.853  34.958  52.424  0.00  0.00     0.002 A 
ATOM     17  C   UNL d   1      48.464  35.604  52.763  0.00  0.00     0.000 A 
ATOM     18  C   UNL d   1      47.864  35.977  52.349  0.00  0.00     0.000 A 
ATOM     19  C   UNL d   1      47.643  35.711  51.589  0.00  0.00     0.000 A 
ATOM     20  C   UNL d   1      48.035  35.069  51.262  0.00  0.00     0.000 A 
ATOM     21  C   UNL d   1      48.639  34.688  51.671  0.00  0.00     0.000 A 
ENDBRANCH  15  16
ENDBRANCH  14  15
ENDBRANCH   3  14
TORSDOF 4
ENDMDL
MODEL 2
REMARK VINA RESULT:      -7.1      3.208      5.799
REMARK  4 active torsions:
REMARK  status: ('A' for Active; 'I' for Inactive)
REMARK    1  A    between atoms: C_7  and  C_3 
REMARK       I    between atoms: N_13  and  C_7 
REMARK    2  A    between atoms: C_14  and  N_13 
REMARK    3  A    between atoms: C_16  and  C_14 
REMARK    4  A    between atoms: C_15  and  C_16 
ROOT
ATOM      1  C   UNL d   1      48.455  35.848  53.185  0.00  0.00     0.285 C 
ATOM      2  O   UNL d   1      48.874  36.247  53.759  0.00  0.00    -0.265 OA
ATOM      3  N   UNL d   1      48.796  35.217  52.785  0.00  0.00    -0.206 NA
ENDROOT
BRANCH   1   4
ATOM      4  C   UNL d   1      47.680  36.073  52.998  0.00  0.00     0.133 A 
ATOM      5  C   UNL d   1      47.108  36.080  53.592  0.00  0.00     0.272 A 
ATOM      6  N   UNL d   1      46.329  36.303  53.418  0.00  0.00    -0.265 N 
ATOM      7  O   UNL d   1      47.303  35.868  54.363  0.00  0.00    -0.266 OA
ATOM      8  C   UNL d   1      46.134  36.516  52.647  0.00  0.00     0.181 A 
ATOM      9  C   UNL d   1      45.658  36.363  53.879  0.00  0.00     0.123 A 
ATOM     10  N   UNL d   1      46.702  36.509  52.055  0.00  0.00    -0.220 NA
ATOM     11  S   UNL d   1      45.333  36.709  52.632  0.00  0.00    -0.049 SA
ATOM     12  C   UNL d   1      47.477  36.287  52.229  0.00  0.00     0.111 A 
ATOM     13  C   UNL d   1      45.040  36.612  53.404  0.00  0.00     0.043 A 
ENDBRANCH   1   4
BRANCH   3  14
ATOM     14  C   UNL d   1      49.564  34.987  52.963  0.00  0.00     0.102 C 
BRANCH  14  15
ATOM     15  C   UNL d   1      49.943  34.395  52.530  0.00  0.00     0.021 C 
BRANCH  15  16
ATOM     16  C   UNL d   1      50.698  34.136  52.747  0.00  0.00     0.002 A 
ATOM     17  C   UNL d   1      51.365  34.513  52.436  0.00  0.00     0.000 A 
ATOM     18  C   UNL d   1      52.111  34.257  52.652  0.00  0.00     0.000 A 
ATOM     19  C   UNL d   1      52.205  33.619  53.182  0.00  0.00     0.000 A 
ATOM     20  C   UNL d   1      51.537  33.251  53.486  0.00  0.00     0.000 A 
ATOM     21  C   UNL d   1      50.782  33.503  53.274  0.00  0.00     0.000 A 
ENDBRANCH  15  16
ENDBRANCH  14  15
ENDBRANCH   3  14
TORSDOF 4
ENDMDL
MODEL 3
REMARK VINA RESULT:      -6.8      2.422      5.285
REMARK  4 active torsions:
REMARK  status: ('A' for Active; 'I' for Inactive)
REMARK    1  A    between atoms: C_7  and  C_3 
REMARK       I    between atoms: N_13  and  C_7 
REMARK    2  A    between atoms: C_14  and  N_13 
REMARK    3  A    between atoms: C_16  and  C_14 
REMARK    4  A    between atoms: C_15  and  C_16 
ROOT
ATOM      1  C   UNL d   1      49.465  34.704  52.162  0.00  0.00     0.285 C 
ATOM      2  O   UNL d   1      49.713  34.512  51.410  0.00  0.00    -0.265 OA
ATOM      3  N   UNL d   1      49.897  34.460  52.816  0.00  0.00    -0.206 NA
ENDROOT
BRANCH   1   4
ATOM      4  C   UNL d   1      48.774  35.145  52.277  0.00  0.00     0.133 A 
ATOM      5  C   UNL d   1      48.168  35.098  51.718  0.00  0.00     0.272 A 
ATOM      6  N   UNL d   1      47.471  35.535  51.821  0.00  0.00    -0.265 N 
ATOM      7  O   UNL d   1      48.248  34.617  51.055  0.00  0.00    -0.266 OA
ATOM      8  C   UNL d   1      47.391  36.015  52.484  0.00  0.00     0.181 A 
ATOM      9  C   UNL d   1      46.792  35.599  51.373  0.00  0.00     0.123 A 
ATOM     10  N   UNL d   1      47.994  36.063  53.040  0.00  0.00    -0.220 NA
ATOM     11  S   UNL d   1      46.654  36.381  52.446  0.00  0.00    -0.049 SA
ATOM     12  C   UNL d   1      48.687  35.628  52.937  0.00  0.00     0.111 A 
ATOM     13  C   UNL d   1      46.283  36.118  51.750  0.00  0.00     0.043 A 
ENDBRANCH   1   4
BRANCH   3  14
ATOM     14  C   UNL d   1      50.584  34.022  52.714  0.00  0.00     0.102 C 
BRANCH  14  15
ATOM     15  C   UNL d   1      50.936  33.627  53.348  0.00  0.00     0.021 C 
BRANCH  15  16
ATOM     16  C   UNL d   1      51.726  33.383  53.301  0.00  0.00     0.002 A 
ATOM     17  C   UNL d   1      51.904  32.619  53.041  0.00  0.00     0.000 A 
ATOM     18  C   UNL d   1      52.684  32.380  52.995  0.00  0.00     0.000 A 
ATOM     19  C   UNL d   1      53.302  32.899  53.209  0.00  0.00     0.000 A 
ATOM     20  C   UNL d   1      53.115  33.655  53.466  0.00  0.00     0.000 A 
ATOM     21  C   UNL d   1      52.332  33.905  53.515  0.00  0.00     0.000 A 
ENDBRANCH  15  16
ENDBRANCH  14  15
ENDBRANCH   3  14
TORSDOF 4
ENDMDL
MODEL 4
REMARK VINA RESULT:      -5.8     10.201     10.960
REMARK  4 active torsions:
REMARK  status: ('A' for Active; 'I' for Inactive)
REMARK    1  A    between atoms: C_7  and  C_3 
REMARK       I    between atoms: N_13  and  C_7 
REMARK    2  A    between atoms: C_14  and  N_13 
REMARK    3  A    between atoms: C_16  and  C_14 
REMARK    4  A    between atoms: C_15  and  C_16 
ROOT
ATOM      1  C   UNL d   1      45.364  27.295  56.881  0.00  0.00     0.285 C 
ATOM      2  O   UNL d   1      46.126  27.007  56.922  0.00  0.00    -0.265 OA
ATOM      3  N   UNL d   1      44.757  26.821  56.595  0.00  0.00    -0.206 NA
ENDROOT
BRANCH   1   4
ATOM      4  C   UNL d   1      45.192  28.066  57.127  0.00  0.00     0.133 A 
ATOM      5  C   UNL d   1      45.249  28.256  57.928  0.00  0.00     0.272 A 
ATOM      6  N   UNL d   1      45.079  29.025  58.188  0.00  0.00    -0.265 N 
ATOM      7  O   UNL d   1      45.473  27.686  58.478  0.00  0.00    -0.266 OA
ATOM      8  C   UNL d   1      44.855  29.595  57.638  0.00  0.00     0.181 A 
ATOM      9  C   UNL d   1      45.087  29.369  58.928  0.00  0.00     0.123 A 
ATOM     10  N   UNL d   1      44.798  29.407  56.841  0.00  0.00    -0.220 NA
ATOM     11  S   UNL d   1      44.722  30.300  58.043  0.00  0.00    -0.049 SA
ATOM     12  C   UNL d   1      44.967  28.642  56.583  0.00  0.00     0.111 A 
ATOM     13  C   UNL d   1      44.868  30.154  58.849  0.00  0.00     0.043 A 
ENDBRANCH   1   4
BRANCH   3  14
ATOM     14  C   UNL d   1      44.917  26.054  56.349  0.00  0.00     0.102 C 
BRANCH  14  15
ATOM     15  C   UNL d   1      44.314  25.560  56.077  0.00  0.00     0.021 C 
BRANCH  15  16
ATOM     16  C   UNL d   1      44.498  24.839  55.714  0.00  0.00     0.002 A 
ATOM     17  C   UNL d   1      44.442  24.769  54.892  0.00  0.00     0.000 A 
ATOM     18  C   UNL d   1      44.624  24.056  54.535  0.00  0.00     0.000 A 
ATOM     19  C   UNL d   1      44.864  23.399  54.992  0.00  0.00     0.000 A 
ATOM     20  C   UNL d   1      44.916  23.479  55.807  0.00  0.00     0.000 A 
ATOM     21  C   UNL d   1      44.735  24.193  56.175  0.00  0.00     0.000 A 
ENDBRANCH  15  16
ENDBRANCH  14  15
ENDBRANCH   3  14
TORSDOF 4
ENDMDL
MODEL 5
REMARK VINA RESULT:      -5.4      9.826     10.679
REMARK  4 active torsions:
REMARK  status: ('A' for Active; 'I' for Inactive)
REMARK    1  A    between atoms: C_7  and  C_3 
REMARK       I    between atoms: N_13  and  C_7 
REMARK    2  A    between atoms: C_14  and  N_13 
REMARK    3  A    between atoms: C_16  and  C_14 
REMARK    4  A    between atoms: C_15  and  C_16 
ROOT
ATOM      1  C   UNL d   1      45.120  30.238  59.156  0.00  0.00     0.285 C 
ATOM      2  O   UNL d   1      45.779  29.875  59.469  0.00  0.00    -0.265 OA
ATOM      3  N   UNL d   1      44.620  30.676  59.639  0.00  0.00    -0.206 NA
ENDROOT
BRANCH   1   4
ATOM      4  C   UNL d   1      44.945  30.171  58.350  0.00  0.00     0.133 A 
ATOM      5  C   UNL d   1      44.804  29.424  58.029  0.00  0.00     0.272 A 
ATOM      6  N   UNL d   1      44.628  29.342  57.223  0.00  0.00    -0.265 N 
ATOM      7  O   UNL d   1      44.837  28.752  58.504  0.00  0.00    -0.266 OA
ATOM      8  C   UNL d   1      44.596  30.014  56.749  0.00  0.00     0.181 A 
ATOM      9  C   UNL d   1      44.467  28.690  56.759  0.00  0.00     0.123 A 
ATOM     10  N   UNL d   1      44.735  30.758  57.067  0.00  0.00    -0.220 NA
ATOM     11  S   UNL d   1      44.412  29.774  55.982  0.00  0.00    -0.049 SA
ATOM     12  C   UNL d   1      44.910  30.838  57.869  0.00  0.00     0.111 A 
ATOM     13  C   UNL d   1      44.333  28.947  55.993  0.00  0.00     0.043 A 
ENDBRANCH   1   4
BRANCH   3  14
ATOM     14  C   UNL d   1      44.784  30.750  60.440  0.00  0.00     0.102 C 
BRANCH  14  15
ATOM     15  C   UNL d   1      44.447  31.354  60.891  0.00  0.00     0.021 C 
BRANCH  15  16
ATOM     16  C   UNL d   1      44.414  31.291  61.716  0.00  0.00     0.002 A 
ATOM     17  C   UNL d   1      44.401  31.975  62.178  0.00  0.00     0.000 A 
ATOM     18  C   UNL d   1      44.368  31.912  62.993  0.00  0.00     0.000 A 
ATOM     19  C   UNL d   1      44.346  31.162  63.361  0.00  0.00     0.000 A 
ATOM     20  C   UNL d   1      44.359  30.489  62.893  0.00  0.00     0.000 A 
ATOM     21  C   UNL d   1      44.392  30.544  62.072  0.00  0.00     0.000 A 
ENDBRANCH  15  16
ENDBRANCH  14  15
ENDBRANCH   3  14
TORSDOF 4
ENDMDL
MODEL 6
REMARK VINA RESULT:      -5.2     10.672     11.488
REMARK  4 active torsions:
REMARK  status: ('A' for Active; 'I' for Inactive)
REMARK    1  A    between atoms: C_7  and  C_3 
REMARK       I    between atoms: N_13  and  C_7 
REMARK    2  A    between atoms: C_14  and  N_13 
REMARK    3  A    between atoms: C_16  and  C_14 
REMARK    4  A    between atoms: C_15  and  C_16 
ROOT
ATOM      1  C   UNL d   1      45.266  27.166  57.463  0.00  0.00     0.285 C 
ATOM      2  O   UNL d   1      45.814  26.947  56.900  0.00  0.00    -0.265 OA
ATOM      3  N   UNL d   1      44.795  26.599  57.825  0.00  0.00    -0.206 NA
ENDROOT
BRANCH   1   4
ATOM      4  C   UNL d   1      45.176  27.961  57.675  0.00  0.00     0.133 A 
ATOM      5  C   UNL d   1      44.927  28.505  57.106  0.00  0.00     0.272 A 
ATOM      6  N   UNL d   1      44.833  29.304  57.305  0.00  0.00    -0.265 N 
ATOM      7  O   UNL d   1      44.769  28.261  56.336  0.00  0.00    -0.266 OA
ATOM      8  C   UNL d   1      44.991  29.548  58.076  0.00  0.00     0.181 A 
ATOM      9  C   UNL d   1      44.600  29.955  56.872  0.00  0.00     0.123 A 
ATOM     10  N   UNL d   1      45.238  29.007  58.642  0.00  0.00    -0.220 NA
ATOM     11  S   UNL d   1      44.853  30.359  58.119  0.00  0.00    -0.049 SA
ATOM     12  C   UNL d   1      45.332  28.213  58.443  0.00  0.00     0.111 A 
ATOM     13  C   UNL d   1      44.609  30.609  57.364  0.00  0.00     0.043 A 
ENDBRANCH   1   4
BRANCH   3  14
ATOM     14  C   UNL d   1      44.876  25.808  57.622  0.00  0.00     0.102 C 
BRANCH  14  15
ATOM     15  C   UNL d   1      44.315  25.249  57.854  0.00  0.00     0.021 C 
BRANCH  15  16
ATOM     16  C   UNL d   1      44.502  24.442  57.851  0.00  0.00     0.002 A 
ATOM     17  C   UNL d   1      44.507  24.026  57.138  0.00  0.00     0.000 A 
ATOM     18  C   UNL d   1      44.693  23.229  57.136  0.00  0.00     0.000 A 
ATOM     19  C   UNL d   1      44.878  22.834  57.848  0.00  0.00     0.000 A 
ATOM     20  C   UNL d   1      44.870  23.256  58.551  0.00  0.00     0.000 A 
ATOM     21  C   UNL d   1      44.685  24.058  58.562  0.00  0.00     0.000 A 
ENDBRANCH  15  16
ENDBRANCH  14  15
ENDBRANCH   3  14
TORSDOF 4
ENDMDL
MODEL 7
REMARK VINA RESULT:      -5.1     11.133     11.712
REMARK  4 active torsions:
REMARK  status: ('A' for Active; 'I' for Inactive)
REMARK    1  A    between atoms: C_7  and  C_3 
REMARK       I    between atoms: N_13  and  C_7 
REMARK    2  A    between atoms: C_14  and  N_13 
REMARK    3  A    between atoms: C_16  and  C_14 
REMARK    4  A    between atoms: C_15  and  C_16 
ROOT
ATOM      1  C   UNL d   1      44.668  25.035  56.083  0.00  0.00     0.285 C 
ATOM      2  O   UNL d   1      44.345  24.792  56.791  0.00  0.00    -0.265 OA
ATOM      3  N   UNL d   1      45.005  25.781  56.016  0.00  0.00    -0.206 NA
ENDROOT
BRANCH   1   4
ATOM      4  C   UNL d   1      44.661  24.535  55.424  0.00  0.00     0.133 A 
ATOM      5  C   UNL d   1      45.008  23.788  55.481  0.00  0.00     0.272 A 
ATOM      6  N   UNL d   1      45.008  23.277  54.828  0.00  0.00    -0.265 N 
ATOM      7  O   UNL d   1      45.357  23.542  56.184  0.00  0.00    -0.266 OA
ATOM      8  C   UNL d   1      44.659  23.523  54.124  0.00  0.00     0.181 A 
ATOM      9  C   UNL d   1      45.301  22.523  54.720  0.00  0.00     0.123 A 
ATOM     10  N   UNL d   1      44.314  24.266  54.067  0.00  0.00    -0.220 NA
ATOM     11  S   UNL d   1      44.738  22.915  53.575  0.00  0.00    -0.049 SA
ATOM     12  C   UNL d   1      44.314  24.774  54.717  0.00  0.00     0.111 A 
ATOM     13  C   UNL d   1      45.139  22.292  53.952  0.00  0.00     0.043 A 
ENDBRANCH   1   4
BRANCH   3  14
ATOM     14  C   UNL d   1      45.017  26.285  56.664  0.00  0.00     0.102 C 
BRANCH  14  15
ATOM     15  C   UNL d   1      45.517  26.942  56.684  0.00  0.00     0.021 C 
BRANCH  15  16
ATOM     16  C   UNL d   1      45.327  27.597  57.154  0.00  0.00     0.002 A 
ATOM     17  C   UNL d   1      45.468  27.571  57.968  0.00  0.00     0.000 A 
ATOM     18  C   UNL d   1      45.280  28.219  58.431  0.00  0.00     0.000 A 
ATOM     19  C   UNL d   1      44.948  28.904  58.089  0.00  0.00     0.000 A 
ATOM     20  C   UNL d   1      44.812  28.920  57.280  0.00  0.00     0.000 A 
ATOM     21  C   UNL d   1      44.998  28.273  56.807  0.00  0.00     0.000 A 
ENDBRANCH  15  16
ENDBRANCH  14  15
ENDBRANCH   3  14
TORSDOF 4
ENDMDL
MODEL 8
REMARK VINA RESULT:      -5.0     10.671     11.318
REMARK  4 active torsions:
REMARK  status: ('A' for Active; 'I' for Inactive)
REMARK    1  A    between atoms: C_7  and  C_3 
REMARK       I    between atoms: N_13  and  C_7 
REMARK    2  A    between atoms: C_14  and  N_13 
REMARK    3  A    between atoms: C_16  and  C_14 
REMARK    4  A    between atoms: C_15  and  C_16 
ROOT
ATOM      1  C   UNL d   1      45.081  27.225  58.450  0.00  0.00     0.285 C 
ATOM      2  O   UNL d   1      45.490  26.938  59.093  0.00  0.00    -0.265 OA
ATOM      3  N   UNL d   1      44.728  27.966  58.480  0.00  0.00    -0.206 NA
ENDROOT
BRANCH   1   4
ATOM      4  C   UNL d   1      45.015  26.775  57.758  0.00  0.00     0.133 A 
ATOM      5  C   UNL d   1      44.684  26.020  57.799  0.00  0.00     0.272 A 
ATOM      6  N   UNL d   1      44.612  25.558  57.114  0.00  0.00    -0.265 N 
ATOM      7  O   UNL d   1      44.422  25.717  58.518  0.00  0.00    -0.266 OA
ATOM      8  C   UNL d   1      44.874  25.861  56.396  0.00  0.00     0.181 A 
ATOM      9  C   UNL d   1      44.315  24.809  56.985  0.00  0.00     0.123 A 
ATOM     10  N   UNL d   1      45.204  26.613  56.354  0.00  0.00    -0.220 NA
ATOM     11  S   UNL d   1      44.738  25.293  55.815  0.00  0.00    -0.049 SA
ATOM     12  C   UNL d   1      45.275  27.071  57.036  0.00  0.00     0.111 A 
ATOM     13  C   UNL d   1      44.388  24.638  56.188  0.00  0.00     0.043 A 
ENDBRANCH   1   4
BRANCH   3  14
ATOM     14  C   UNL d   1      44.787  28.421  59.161  0.00  0.00     0.102 C 
BRANCH  14  15
ATOM     15  C   UNL d   1      44.495  29.193  59.185  0.00  0.00     0.021 C 
BRANCH  15  16
ATOM     16  C   UNL d   1      44.558  29.643  59.877  0.00  0.00     0.002 A 
ATOM     17  C   UNL d   1      44.766  30.441  59.828  0.00  0.00     0.000 A 
ATOM     18  C   UNL d   1      44.829  30.884  60.513  0.00  0.00     0.000 A 
ATOM     19  C   UNL d   1      44.685  30.538  61.259  0.00  0.00     0.000 A 
ATOM     20  C   UNL d   1      44.480  29.744  61.296  0.00  0.00     0.000 A 
ATOM     21  C   UNL d   1      44.415  29.291  60.612  0.00  0.00     0.000 A 
ENDBRANCH  15  16
ENDBRANCH  14  15
ENDBRANCH   3  14
TORSDOF 4
ENDMDL
