MODEL 1
REMARK VINA RESULT:      -2.2      0.000      0.000
REMARK  3 active torsions:
REMARK  status: ('A' for Active; 'I' for Inactive)
REMARK       I    between atoms: N_2  and  C_1 
REMARK    1  A    between atoms: C_3  and  C_1 
REMARK    2  A    between atoms: C_6  and  N_2 
REMARK    3  A    between atoms: C_5  and  C_4 
ROOT
ATOM      1  C   UNL d   1      31.099  17.024 -24.610  0.00  0.00     0.279 C 
ATOM      2  N   UNL d   1      30.309  17.275 -24.618  0.00  0.00    -0.207 NA
ATOM      3  O   UNL d   1      31.273  16.219 -24.610  0.00  0.00    -0.265 OA
ENDROOT
BRANCH   1   4
ATOM      4  C   UNL d   1      31.707  17.582 -24.602  0.00  0.00     0.064 A 
ATOM      5  C   UNL d   1      32.346  17.481 -24.097  0.00  0.00     0.069 A 
ATOM      6  C   UNL d   1      32.963  18.035 -24.080  0.00  0.00     0.006 A 
ATOM      7  C   UNL d   1      32.919  18.690 -24.582  0.00  0.00     0.000 A 
ATOM      8  C   UNL d   1      32.279  18.790 -25.086  0.00  0.00     0.000 A 
ATOM      9  C   UNL d   1      31.674  18.238 -25.097  0.00  0.00     0.005 A 
BRANCH   5  10
ATOM     10  C   UNL d   1      32.381  16.821 -23.598  0.00  0.00     0.211 C 
ATOM     11  O   UNL d   1      32.737  16.120 -23.860  0.00  0.00    -0.644 OA
ATOM     12  O   UNL d   1      32.060  16.864 -22.838  0.00  0.00    -0.644 OA
ENDBRANCH   5  10
ENDBRANCH   1   4
BRANCH   2  13
ATOM     13  C   UNL d   1      29.697  16.721 -24.625  0.00  0.00     0.095 A 
ATOM     14  C   UNL d   1      28.993  16.877 -24.232  0.00  0.00     0.075 A 
ATOM     15 CL   UNL d   1      28.897  17.589 -23.829  0.00  0.00    -0.081 Cl
ATOM     16  C   UNL d   1      28.386  16.327 -24.241  0.00  0.00     0.013 A 
ATOM     17  C   UNL d   1      28.479  15.609 -24.646  0.00  0.00     0.001 A 
ATOM     18  C   UNL d   1      29.188  15.455 -25.040  0.00  0.00     0.002 A 
ATOM     19  C   UNL d   1      29.798  16.013 -25.029  0.00  0.00     0.020 A 
ENDBRANCH   2  13
TORSDOF 3
ENDMDL
MODEL 2
REMARK VINA RESULT:      -1.6      1.693      3.267
REMARK  3 active torsions:
REMARK  status: ('A' for Active; 'I' for Inactive)
REMARK       I    between atoms: N_2  and  C_1 
REMARK    1  A    between atoms: C_3  and  C_1 
REMARK    2  A    between atoms: C_6  and  N_2 
REMARK    3  A    between atoms: C_5  and  C_4 
ROOT
ATOM      1  C   UNL d   1      30.396  16.653 -24.467  0.00  0.00     0.279 C 
ATOM      2  N   UNL d   1      31.136  16.979 -24.285  0.00  0.00    -0.207 NA
ATOM      3  O   UNL d   1      30.337  15.859 -24.677  0.00  0.00    -0.265 OA
ENDROOT
BRANCH   1   4
ATOM      4  C   UNL d   1      29.720  17.128 -24.437  0.00  0.00     0.064 A 
ATOM      5  C   UNL d   1      29.059  16.870 -24.025  0.00  0.00     0.069 A 
ATOM      6  C   UNL d   1      28.375  17.338 -23.988  0.00  0.00     0.006 A 
ATOM      7  C   UNL d   1      28.375  18.067 -24.374  0.00  0.00     0.000 A 
ATOM      8  C   UNL d   1      29.037  18.325 -24.787  0.00  0.00     0.000 A 
ATOM      9  C   UNL d   1      29.708  17.857 -24.818  0.00  0.00     0.005 A 
BRANCH   5  10
ATOM     10  C   UNL d   1      29.069  16.137 -23.640  0.00  0.00     0.211 C 
ATOM     11  O   UNL d   1      29.281  16.090 -22.840  0.00  0.00    -0.644 OA
ATOM     12  O   UNL d   1      28.868  15.452 -24.057  0.00  0.00    -0.644 OA
ENDBRANCH   5  10
ENDBRANCH   1   4
BRANCH   2  13
ATOM     13  C   UNL d   1      31.814  16.508 -24.313  0.00  0.00     0.095 A 
ATOM     14  C   UNL d   1      32.419  16.623 -23.769  0.00  0.00     0.075 A 
ATOM     15 CL   UNL d   1      32.349  17.209 -23.194  0.00  0.00    -0.081 Cl
ATOM     16  C   UNL d   1      33.092  16.156 -23.798  0.00  0.00     0.013 A 
ATOM     17  C   UNL d   1      33.165  15.565 -24.376  0.00  0.00     0.001 A 
ATOM     18  C   UNL d   1      32.556  15.453 -24.920  0.00  0.00     0.002 A 
ATOM     19  C   UNL d   1      31.879  15.926 -24.888  0.00  0.00     0.020 A 
ENDBRANCH   2  13
TORSDOF 3
ENDMDL
MODEL 3
REMARK VINA RESULT:      -0.9      1.458      3.645
REMARK  3 active torsions:
REMARK  status: ('A' for Active; 'I' for Inactive)
REMARK       I    between atoms: N_2  and  C_1 
REMARK    1  A    between atoms: C_3  and  C_1 
REMARK    2  A    between atoms: C_6  and  N_2 
REMARK    3  A    between atoms: C_5  and  C_4 
ROOT
ATOM      1  C   UNL d   1      30.255  16.331 -23.739  0.00  0.00     0.279 C 
ATOM      2  N   UNL d   1      30.770  16.737 -24.246  0.00  0.00    -0.207 NA
ATOM      3  O   UNL d   1      30.459  16.222 -22.949  0.00  0.00    -0.265 OA
ENDROOT
BRANCH   1   4
ATOM      4  C   UNL d   1      29.540  16.037 -24.030  0.00  0.00     0.064 A 
ATOM      5  C   UNL d   1      28.883  16.003 -23.539  0.00  0.00     0.069 A 
ATOM      6  C   UNL d   1      28.160  15.710 -23.819  0.00  0.00     0.006 A 
ATOM      7  C   UNL d   1      28.116  15.453 -24.603  0.00  0.00     0.000 A 
ATOM      8  C   UNL d   1      28.773  15.488 -25.094  0.00  0.00     0.000 A 
ATOM      9  C   UNL d   1      29.484  15.779 -24.809  0.00  0.00     0.005 A 
BRANCH   5  10
ATOM     10  C   UNL d   1      28.938  16.262 -22.754  0.00  0.00     0.211 C 
ATOM     11  O   UNL d   1      29.223  15.751 -22.166  0.00  0.00    -0.644 OA
ATOM     12  O   UNL d   1      28.708  17.031 -22.559  0.00  0.00    -0.644 OA
ENDBRANCH   5  10
ENDBRANCH   1   4
BRANCH   2  13
ATOM     13  C   UNL d   1      31.486  17.034 -23.960  0.00  0.00     0.095 A 
ATOM     14  C   UNL d   1      31.735  17.786 -24.173  0.00  0.00     0.075 A 
ATOM     15 CL   UNL d   1      31.270  18.247 -24.673  0.00  0.00    -0.081 Cl
ATOM     16  C   UNL d   1      32.446  18.079 -23.889  0.00  0.00     0.013 A 
ATOM     17  C   UNL d   1      32.917  17.617 -23.385  0.00  0.00     0.001 A 
ATOM     18  C   UNL d   1      32.662  16.862 -23.173  0.00  0.00     0.002 A 
ATOM     19  C   UNL d   1      31.945  16.569 -23.462  0.00  0.00     0.020 A 
ENDBRANCH   2  13
TORSDOF 3
ENDMDL
MODEL 4
REMARK VINA RESULT:      -0.8      1.291      1.745
REMARK  3 active torsions:
REMARK  status: ('A' for Active; 'I' for Inactive)
REMARK       I    between atoms: N_2  and  C_1 
REMARK    1  A    between atoms: C_3  and  C_1 
REMARK    2  A    between atoms: C_6  and  N_2 
REMARK    3  A    between atoms: C_5  and  C_4 
ROOT
ATOM      1  C   UNL d   1      30.909  16.677 -24.354  0.00  0.00     0.279 C 
ATOM      2  N   UNL d   1      30.382  16.107 -24.063  0.00  0.00    -0.207 NA
ATOM      3  O   UNL d   1      30.652  17.451 -24.470  0.00  0.00    -0.265 OA
ENDROOT
BRANCH   1   4
ATOM      4  C   UNL d   1      31.688  16.466 -24.526  0.00  0.00     0.064 A 
ATOM      5  C   UNL d   1      32.304  16.956 -24.292  0.00  0.00     0.069 A 
ATOM      6  C   UNL d   1      33.091  16.756 -24.459  0.00  0.00     0.006 A 
ATOM      7  C   UNL d   1      33.241  16.052 -24.864  0.00  0.00     0.000 A 
ATOM      8  C   UNL d   1      32.625  15.562 -25.097  0.00  0.00     0.000 A 
ATOM      9  C   UNL d   1      31.851  15.768 -24.929  0.00  0.00     0.005 A 
BRANCH   5  10
ATOM     10  C   UNL d   1      32.143  17.660 -23.886  0.00  0.00     0.211 C 
ATOM     11  O   UNL d   1      32.125  17.667 -23.058  0.00  0.00    -0.644 OA
ATOM     12  O   UNL d   1      32.001  18.355 -24.310  0.00  0.00    -0.644 OA
ENDBRANCH   5  10
ENDBRANCH   1   4
BRANCH   2  13
ATOM     13  C   UNL d   1      29.601  16.312 -23.890  0.00  0.00     0.095 A 
ATOM     14  C   UNL d   1      29.224  15.987 -23.237  0.00  0.00     0.075 A 
ATOM     15 CL   UNL d   1      29.626  15.454 -22.754  0.00  0.00    -0.081 Cl
ATOM     16  C   UNL d   1      28.449  16.192 -23.066  0.00  0.00     0.013 A 
ATOM     17  C   UNL d   1      28.042  16.728 -23.551  0.00  0.00     0.001 A 
ATOM     18  C   UNL d   1      28.425  17.053 -24.206  0.00  0.00     0.002 A 
ATOM     19  C   UNL d   1      29.206  16.844 -24.375  0.00  0.00     0.020 A 
ENDBRANCH   2  13
TORSDOF 3
ENDMDL
MODEL 5
REMARK VINA RESULT:      -0.3      3.121      4.628
REMARK  3 active torsions:
REMARK  status: ('A' for Active; 'I' for Inactive)
REMARK       I    between atoms: N_2  and  C_1 
REMARK    1  A    between atoms: C_3  and  C_1 
REMARK    2  A    between atoms: C_6  and  N_2 
REMARK    3  A    between atoms: C_5  and  C_4 
ROOT
ATOM      1  C   UNL d   1      32.964  19.473 -22.714  0.00  0.00     0.279 C 
ATOM      2  N   UNL d   1      32.951  20.275 -22.503  0.00  0.00    -0.207 NA
ATOM      3  O   UNL d   1      32.970  18.894 -22.129  0.00  0.00    -0.265 OA
ENDROOT
BRANCH   1   4
ATOM      4  C   UNL d   1      32.970  19.260 -23.512  0.00  0.00     0.064 A 
ATOM      5  C   UNL d   1      32.817  18.483 -23.728  0.00  0.00     0.069 A 
ATOM      6  C   UNL d   1      32.820  18.256 -24.525  0.00  0.00     0.006 A 
ATOM      7  C   UNL d   1      32.980  18.830 -25.097  0.00  0.00     0.000 A 
ATOM      8  C   UNL d   1      33.132  19.607 -24.882  0.00  0.00     0.000 A 
ATOM      9  C   UNL d   1      33.127  19.822 -24.091  0.00  0.00     0.005 A 
BRANCH   5  10
ATOM     10  C   UNL d   1      32.658  17.914 -23.146  0.00  0.00     0.211 C 
ATOM     11  O   UNL d   1      31.931  17.921 -22.747  0.00  0.00    -0.644 OA
ATOM     12  O   UNL d   1      33.225  17.343 -22.965  0.00  0.00    -0.644 OA
ENDBRANCH   5  10
ENDBRANCH   1   4
BRANCH   2  13
ATOM     13  C   UNL d   1      32.945  20.493 -21.706  0.00  0.00     0.095 A 
ATOM     14  C   UNL d   1      32.648  21.225 -21.482  0.00  0.00     0.075 A 
ATOM     15 CL   UNL d   1      32.355  21.742 -22.052  0.00  0.00    -0.081 Cl
ATOM     16  C   UNL d   1      32.643  21.441 -20.691  0.00  0.00     0.013 A 
ATOM     17  C   UNL d   1      32.937  20.922 -20.114  0.00  0.00     0.001 A 
ATOM     18  C   UNL d   1      33.235  20.188 -20.344  0.00  0.00     0.002 A 
ATOM     19  C   UNL d   1      33.239  19.974 -21.142  0.00  0.00     0.020 A 
ENDBRANCH   2  13
TORSDOF 3
ENDMDL
MODEL 6
REMARK VINA RESULT:       0.3      4.890      6.218
REMARK  3 active torsions:
REMARK  status: ('A' for Active; 'I' for Inactive)
REMARK       I    between atoms: N_2  and  C_1 
REMARK    1  A    between atoms: C_3  and  C_1 
REMARK    2  A    between atoms: C_6  and  N_2 
REMARK    3  A    between atoms: C_5  and  C_4 
ROOT
ATOM      1  C   UNL d   1      33.079  21.706 -21.657  0.00  0.00     0.279 C 
ATOM      2  N   UNL d   1      32.983  20.883 -21.683  0.00  0.00    -0.207 NA
ATOM      3  O   UNL d   1      33.241  22.122 -22.348  0.00  0.00    -0.265 OA
ENDROOT
BRANCH   1   4
ATOM      4  C   UNL d   1      33.012  22.103 -20.936  0.00  0.00     0.064 A 
ATOM      5  C   UNL d   1      32.716  22.869 -20.919  0.00  0.00     0.069 A 
ATOM      6  C   UNL d   1      32.643  23.279 -20.202  0.00  0.00     0.006 A 
ATOM      7  C   UNL d   1      32.876  22.900 -19.506  0.00  0.00     0.000 A 
ATOM      8  C   UNL d   1      33.173  22.134 -19.523  0.00  0.00     0.000 A 
ATOM      9  C   UNL d   1      33.241  21.737 -20.236  0.00  0.00     0.005 A 
BRANCH   5  10
ATOM     10  C   UNL d   1      32.485  23.240 -21.623  0.00  0.00     0.211 C 
ATOM     11  O   UNL d   1      31.697  23.197 -21.876  0.00  0.00    -0.644 OA
ATOM     12  O   UNL d   1      33.043  23.653 -22.070  0.00  0.00    -0.644 OA
ENDBRANCH   5  10
ENDBRANCH   1   4
BRANCH   2  13
ATOM     13  C   UNL d   1      33.049  20.480 -22.401  0.00  0.00     0.095 A 
ATOM     14  C   UNL d   1      33.175  19.669 -22.409  0.00  0.00     0.075 A 
ATOM     15 CL   UNL d   1      33.236  19.255 -21.698  0.00  0.00    -0.081 Cl
ATOM     16  C   UNL d   1      33.241  19.270 -23.121  0.00  0.00     0.013 A 
ATOM     17  C   UNL d   1      33.180  19.683 -23.838  0.00  0.00     0.001 A 
ATOM     18  C   UNL d   1      33.053  20.498 -23.827  0.00  0.00     0.002 A 
ATOM     19  C   UNL d   1      32.987  20.897 -23.106  0.00  0.00     0.020 A 
ENDBRANCH   2  13
TORSDOF 3
ENDMDL
