MODEL 1
REMARK VINA RESULT:      13.2      0.000      0.000
REMARK  5 active torsions:
REMARK  status: ('A' for Active; 'I' for Inactive)
REMARK    1  A    between atoms: N_5  and  S_1 
REMARK    2  A    between atoms: C_9  and  S_1 
REMARK    3  A    between atoms: C_2  and  N_4 
REMARK    4  A    between atoms: C_7  and  C_3 
REMARK       I    between atoms: N_4  and  C_6 
REMARK    5  A    between atoms: C_6  and  C_14 
ROOT
ATOM      1  C   UNL d   1      45.796 -15.421  44.348  0.00  0.00     0.104 A 
ATOM      2  C   UNL d   1      46.027 -17.055  44.293  0.00  0.00     0.058 A 
ATOM      3  C   UNL d   1      46.203 -15.763  43.714  0.00  0.00     0.013 A 
ATOM      4  C   UNL d   1      45.508 -15.899  44.950  0.00  0.00     0.013 A 
ATOM      5  C   UNL d   1      46.315 -16.577  43.691  0.00  0.00     0.005 A 
ATOM      6  C   UNL d   1      45.620 -16.712  44.928  0.00  0.00     0.005 A 
ENDROOT
BRANCH   2   7
ATOM      7  C   UNL d   1      46.142 -17.876  44.268  0.00  0.00     0.280 C 
ATOM      8  N   UNL d   1      46.325 -18.245  43.555  0.00  0.00    -0.201 NA
ATOM      9  O   UNL d   1      46.071 -18.306  44.954  0.00  0.00    -0.265 OA
BRANCH   8  10
ATOM     10  C   UNL d   1      46.438 -19.059  43.536  0.00  0.00     0.119 A 
ATOM     11  C   UNL d   1      46.534 -19.520  42.855  0.00  0.00     0.084 A 
ATOM     12  C   UNL d   1      46.631 -20.311  43.094  0.00  0.00     0.014 A 
ATOM     13  C   UNL d   1      46.594 -20.330  43.918  0.00  0.00     0.037 A 
ATOM     14  S   UNL d   1      46.475 -19.560  44.184  0.00  0.00    -0.067 SA
BRANCH  11  15
ATOM     15  C   UNL d   1      46.535 -19.251  42.077  0.00  0.00     0.299 C 
ATOM     16  O   UNL d   1      46.421 -18.445  41.925  0.00  0.00    -0.264 OA
ATOM     17  N   UNL d   1      46.647 -19.780  41.454  0.00  0.00    -0.102 N 
ENDBRANCH  11  15
ENDBRANCH   8  10
ENDBRANCH   2   7
BRANCH   1  18
ATOM     18  S   UNL d   1      45.683 -14.607  44.371  0.00  0.00     0.271 S 
ATOM     19  O   UNL d   1      45.063 -14.707  44.912  0.00  0.00    -0.200 OA
ATOM     20  O   UNL d   1      46.297 -14.507  43.835  0.00  0.00    -0.200 OA
BRANCH  18  21
ATOM     21  N   UNL d   1      45.571 -13.791  44.393  0.00  0.00    -0.229 N 
ATOM     22  C   UNL d   1      45.033 -13.433  43.882  0.00  0.00     0.092 A 
ATOM     23  C   UNL d   1      44.922 -12.611  43.905  0.00  0.00     0.020 A 
ATOM     24  C   UNL d   1      45.347 -12.157  44.438  0.00  0.00     0.003 A 
ATOM     25  C   UNL d   1      45.888 -12.512  44.953  0.00  0.00     0.020 A 
ATOM     26  C   UNL d   1      46.000 -13.325  44.932  0.00  0.00     0.092 A 
ENDBRANCH  18  21
ENDBRANCH   1  18
TORSDOF 5
ENDMDL
