MODEL 1
REMARK VINA RESULT:      77.3      0.000      0.000
REMARK  4 active torsions:
REMARK  status: ('A' for Active; 'I' for Inactive)
REMARK    1  A    between atoms: C_2  and  C_1 
REMARK    2  A    between atoms: C_16  and  C_4 
REMARK    3  A    between atoms: C_28  and  C_15 
REMARK    4  A    between atoms: N_17  and  C_16 
ROOT
ATOM      1  C   UNL d   1      13.718  15.306  -4.443  0.00  0.00     0.098 A 
ATOM      2  C   UNL d   1      13.231  13.177  -3.262  0.00  0.00     0.079 A 
ATOM      3  C   UNL d   1      13.424  13.898  -4.479  0.00  0.00     0.062 A 
ATOM      4  C   UNL d   1      13.585  14.602  -4.877  0.00  0.00     0.202 A 
ATOM      5  C   UNL d   1      13.391  13.875  -3.647  0.00  0.00     0.108 A 
ATOM      6  C   UNL d   1      13.684  15.282  -3.610  0.00  0.00     0.129 A 
ATOM      7  O   UNL d   1      13.521  14.569  -3.208  0.00  0.00    -0.305 OA
ATOM      8  C   UNL d   1      13.101  12.488  -3.692  0.00  0.00     0.199 A 
ATOM      9  C   UNL d   1      13.294  13.209  -4.913  0.00  0.00     0.008 A 
ATOM     10  C   UNL d   1      13.134  12.511  -4.514  0.00  0.00     0.039 A 
ATOM     11  O   UNL d   1      13.617  14.620  -5.695  0.00  0.00    -0.286 OA
ATOM     12  O   UNL d   1      12.940  11.781  -3.309  0.00  0.00    -0.286 OA
ENDROOT
BRANCH   1  13
ATOM     13  C   UNL d   1      13.879  16.013  -4.836  0.00  0.00     0.153 A 
ATOM     14  N   UNL d   1      13.475  16.304  -5.499  0.00  0.00    -0.227 NA
ATOM     15  C   UNL d   1      13.823  17.027  -5.707  0.00  0.00     0.099 A 
ATOM     16  C   UNL d   1      13.652  17.554  -6.309  0.00  0.00     0.021 A 
ATOM     17  C   UNL d   1      14.429  17.180  -5.183  0.00  0.00     0.083 A 
ATOM     18  C   UNL d   1      14.097  18.245  -6.388  0.00  0.00     0.002 A 
ATOM     19  C   UNL d   1      14.706  18.400  -5.863  0.00  0.00     0.002 A 
ATOM     20  C   UNL d   1      14.876  17.860  -5.250  0.00  0.00     0.019 A 
ATOM     21  N   UNL d   1      14.469  16.548  -4.635  0.00  0.00    -0.288 N 
ATOM     22  C   UNL d   1      15.000  16.469  -4.007  0.00  0.00     0.101 C 
ENDBRANCH   1  13
BRANCH  10  23
ATOM     23  C   UNL d   1      13.003  11.812  -4.950  0.00  0.00     0.003 C 
ATOM     24  C   UNL d   1      13.035  11.821  -5.777  0.00  0.00     0.000 C 
ENDBRANCH  10  23
BRANCH   2  25
ATOM     25  C   UNL d   1      13.198  13.154  -2.440  0.00  0.00     0.086 C 
BRANCH  25  26
ATOM     26  N   UNL d   1      13.811  12.821  -2.015  0.00  0.00    -0.300 N 
ATOM     27  C   UNL d   1      13.692  12.110  -1.596  0.00  0.00     0.100 A 
ATOM     28  C   UNL d   1      14.328  11.779  -1.164  0.00  0.00     0.100 A 
ATOM     29  N   UNL d   1      15.063  12.149  -1.150  0.00  0.00    -0.299 N 
ATOM     30  C   UNL d   1      15.173  12.859  -1.571  0.00  0.00     0.100 A 
ATOM     31  C   UNL d   1      15.689  11.817  -0.721  0.00  0.00     0.100 C 
ATOM     32  C   UNL d   1      14.551  13.192  -2.000  0.00  0.00     0.100 A 
ENDBRANCH  25  26
ENDBRANCH   2  25
TORSDOF 4
ENDMDL
