MODEL 1
REMARK VINA RESULT:      -2.3      0.000      0.000
REMARK  4 active torsions:
REMARK  status: ('A' for Active; 'I' for Inactive)
REMARK    1  A    between atoms: C_7  and  C_4 
REMARK    2  A    between atoms: C_8  and  C_5 
REMARK    3  A    between atoms: S_9  and  C_6 
REMARK    4  A    between atoms: C_14  and  S_9 
ROOT
ATOM      1  N   UNL d   1     -41.167-122.138 -52.053  0.00  0.00    -0.200 NA
ATOM      2  N   UNL d   1     -41.521-123.287 -51.311  0.00  0.00    -0.202 NA
ATOM      3  N   UNL d   1     -41.551-121.997 -50.692  0.00  0.00    -0.206 NA
ATOM      4  C   UNL d   1     -41.298-121.661 -51.416  0.00  0.00     0.187 A 
ATOM      5  C   UNL d   1     -41.658-122.808 -50.654  0.00  0.00     0.166 A 
ATOM      6  C   UNL d   1     -41.278-122.947 -52.000  0.00  0.00     0.197 A 
ENDROOT
BRANCH   5   7
ATOM      7  C   UNL d   1     -41.908-123.145 -49.944  0.00  0.00     0.036 A 
ATOM      8  C   UNL d   1     -42.697-123.207 -49.795  0.00  0.00     0.003 A 
ATOM      9  C   UNL d   1     -42.946-123.545 -49.085  0.00  0.00     0.000 A 
ATOM     10  C   UNL d   1     -42.390-123.814 -48.537  0.00  0.00     0.000 A 
ATOM     11  C   UNL d   1     -41.584-123.746 -48.699  0.00  0.00     0.000 A 
ATOM     12  C   UNL d   1     -41.351-123.414 -49.396  0.00  0.00     0.003 A 
ENDBRANCH   5   7
BRANCH   6  13
ATOM     13  S   UNL d   1     -41.139-123.446 -52.675  0.00  0.00    -0.048 SA
BRANCH  13  14
ATOM     14  C   UNL d   1     -41.541-123.313 -53.387  0.00  0.00     0.038 C 
ATOM     15  C   UNL d   1     -41.421-123.814 -54.037  0.00  0.00     0.008 C 
ENDBRANCH  13  14
ENDBRANCH   6  13
BRANCH   4  16
ATOM     16  C   UNL d   1     -41.180-120.851 -51.491  0.00  0.00     0.151 C 
ATOM     17 CL   UNL d   1     -41.123-120.398 -50.822  0.00  0.00    -0.067 Cl
ATOM     18 CL   UNL d   1     -41.123-120.509 -52.217  0.00  0.00    -0.067 Cl
ENDBRANCH   4  16
TORSDOF 4
ENDMDL
MODEL 2
REMARK VINA RESULT:      -1.7      0.876      3.468
REMARK  4 active torsions:
REMARK  status: ('A' for Active; 'I' for Inactive)
REMARK    1  A    between atoms: C_7  and  C_4 
REMARK    2  A    between atoms: C_8  and  C_5 
REMARK    3  A    between atoms: S_9  and  C_6 
REMARK    4  A    between atoms: C_14  and  S_9 
ROOT
ATOM      1  N   UNL d   1     -41.510-122.231 -51.147  0.00  0.00    -0.200 NA
ATOM      2  N   UNL d   1     -41.635-123.221 -52.145  0.00  0.00    -0.202 NA
ATOM      3  N   UNL d   1     -41.311-121.876 -52.508  0.00  0.00    -0.206 NA
ATOM      4  C   UNL d   1     -41.339-121.667 -51.697  0.00  0.00     0.187 A 
ATOM      5  C   UNL d   1     -41.460-122.653 -52.717  0.00  0.00     0.166 A 
ATOM      6  C   UNL d   1     -41.658-123.004 -51.370  0.00  0.00     0.197 A 
ENDROOT
BRANCH   5   7
ATOM      7  C   UNL d   1     -41.434-122.865 -53.513  0.00  0.00     0.036 A 
ATOM      8  C   UNL d   1     -41.159-123.594 -53.716  0.00  0.00     0.003 A 
ATOM      9  C   UNL d   1     -41.133-123.806 -54.513  0.00  0.00     0.000 A 
ATOM     10  C   UNL d   1     -41.387-123.274 -55.091  0.00  0.00     0.000 A 
ATOM     11  C   UNL d   1     -41.666-122.529 -54.873  0.00  0.00     0.000 A 
ATOM     12  C   UNL d   1     -41.687-122.332 -54.092  0.00  0.00     0.003 A 
ENDBRANCH   5   7
BRANCH   6  13
ATOM     13  S   UNL d   1     -41.838-123.595 -50.785  0.00  0.00    -0.048 SA
BRANCH  13  14
ATOM     14  C   UNL d   1     -42.578-123.604 -50.410  0.00  0.00     0.038 C 
ATOM     15  C   UNL d   1     -42.636-123.773 -49.601  0.00  0.00     0.008 C 
ENDBRANCH  13  14
ENDBRANCH   6  13
BRANCH   4  16
ATOM     16  C   UNL d   1     -41.194-120.896 -51.451  0.00  0.00     0.151 C 
ATOM     17 CL   UNL d   1     -41.123-120.743 -50.659  0.00  0.00    -0.067 Cl
ATOM     18 CL   UNL d   1     -41.124-120.301 -51.987  0.00  0.00    -0.067 Cl
ENDBRANCH   4  16
TORSDOF 4
ENDMDL
MODEL 3
REMARK VINA RESULT:      -1.2      1.871      3.660
REMARK  4 active torsions:
REMARK  status: ('A' for Active; 'I' for Inactive)
REMARK    1  A    between atoms: C_7  and  C_4 
REMARK    2  A    between atoms: C_8  and  C_5 
REMARK    3  A    between atoms: S_9  and  C_6 
REMARK    4  A    between atoms: C_14  and  S_9 
ROOT
ATOM      1  N   UNL d   1     -42.441-123.256 -49.281  0.00  0.00    -0.200 NA
ATOM      2  N   UNL d   1     -41.395-123.398 -50.219  0.00  0.00    -0.202 NA
ATOM      3  N   UNL d   1     -42.693-122.983 -50.653  0.00  0.00    -0.206 NA
ATOM      4  C   UNL d   1     -42.956-123.031 -49.859  0.00  0.00     0.187 A 
ATOM      5  C   UNL d   1     -41.913-123.169 -50.817  0.00  0.00     0.166 A 
ATOM      6  C   UNL d   1     -41.664-123.439 -49.460  0.00  0.00     0.197 A 
ENDROOT
BRANCH   5   7
ATOM      7  C   UNL d   1     -41.647-123.124 -51.597  0.00  0.00     0.036 A 
ATOM      8  C   UNL d   1     -41.460-122.404 -51.907  0.00  0.00     0.003 A 
ATOM      9  C   UNL d   1     -41.194-122.359 -52.686  0.00  0.00     0.000 A 
ATOM     10  C   UNL d   1     -41.123-123.046 -53.139  0.00  0.00     0.000 A 
ATOM     11  C   UNL d   1     -41.317-123.778 -52.812  0.00  0.00     0.000 A 
ATOM     12  C   UNL d   1     -41.576-123.811 -52.050  0.00  0.00     0.003 A 
ENDBRANCH   5   7
BRANCH   6  13
ATOM     13  S   UNL d   1     -41.124-123.676 -48.847  0.00  0.00    -0.048 SA
BRANCH  13  14
ATOM     14  C   UNL d   1     -41.156-123.323 -48.098  0.00  0.00     0.038 C 
ATOM     15  C   UNL d   1     -41.135-123.788 -47.413  0.00  0.00     0.008 C 
ENDBRANCH  13  14
ENDBRANCH   6  13
BRANCH   4  16
ATOM     16  C   UNL d   1     -43.733-122.852 -49.657  0.00  0.00     0.151 C 
ATOM     17 CL   UNL d   1     -44.197-123.428 -49.328  0.00  0.00    -0.067 Cl
ATOM     18 CL   UNL d   1     -44.030-122.115 -49.784  0.00  0.00    -0.067 Cl
ENDBRANCH   4  16
TORSDOF 4
ENDMDL
