MODEL 1
REMARK VINA RESULT:      -8.4      0.000      0.000
REMARK  2 active torsions:
REMARK  status: ('A' for Active; 'I' for Inactive)
REMARK    1  A    between atoms: C_3  and  C_1 
REMARK       I    between atoms: N_7  and  C_3 
REMARK    2  A    between atoms: C_11  and  N_7 
ROOT
ATOM      1  C   UNL d   1     -47.802  13.574  23.001  0.00  0.00     0.121 A 
ATOM      2  C   UNL d   1     -47.034  13.839  22.875  0.00  0.00     0.305 A 
ATOM      3  C   UNL d   1     -47.937  12.795  23.239  0.00  0.00     0.012 A 
ATOM      4  O   UNL d   1     -46.404  13.324  22.986  0.00  0.00    -0.273 OA
ATOM      5  C   UNL d   1     -47.300  12.283  23.350  0.00  0.00     0.023 A 
ATOM      6  C   UNL d   1     -46.531  12.548  23.223  0.00  0.00     0.103 A 
ATOM      7  O   UNL d   1     -46.910  14.622  22.636  0.00  0.00    -0.259 OA
ATOM      8  C   UNL d   1     -47.437  11.512  23.585  0.00  0.00     0.002 A 
ATOM      9  C   UNL d   1     -45.904  12.041  23.333  0.00  0.00     0.025 A 
ATOM     10  C   UNL d   1     -46.797  10.993  23.698  0.00  0.00     0.000 A 
ATOM     11  C   UNL d   1     -46.028  11.258  23.571  0.00  0.00     0.002 A 
ENDROOT
BRANCH   1  12
ATOM     12  C   UNL d   1     -48.442  14.093  22.889  0.00  0.00     0.284 C 
ATOM     13  N   UNL d   1     -49.125  14.000  23.330  0.00  0.00    -0.208 NA
ATOM     14  O   UNL d   1     -48.389  14.705  22.329  0.00  0.00    -0.265 OA
BRANCH  13  15
ATOM     15  C   UNL d   1     -49.757  14.517  23.216  0.00  0.00     0.085 A 
ATOM     16  C   UNL d   1     -49.805  15.220  23.657  0.00  0.00     0.019 A 
ATOM     17  C   UNL d   1     -50.444  15.736  23.537  0.00  0.00     0.002 A 
ATOM     18  C   UNL d   1     -51.033  15.558  22.984  0.00  0.00     0.000 A 
ATOM     19  C   UNL d   1     -50.985  14.856  22.544  0.00  0.00     0.002 A 
ATOM     20  C   UNL d   1     -50.360  14.341  22.654  0.00  0.00     0.019 A 
ENDBRANCH  13  15
ENDBRANCH   1  12
TORSDOF 2
ENDMDL
MODEL 2
REMARK VINA RESULT:      -8.3      1.217      4.289
REMARK  2 active torsions:
REMARK  status: ('A' for Active; 'I' for Inactive)
REMARK    1  A    between atoms: C_3  and  C_1 
REMARK       I    between atoms: N_7  and  C_3 
REMARK    2  A    between atoms: C_11  and  N_7 
ROOT
ATOM      1  C   UNL d   1     -48.758  13.696  22.896  0.00  0.00     0.121 A 
ATOM      2  C   UNL d   1     -49.393  13.184  23.006  0.00  0.00     0.305 A 
ATOM      3  C   UNL d   1     -48.856  14.506  23.014  0.00  0.00     0.012 A 
ATOM      4  O   UNL d   1     -50.122  13.486  23.232  0.00  0.00    -0.273 OA
ATOM      5  C   UNL d   1     -49.591  14.803  23.242  0.00  0.00     0.023 A 
ATOM      6  C   UNL d   1     -50.226  14.291  23.351  0.00  0.00     0.103 A 
ATOM      7  O   UNL d   1     -49.284  12.372  22.885  0.00  0.00    -0.259 OA
ATOM      8  C   UNL d   1     -49.684  15.608  23.357  0.00  0.00     0.002 A 
ATOM      9  C   UNL d   1     -50.950  14.587  23.576  0.00  0.00     0.025 A 
ATOM     10  C   UNL d   1     -50.424  15.911  23.587  0.00  0.00     0.000 A 
ATOM     11  C   UNL d   1     -51.059  15.399  23.696  0.00  0.00     0.002 A 
ENDROOT
BRANCH   1  12
ATOM     12  C   UNL d   1     -48.018  13.393  22.667  0.00  0.00     0.284 C 
ATOM     13  N   UNL d   1     -47.372  13.475  23.162  0.00  0.00    -0.208 NA
ATOM     14  O   UNL d   1     -47.934  13.007  21.936  0.00  0.00    -0.265 OA
BRANCH  13  15
ATOM     15  C   UNL d   1     -46.640  13.173  22.931  0.00  0.00     0.085 A 
ATOM     16  C   UNL d   1     -46.391  12.430  23.206  0.00  0.00     0.019 A 
ATOM     17  C   UNL d   1     -45.653  12.133  22.970  0.00  0.00     0.002 A 
ATOM     18  C   UNL d   1     -45.164  12.566  22.464  0.00  0.00     0.000 A 
ATOM     19  C   UNL d   1     -45.414  13.310  22.189  0.00  0.00     0.002 A 
ATOM     20  C   UNL d   1     -46.138  13.612  22.415  0.00  0.00     0.019 A 
ENDBRANCH  13  15
ENDBRANCH   1  12
TORSDOF 2
ENDMDL
MODEL 3
REMARK VINA RESULT:      -7.5      1.873      4.024
REMARK  2 active torsions:
REMARK  status: ('A' for Active; 'I' for Inactive)
REMARK    1  A    between atoms: C_3  and  C_1 
REMARK       I    between atoms: N_7  and  C_3 
REMARK    2  A    between atoms: C_11  and  N_7 
ROOT
ATOM      1  C   UNL d   1     -48.104  12.297  23.294  0.00  0.00     0.121 A 
ATOM      2  C   UNL d   1     -48.273  11.521  23.508  0.00  0.00     0.305 A 
ATOM      3  C   UNL d   1     -48.714  12.847  23.214  0.00  0.00     0.012 A 
ATOM      4  O   UNL d   1     -49.052  11.299  23.642  0.00  0.00    -0.273 OA
ATOM      5  C   UNL d   1     -49.494  12.617  23.350  0.00  0.00     0.023 A 
ATOM      6  C   UNL d   1     -49.664  11.841  23.564  0.00  0.00     0.103 A 
ATOM      7  O   UNL d   1     -47.654  10.978  23.586  0.00  0.00    -0.259 OA
ATOM      8  C   UNL d   1     -50.097  13.164  23.270  0.00  0.00     0.002 A 
ATOM      9  C   UNL d   1     -50.435  11.617  23.698  0.00  0.00     0.025 A 
ATOM     10  C   UNL d   1     -50.885  12.936  23.406  0.00  0.00     0.000 A 
ATOM     11  C   UNL d   1     -51.055  12.160  23.620  0.00  0.00     0.002 A 
ENDROOT
BRANCH   1  12
ATOM     12  C   UNL d   1     -47.315  12.525  23.158  0.00  0.00     0.284 C 
ATOM     13  N   UNL d   1     -47.126  12.960  22.491  0.00  0.00    -0.208 NA
ATOM     14  O   UNL d   1     -46.721  12.312  23.698  0.00  0.00    -0.265 OA
BRANCH  13  15
ATOM     15  C   UNL d   1     -46.343  13.184  22.360  0.00  0.00     0.085 A 
ATOM     16  C   UNL d   1     -45.836  12.690  21.924  0.00  0.00     0.019 A 
ATOM     17  C   UNL d   1     -45.050  12.922  21.795  0.00  0.00     0.002 A 
ATOM     18  C   UNL d   1     -44.766  13.638  22.095  0.00  0.00     0.000 A 
ATOM     19  C   UNL d   1     -45.272  14.131  22.531  0.00  0.00     0.002 A 
ATOM     20  C   UNL d   1     -46.048  13.913  22.664  0.00  0.00     0.019 A 
ENDBRANCH  13  15
ENDBRANCH   1  12
TORSDOF 2
ENDMDL
MODEL 4
REMARK VINA RESULT:      -7.3      0.892      1.294
REMARK  2 active torsions:
REMARK  status: ('A' for Active; 'I' for Inactive)
REMARK    1  A    between atoms: C_3  and  C_1 
REMARK       I    between atoms: N_7  and  C_3 
REMARK    2  A    between atoms: C_11  and  N_7 
ROOT
ATOM      1  C   UNL d   1     -46.677  13.154  22.938  0.00  0.00     0.121 A 
ATOM      2  C   UNL d   1     -45.954  13.325  22.583  0.00  0.00     0.305 A 
ATOM      3  C   UNL d   1     -46.794  12.426  23.307  0.00  0.00     0.012 A 
ATOM      4  O   UNL d   1     -45.354  12.765  22.597  0.00  0.00    -0.273 OA
ATOM      5  C   UNL d   1     -46.186  11.868  23.318  0.00  0.00     0.023 A 
ATOM      6  C   UNL d   1     -45.464  12.038  22.962  0.00  0.00     0.103 A 
ATOM      7  O   UNL d   1     -45.846  14.059  22.216  0.00  0.00    -0.259 OA
ATOM      8  C   UNL d   1     -46.307  11.146  23.684  0.00  0.00     0.002 A 
ATOM      9  C   UNL d   1     -44.866  11.486  22.975  0.00  0.00     0.025 A 
ATOM     10  C   UNL d   1     -45.696  10.582  23.698  0.00  0.00     0.000 A 
ATOM     11  C   UNL d   1     -44.974  10.752  23.342  0.00  0.00     0.002 A 
ENDROOT
BRANCH   1  12
ATOM     12  C   UNL d   1     -47.287  13.719  22.925  0.00  0.00     0.284 C 
ATOM     13  N   UNL d   1     -48.035  13.505  22.675  0.00  0.00    -0.208 NA
ATOM     14  O   UNL d   1     -47.137  14.501  23.165  0.00  0.00    -0.265 OA
BRANCH  13  15
ATOM     15  C   UNL d   1     -48.638  14.068  22.663  0.00  0.00     0.085 A 
ATOM     16  C   UNL d   1     -48.980  14.326  23.374  0.00  0.00     0.019 A 
ATOM     17  C   UNL d   1     -49.586  14.893  23.355  0.00  0.00     0.002 A 
ATOM     18  C   UNL d   1     -49.853  15.203  22.637  0.00  0.00     0.000 A 
ATOM     19  C   UNL d   1     -49.511  14.944  21.925  0.00  0.00     0.002 A 
ATOM     20  C   UNL d   1     -48.913  14.387  21.932  0.00  0.00     0.019 A 
ENDBRANCH  13  15
ENDBRANCH   1  12
TORSDOF 2
ENDMDL
MODEL 5
REMARK VINA RESULT:      -7.1      1.656      2.173
REMARK  2 active torsions:
REMARK  status: ('A' for Active; 'I' for Inactive)
REMARK    1  A    between atoms: C_3  and  C_1 
REMARK       I    between atoms: N_7  and  C_3 
REMARK    2  A    between atoms: C_11  and  N_7 
ROOT
ATOM      1  C   UNL d   1     -47.493  13.382  22.832  0.00  0.00     0.121 A 
ATOM      2  C   UNL d   1     -47.260  14.166  22.742  0.00  0.00     0.305 A 
ATOM      3  C   UNL d   1     -46.950  12.773  22.712  0.00  0.00     0.012 A 
ATOM      4  O   UNL d   1     -46.484  14.337  22.532  0.00  0.00    -0.273 OA
ATOM      5  C   UNL d   1     -46.172  12.951  22.502  0.00  0.00     0.023 A 
ATOM      6  C   UNL d   1     -45.939  13.735  22.412  0.00  0.00     0.103 A 
ATOM      7  O   UNL d   1     -47.812  14.770  22.864  0.00  0.00    -0.259 OA
ATOM      8  C   UNL d   1     -45.636  12.345  22.384  0.00  0.00     0.002 A 
ATOM      9  C   UNL d   1     -45.171  13.908  22.204  0.00  0.00     0.025 A 
ATOM     10  C   UNL d   1     -44.851  12.520  22.172  0.00  0.00     0.000 A 
ATOM     11  C   UNL d   1     -44.618  13.304  22.082  0.00  0.00     0.002 A 
ENDROOT
BRANCH   1  12
ATOM     12  C   UNL d   1     -48.278  13.207  23.044  0.00  0.00     0.284 C 
ATOM     13  N   UNL d   1     -48.706  12.663  22.609  0.00  0.00    -0.208 NA
ATOM     14  O   UNL d   1     -48.627  13.583  23.698  0.00  0.00    -0.265 OA
BRANCH  13  15
ATOM     15  C   UNL d   1     -49.484  12.491  22.822  0.00  0.00     0.085 A 
ATOM     16  C   UNL d   1     -50.115  12.800  22.378  0.00  0.00     0.019 A 
ATOM     17  C   UNL d   1     -50.895  12.623  22.598  0.00  0.00     0.002 A 
ATOM     18  C   UNL d   1     -51.052  12.145  23.254  0.00  0.00     0.000 A 
ATOM     19  C   UNL d   1     -50.421  11.836  23.698  0.00  0.00     0.002 A 
ATOM     20  C   UNL d   1     -49.649  12.004  23.490  0.00  0.00     0.019 A 
ENDBRANCH  13  15
ENDBRANCH   1  12
TORSDOF 2
ENDMDL
MODEL 6
REMARK VINA RESULT:      -6.9      8.640      9.991
REMARK  2 active torsions:
REMARK  status: ('A' for Active; 'I' for Inactive)
REMARK    1  A    between atoms: C_3  and  C_1 
REMARK       I    between atoms: N_7  and  C_3 
REMARK    2  A    between atoms: C_11  and  N_7 
ROOT
ATOM      1  C   UNL d   1     -40.032  14.514  17.739  0.00  0.00     0.121 A 
ATOM      2  C   UNL d   1     -40.240  14.941  17.067  0.00  0.00     0.305 A 
ATOM      3  C   UNL d   1     -39.405  13.979  17.710  0.00  0.00     0.012 A 
ATOM      4  O   UNL d   1     -39.818  14.832  16.371  0.00  0.00    -0.273 OA
ATOM      5  C   UNL d   1     -38.986  13.873  17.008  0.00  0.00     0.023 A 
ATOM      6  C   UNL d   1     -39.193  14.301  16.336  0.00  0.00     0.103 A 
ATOM      7  O   UNL d   1     -40.871  15.476  17.105  0.00  0.00    -0.259 OA
ATOM      8  C   UNL d   1     -38.365  13.342  16.984  0.00  0.00     0.002 A 
ATOM      9  C   UNL d   1     -38.778  14.195  15.644  0.00  0.00     0.025 A 
ATOM     10  C   UNL d   1     -37.940  13.232  16.277  0.00  0.00     0.000 A 
ATOM     11  C   UNL d   1     -38.147  13.660  15.606  0.00  0.00     0.002 A 
ENDROOT
BRANCH   1  12
ATOM     12  C   UNL d   1     -40.458  14.623  18.445  0.00  0.00     0.284 C 
ATOM     13  N   UNL d   1     -40.095  14.974  19.089  0.00  0.00    -0.208 NA
ATOM     14  O   UNL d   1     -41.249  14.376  18.498  0.00  0.00    -0.265 OA
BRANCH  13  15
ATOM     15  C   UNL d   1     -40.520  15.081  19.788  0.00  0.00     0.085 A 
ATOM     16  C   UNL d   1     -40.564  14.467  20.346  0.00  0.00     0.019 A 
ATOM     17  C   UNL d   1     -40.993  14.581  21.047  0.00  0.00     0.002 A 
ATOM     18  C   UNL d   1     -41.377  15.297  21.196  0.00  0.00     0.000 A 
ATOM     19  C   UNL d   1     -41.333  15.911  20.638  0.00  0.00     0.002 A 
ATOM     20  C   UNL d   1     -40.913  15.810  19.944  0.00  0.00     0.019 A 
ENDBRANCH  13  15
ENDBRANCH   1  12
TORSDOF 2
ENDMDL
MODEL 7
REMARK VINA RESULT:      -6.8      9.024     10.630
REMARK  2 active torsions:
REMARK  status: ('A' for Active; 'I' for Inactive)
REMARK    1  A    between atoms: C_3  and  C_1 
REMARK       I    between atoms: N_7  and  C_3 
REMARK    2  A    between atoms: C_11  and  N_7 
ROOT
ATOM      1  C   UNL d   1     -40.042  14.876  18.299  0.00  0.00     0.121 A 
ATOM      2  C   UNL d   1     -40.523  14.231  18.472  0.00  0.00     0.305 A 
ATOM      3  C   UNL d   1     -39.884  15.441  18.878  0.00  0.00     0.012 A 
ATOM      4  O   UNL d   1     -40.844  14.155  19.224  0.00  0.00    -0.273 OA
ATOM      5  C   UNL d   1     -40.210  15.359  19.632  0.00  0.00     0.023 A 
ATOM      6  C   UNL d   1     -40.691  14.714  19.805  0.00  0.00     0.103 A 
ATOM      7  O   UNL d   1     -40.675  13.669  17.883  0.00  0.00    -0.259 OA
ATOM      8  C   UNL d   1     -40.051  15.922  20.204  0.00  0.00     0.002 A 
ATOM      9  C   UNL d   1     -41.011  14.636  20.550  0.00  0.00     0.025 A 
ATOM     10  C   UNL d   1     -40.378  15.843  20.965  0.00  0.00     0.000 A 
ATOM     11  C   UNL d   1     -40.859  15.198  21.138  0.00  0.00     0.002 A 
ENDROOT
BRANCH   1  12
ATOM     12  C   UNL d   1     -39.716  14.955  17.538  0.00  0.00     0.284 C 
ATOM     13  N   UNL d   1     -38.904  14.923  17.437  0.00  0.00    -0.208 NA
ATOM     14  O   UNL d   1     -40.212  15.066  16.881  0.00  0.00    -0.265 OA
BRANCH  13  15
ATOM     15  C   UNL d   1     -38.585  15.002  16.681  0.00  0.00     0.085 A 
ATOM     16  C   UNL d   1     -38.352  14.327  16.255  0.00  0.00     0.019 A 
ATOM     17  C   UNL d   1     -38.031  14.414  15.494  0.00  0.00     0.002 A 
ATOM     18  C   UNL d   1     -37.940  15.163  15.156  0.00  0.00     0.000 A 
ATOM     19  C   UNL d   1     -38.172  15.837  15.582  0.00  0.00     0.002 A 
ATOM     20  C   UNL d   1     -38.489  15.764  16.332  0.00  0.00     0.019 A 
ENDBRANCH  13  15
ENDBRANCH   1  12
TORSDOF 2
ENDMDL
MODEL 8
REMARK VINA RESULT:      -6.5      8.667      9.653
REMARK  2 active torsions:
REMARK  status: ('A' for Active; 'I' for Inactive)
REMARK    1  A    between atoms: C_3  and  C_1 
REMARK       I    between atoms: N_7  and  C_3 
REMARK    2  A    between atoms: C_11  and  N_7 
ROOT
ATOM      1  C   UNL d   1     -40.237  14.834  19.871  0.00  0.00     0.121 A 
ATOM      2  C   UNL d   1     -40.706  15.502  19.766  0.00  0.00     0.305 A 
ATOM      3  C   UNL d   1     -39.966  14.411  19.216  0.00  0.00     0.012 A 
ATOM      4  O   UNL d   1     -40.902  15.743  19.006  0.00  0.00    -0.273 OA
ATOM      5  C   UNL d   1     -40.167  14.659  18.455  0.00  0.00     0.023 A 
ATOM      6  C   UNL d   1     -40.636  15.327  18.350  0.00  0.00     0.103 A 
ATOM      7  O   UNL d   1     -40.972  15.918  20.430  0.00  0.00    -0.259 OA
ATOM      8  C   UNL d   1     -39.897  14.238  17.808  0.00  0.00     0.002 A 
ATOM      9  C   UNL d   1     -40.833  15.570  17.599  0.00  0.00     0.025 A 
ATOM     10  C   UNL d   1     -40.098  14.485  17.040  0.00  0.00     0.000 A 
ATOM     11  C   UNL d   1     -40.567  15.153  16.935  0.00  0.00     0.002 A 
ENDROOT
BRANCH   1  12
ATOM     12  C   UNL d   1     -40.036  14.587  20.640  0.00  0.00     0.284 C 
ATOM     13  N   UNL d   1     -39.258  14.620  20.889  0.00  0.00    -0.208 NA
ATOM     14  O   UNL d   1     -40.625  14.306  21.154  0.00  0.00    -0.265 OA
BRANCH  13  15
ATOM     15  C   UNL d   1     -39.063  14.374  21.651  0.00  0.00     0.085 A 
ATOM     16  C   UNL d   1     -38.931  13.569  21.808  0.00  0.00     0.019 A 
ATOM     17  C   UNL d   1     -38.735  13.328  22.578  0.00  0.00     0.002 A 
ATOM     18  C   UNL d   1     -38.670  13.880  23.190  0.00  0.00     0.000 A 
ATOM     19  C   UNL d   1     -38.802  14.685  23.033  0.00  0.00     0.002 A 
ATOM     20  C   UNL d   1     -38.995  14.933  22.279  0.00  0.00     0.019 A 
ENDBRANCH  13  15
ENDBRANCH   1  12
TORSDOF 2
ENDMDL
MODEL 9
REMARK VINA RESULT:      -6.4      8.539      9.468
REMARK  2 active torsions:
REMARK  status: ('A' for Active; 'I' for Inactive)
REMARK    1  A    between atoms: C_3  and  C_1 
REMARK       I    between atoms: N_7  and  C_3 
REMARK    2  A    between atoms: C_11  and  N_7 
ROOT
ATOM      1  C   UNL d   1     -39.853  14.760  20.126  0.00  0.00     0.121 A 
ATOM      2  C   UNL d   1     -40.397  14.753  20.743  0.00  0.00     0.305 A 
ATOM      3  C   UNL d   1     -39.118  14.399  20.220  0.00  0.00     0.012 A 
ATOM      4  O   UNL d   1     -40.203  14.385  21.450  0.00  0.00    -0.273 OA
ATOM      5  C   UNL d   1     -38.928  14.031  20.933  0.00  0.00     0.023 A 
ATOM      6  C   UNL d   1     -39.473  14.024  21.550  0.00  0.00     0.103 A 
ATOM      7  O   UNL d   1     -41.133  15.119  20.638  0.00  0.00    -0.259 OA
ATOM      8  C   UNL d   1     -38.198  13.673  21.022  0.00  0.00     0.002 A 
ATOM      9  C   UNL d   1     -39.283  13.660  22.253  0.00  0.00     0.025 A 
ATOM     10  C   UNL d   1     -38.004  13.301  21.740  0.00  0.00     0.000 A 
ATOM     11  C   UNL d   1     -38.548  13.294  22.358  0.00  0.00     0.002 A 
ENDROOT
BRANCH   1  12
ATOM     12  C   UNL d   1     -40.047  15.132  19.408  0.00  0.00     0.284 C 
ATOM     13  N   UNL d   1     -39.981  14.721  18.704  0.00  0.00    -0.208 NA
ATOM     14  O   UNL d   1     -40.308  15.921  19.404  0.00  0.00    -0.265 OA
BRANCH  13  15
ATOM     15  C   UNL d   1     -40.175  15.093  17.994  0.00  0.00     0.085 A 
ATOM     16  C   UNL d   1     -39.606  15.548  17.594  0.00  0.00     0.019 A 
ATOM     17  C   UNL d   1     -39.808  15.920  16.880  0.00  0.00     0.002 A 
ATOM     18  C   UNL d   1     -40.567  15.843  16.563  0.00  0.00     0.000 A 
ATOM     19  C   UNL d   1     -41.136  15.388  16.963  0.00  0.00     0.002 A 
ATOM     20  C   UNL d   1     -40.948  15.018  17.666  0.00  0.00     0.019 A 
ENDBRANCH  13  15
ENDBRANCH   1  12
TORSDOF 2
ENDMDL
