MODEL 1
REMARK VINA RESULT:      19.6      0.000      0.000
REMARK  4 active torsions:
REMARK  status: ('A' for Active; 'I' for Inactive)
REMARK    1  A    between atoms: C_6  and  C_1 
REMARK    2  A    between atoms: C_7  and  C_4 
REMARK    3  A    between atoms: O_10  and  C_6 
REMARK    4  A    between atoms: C_13  and  O_10 
ROOT
ATOM      1  C   UNL d   1      59.763  49.649  50.573  0.00  0.00     0.112 A 
ATOM      2  S   UNL d   1      58.983  49.647  50.880  0.00  0.00    -0.080 SA
ATOM      3  C   UNL d   1      59.705  49.681  49.751  0.00  0.00     0.115 A 
ATOM      4  C   UNL d   1      58.464  49.678  50.233  0.00  0.00     0.031 A 
ATOM      5  C   UNL d   1      58.918  49.699  49.551  0.00  0.00     0.028 A 
ATOM      6  N   UNL d   1      60.351  49.694  49.214  0.00  0.00    -0.147 N 
ENDROOT
BRANCH   4   7
ATOM      7  C   UNL d   1      57.650  49.683  50.376  0.00  0.00     0.006 A 
ATOM      8  C   UNL d   1      57.381  49.682  51.162  0.00  0.00     0.001 A 
ATOM      9  C   UNL d   1      56.569  49.686  51.303  0.00  0.00     0.000 A 
ATOM     10  C   UNL d   1      56.034  49.691  50.680  0.00  0.00     0.000 A 
ATOM     11  C   UNL d   1      56.303  49.692  49.907  0.00  0.00     0.000 A 
ATOM     12  C   UNL d   1      57.114  49.688  49.752  0.00  0.00     0.001 A 
ENDBRANCH   4   7
BRANCH   1  13
ATOM     13  C   UNL d   1      60.474  49.623  51.017  0.00  0.00     0.308 C 
ATOM     14  O   UNL d   1      61.225  49.632  50.648  0.00  0.00    -0.258 OA
BRANCH  13  15
ATOM     15  O   UNL d   1      60.425  49.588  51.849  0.00  0.00    -0.271 OA
BRANCH  15  16
ATOM     16  C   UNL d   1      61.124  49.587  52.311  0.00  0.00     0.126 C 
ATOM     17  C   UNL d   1      61.063  49.706  53.125  0.00  0.00     0.029 C 
ENDBRANCH  15  16
ENDBRANCH  13  15
ENDBRANCH   1  13
TORSDOF 4
ENDMDL
