MODEL 1
REMARK VINA RESULT:      72.7      0.000      0.000
REMARK  7 active torsions:
REMARK  status: ('A' for Active; 'I' for Inactive)
REMARK    1  A    between atoms: C_5  and  C_1 
REMARK    2  A    between atoms: N_6  and  C_2 
REMARK       I    between atoms: N_10  and  C_5 
REMARK    3  A    between atoms: C_20  and  N_6 
REMARK    4  A    between atoms: C_9  and  C_12 
REMARK    5  A    between atoms: C_22  and  N_10 
REMARK    6  A    between atoms: C_11  and  C_22 
REMARK    7  A    between atoms: O_30  and  C_25 
ROOT
ATOM      1  C   UNL d   1      44.221 -16.001  37.025  0.00  0.00     0.099 A 
ATOM      2  C   UNL d   1      44.575 -16.269  37.719  0.00  0.00     0.187 A 
ATOM      3  C   UNL d   1      44.570 -15.364  36.610  0.00  0.00     0.010 A 
ATOM      4  O   UNL d   1      45.262 -15.919  38.004  0.00  0.00    -0.289 OA
ATOM      5  C   UNL d   1      45.262 -15.009  36.893  0.00  0.00     0.025 A 
ATOM      6  C   UNL d   1      45.607 -15.280  37.581  0.00  0.00     0.102 A 
ATOM      7  C   UNL d   1      45.608 -14.381  36.486  0.00  0.00     0.026 A 
ATOM      8  C   UNL d   1      46.304 -14.929  37.876  0.00  0.00     0.027 A 
ATOM      9  C   UNL d   1      46.293 -14.029  36.766  0.00  0.00     0.094 A 
ATOM     10  C   UNL d   1      46.647 -14.298  37.461  0.00  0.00     0.026 A 
ENDROOT
BRANCH   2  11
ATOM     11  N   UNL d   1      44.222 -16.907  38.132  0.00  0.00    -0.222 NA
BRANCH  11  12
ATOM     12  C   UNL d   1      44.610 -17.232  38.782  0.00  0.00     0.084 A 
ATOM     13  C   UNL d   1      44.229 -17.254  39.513  0.00  0.00     0.019 A 
ATOM     14  C   UNL d   1      44.617 -17.576  40.155  0.00  0.00     0.008 A 
ATOM     15  C   UNL d   1      45.387 -17.881  40.083  0.00  0.00     0.065 A 
ATOM     16  C   UNL d   1      45.766 -17.857  39.348  0.00  0.00     0.008 A 
ATOM     17  C   UNL d   1      45.371 -17.531  38.703  0.00  0.00     0.019 A 
BRANCH  15  18
ATOM     18  C   UNL d   1      45.774 -18.205  40.734  0.00  0.00     0.211 C 
ATOM     19  O   UNL d   1      45.358 -18.355  41.437  0.00  0.00    -0.644 OA
ATOM     20  O   UNL d   1      46.582 -18.387  40.701  0.00  0.00    -0.644 OA
ENDBRANCH  15  18
ENDBRANCH  11  12
ENDBRANCH   2  11
BRANCH   1  21
ATOM     21  C   UNL d   1      43.533 -16.349  36.737  0.00  0.00     0.283 C 
ATOM     22  N   UNL d   1      42.812 -15.917  36.736  0.00  0.00    -0.204 NA
ATOM     23  O   UNL d   1      43.532 -17.133  36.443  0.00  0.00    -0.265 OA
BRANCH  22  24
ATOM     24  C   UNL d   1      42.116 -16.266  36.446  0.00  0.00     0.127 C 
BRANCH  24  25
ATOM     25  C   UNL d   1      41.390 -15.891  36.543  0.00  0.00     0.119 A 
ATOM     26  O   UNL d   1      41.173 -15.144  36.820  0.00  0.00    -0.304 OA
ATOM     27  C   UNL d   1      40.359 -15.075  36.791  0.00  0.00     0.123 A 
ATOM     28  C   UNL d   1      40.056 -15.768  36.499  0.00  0.00     0.029 A 
ATOM     29  C   UNL d   1      40.688 -16.277  36.344  0.00  0.00     0.028 A 
ENDBRANCH  24  25
ENDBRANCH  22  24
ENDBRANCH   1  21
BRANCH   9  30
ATOM     30  O   UNL d   1      46.634 -13.397  36.348  0.00  0.00    -0.328 OA
ATOM     31  C   UNL d   1      46.261 -12.648  36.344  0.00  0.00     0.181 C 
ENDBRANCH   9  30
TORSDOF 7
ENDMDL
