MODEL 1
REMARK VINA RESULT:      -0.5      0.000      0.000
REMARK  5 active torsions:
REMARK  status: ('A' for Active; 'I' for Inactive)
REMARK    1  A    between atoms: N_6  and  S_1 
REMARK    2  A    between atoms: C_11  and  S_1 
REMARK    3  A    between atoms: N_2  and  C_16 
REMARK       I    between atoms: C_9  and  N_8 
REMARK    4  A    between atoms: C_10  and  C_9 
REMARK    5  A    between atoms: C_16  and  C_10 
ROOT
ATOM      1  N   UNL d   1     -41.843-122.527 -53.120  0.00  0.00    -0.226 N 
ATOM      2  N   UNL d   1     -41.728-122.999 -51.548  0.00  0.00    -0.269 N 
ATOM      3  C   UNL d   1     -41.676-123.230 -50.757  0.00  0.00     0.267 C 
ATOM      4  C   UNL d   1     -42.328-122.183 -52.550  0.00  0.00     0.111 A 
ATOM      5  C   UNL d   1     -41.289-123.117 -52.907  0.00  0.00     0.111 A 
ATOM      6  C   UNL d   1     -42.270-122.420 -51.762  0.00  0.00     0.103 A 
ATOM      7  C   UNL d   1     -41.231-123.354 -52.119  0.00  0.00     0.103 A 
ATOM      8  O   UNL d   1     -41.133-123.811 -50.536  0.00  0.00    -0.267 OA
ENDROOT
BRANCH   3   9
ATOM      9  C   UNL d   1     -42.164-122.882 -50.194  0.00  0.00     0.082 C 
BRANCH   9  10
ATOM     10  C   UNL d   1     -42.526-123.355 -49.624  0.00  0.00     0.105 C 
BRANCH  10  11
ATOM     11  N   UNL d   1     -42.387-123.206 -48.821  0.00  0.00    -0.228 N 
ATOM     12  N   UNL d   1     -41.702-122.887 -48.491  0.00  0.00    -0.165 NA
ATOM     13  C   UNL d   1     -41.801-122.834 -47.674  0.00  0.00     0.103 A 
ATOM     14  C   UNL d   1     -41.248-122.544 -47.127  0.00  0.00     0.022 C 
ATOM     15  C   UNL d   1     -42.553-123.121 -47.492  0.00  0.00     0.037 A 
ATOM     16  C   UNL d   1     -42.918-123.351 -48.200  0.00  0.00     0.084 A 
ATOM     17  C   UNL d   1     -42.884-123.170 -46.741  0.00  0.00     0.003 C 
ATOM     18  C   UNL d   1     -43.677-123.670 -48.266  0.00  0.00     0.021 C 
ENDBRANCH  10  11
ENDBRANCH   9  10
ENDBRANCH   3   9
BRANCH   1  19
ATOM     19  S   UNL d   1     -41.901-122.289 -53.912  0.00  0.00     0.271 S 
ATOM     20  O   UNL d   1     -42.143-123.058 -54.125  0.00  0.00    -0.200 OA
ATOM     21  O   UNL d   1     -41.662-121.528 -53.702  0.00  0.00    -0.200 OA
BRANCH  19  22
ATOM     22  C   UNL d   1     -41.960-122.050 -54.709  0.00  0.00     0.104 A 
ATOM     23  C   UNL d   1     -42.698-121.975 -55.055  0.00  0.00     0.014 A 
ATOM     24  C   UNL d   1     -42.761-121.738 -55.843  0.00  0.00     0.012 A 
ATOM     25  C   UNL d   1     -42.076-121.577 -56.285  0.00  0.00     0.058 A 
ATOM     26  C   UNL d   1     -41.324-121.654 -55.932  0.00  0.00     0.012 A 
ATOM     27 CL   UNL d   1     -42.134-121.341 -57.073  0.00  0.00    -0.082 Cl
ATOM     28  C   UNL d   1     -41.266-121.893 -55.136  0.00  0.00     0.014 A 
ENDBRANCH  19  22
ENDBRANCH   1  19
TORSDOF 5
ENDMDL
MODEL 2
REMARK VINA RESULT:       0.4      2.387      6.281
REMARK  5 active torsions:
REMARK  status: ('A' for Active; 'I' for Inactive)
REMARK    1  A    between atoms: N_6  and  S_1 
REMARK    2  A    between atoms: C_11  and  S_1 
REMARK    3  A    between atoms: N_2  and  C_16 
REMARK       I    between atoms: C_9  and  N_8 
REMARK    4  A    between atoms: C_10  and  C_9 
REMARK    5  A    between atoms: C_16  and  C_10 
ROOT
ATOM      1  N   UNL d   1     -41.701-123.118 -50.773  0.00  0.00    -0.226 N 
ATOM      2  N   UNL d   1     -41.475-123.099 -52.404  0.00  0.00    -0.269 N 
ATOM      3  C   UNL d   1     -41.364-123.080 -53.221  0.00  0.00     0.267 C 
ATOM      4  C   UNL d   1     -41.829-122.425 -51.199  0.00  0.00     0.111 A 
ATOM      5  C   UNL d   1     -41.456-123.817 -51.164  0.00  0.00     0.111 A 
ATOM      6  C   UNL d   1     -41.715-122.415 -52.016  0.00  0.00     0.103 A 
ATOM      7  C   UNL d   1     -41.343-123.808 -51.981  0.00  0.00     0.103 A 
ATOM      8  O   UNL d   1     -41.123-123.764 -53.616  0.00  0.00    -0.267 OA
ENDROOT
BRANCH   3   9
ATOM      9  C   UNL d   1     -41.494-122.384 -53.638  0.00  0.00     0.082 C 
BRANCH   9  10
ATOM     10  C   UNL d   1     -41.242-122.328 -54.422  0.00  0.00     0.105 C 
BRANCH  10  11
ATOM     11  N   UNL d   1     -41.804-122.267 -55.028  0.00  0.00    -0.228 N 
ATOM     12  N   UNL d   1     -42.512-122.685 -55.086  0.00  0.00    -0.165 NA
ATOM     13  C   UNL d   1     -42.901-122.453 -55.776  0.00  0.00     0.103 A 
ATOM     14  C   UNL d   1     -43.632-122.734 -56.049  0.00  0.00     0.022 C 
ATOM     15  C   UNL d   1     -42.433-121.886 -56.150  0.00  0.00     0.037 A 
ATOM     16  C   UNL d   1     -41.754-121.769 -55.690  0.00  0.00     0.084 A 
ATOM     17  C   UNL d   1     -42.609-121.503 -56.857  0.00  0.00     0.003 C 
ATOM     18  C   UNL d   1     -41.139-121.246 -55.867  0.00  0.00     0.021 C 
ENDBRANCH  10  11
ENDBRANCH   9  10
ENDBRANCH   3   9
BRANCH   1  19
ATOM     19  S   UNL d   1     -41.815-123.128 -49.952  0.00  0.00     0.271 S 
ATOM     20  O   UNL d   1     -42.380-123.734 -50.038  0.00  0.00    -0.200 OA
ATOM     21  O   UNL d   1     -41.254-122.528 -49.867  0.00  0.00    -0.200 OA
BRANCH  19  22
ATOM     22  C   UNL d   1     -41.929-123.138 -49.126  0.00  0.00     0.104 A 
ATOM     23  C   UNL d   1     -42.587-122.772 -48.805  0.00  0.00     0.014 A 
ATOM     24  C   UNL d   1     -42.705-122.780 -47.988  0.00  0.00     0.012 A 
ATOM     25  C   UNL d   1     -42.155-123.158 -47.493  0.00  0.00     0.058 A 
ATOM     26  C   UNL d   1     -41.485-123.530 -47.820  0.00  0.00     0.012 A 
ATOM     27 CL   UNL d   1     -42.269-123.168 -46.676  0.00  0.00    -0.082 Cl
ATOM     28  C   UNL d   1     -41.371-123.520 -48.645  0.00  0.00     0.014 A 
ENDBRANCH  19  22
ENDBRANCH   1  19
TORSDOF 5
ENDMDL
