MODEL 1
REMARK VINA RESULT:      -7.4      0.000      0.000
REMARK  3 active torsions:
REMARK  status: ('A' for Active; 'I' for Inactive)
REMARK    1  A    between atoms: S_3  and  N_1 
REMARK    2  A    between atoms: C_7  and  C_4 
REMARK    3  A    between atoms: C_12  and  C_5 
ROOT
ATOM      1  N   UNL d   1     -40.314  14.883  18.532  0.00  0.00    -0.155 N 
ATOM      2  N   UNL d   1     -40.409  15.126  19.306  0.00  0.00    -0.156 NA
ATOM      3  C   UNL d   1     -39.540  14.663  18.426  0.00  0.00     0.096 A 
ATOM      4  C   UNL d   1     -39.684  15.053  19.676  0.00  0.00     0.103 A 
ATOM      5  C   UNL d   1     -39.143  14.769  19.141  0.00  0.00     0.041 A 
ENDROOT
BRANCH   3   6
ATOM      6  C   UNL d   1     -39.202  14.381  17.725  0.00  0.00     0.020 A 
ATOM      7  C   UNL d   1     -38.936  14.912  17.150  0.00  0.00     0.022 A 
ATOM      8  C   UNL d   1     -38.600  14.630  16.451  0.00  0.00     0.099 A 
ATOM      9  N   UNL d   1     -38.334  15.161  15.877  0.00  0.00    -0.241 NA
ATOM     10  C   UNL d   1     -38.529  13.821  16.326  0.00  0.00     0.099 A 
ATOM     11  C   UNL d   1     -38.010  14.874  15.204  0.00  0.00     0.120 A 
ATOM     12  C   UNL d   1     -37.940  14.065  15.079  0.00  0.00     0.120 A 
ATOM     13  N   UNL d   1     -38.193  13.539  15.627  0.00  0.00    -0.241 NA
ATOM     14  C   UNL d   1     -38.795  13.290  16.900  0.00  0.00     0.021 A 
ATOM     15  C   UNL d   1     -39.132  13.572  17.600  0.00  0.00     0.003 A 
ENDBRANCH   3   6
BRANCH   1  16
ATOM     16  S   UNL d   1     -40.909  14.859  17.936  0.00  0.00     0.266 S 
ATOM     17  O   UNL d   1     -40.984  14.027  18.083  0.00  0.00    -0.203 OA
ATOM     18  O   UNL d   1     -41.494  14.804  17.359  0.00  0.00    -0.203 OA
ATOM     19  C   UNL d   1     -40.824  15.660  17.808  0.00  0.00     0.165 C 
ENDBRANCH   1  16
BRANCH   4  20
ATOM     20  C   UNL d   1     -39.529  15.237  20.456  0.00  0.00     0.019 A 
ATOM     21  C   UNL d   1     -39.984  14.930  21.054  0.00  0.00     0.002 A 
ATOM     22  C   UNL d   1     -39.836  15.109  21.860  0.00  0.00     0.000 A 
ATOM     23  C   UNL d   1     -39.205  15.616  22.044  0.00  0.00     0.000 A 
ATOM     24  C   UNL d   1     -38.749  15.922  21.418  0.00  0.00     0.000 A 
ATOM     25  C   UNL d   1     -39.050  15.799  22.818  0.00  0.00     0.000 C 
ATOM     26  C   UNL d   1     -38.899  15.743  20.645  0.00  0.00     0.002 A 
ENDBRANCH   4  20
TORSDOF 3
ENDMDL
MODEL 2
REMARK VINA RESULT:      -7.4      8.237      9.886
REMARK  3 active torsions:
REMARK  status: ('A' for Active; 'I' for Inactive)
REMARK    1  A    between atoms: S_3  and  N_1 
REMARK    2  A    between atoms: C_7  and  C_4 
REMARK    3  A    between atoms: C_12  and  C_5 
ROOT
ATOM      1  N   UNL d   1     -46.467  13.001  22.950  0.00  0.00    -0.155 N 
ATOM      2  N   UNL d   1     -45.740  12.639  23.032  0.00  0.00    -0.156 NA
ATOM      3  C   UNL d   1     -47.045  12.438  23.043  0.00  0.00     0.096 A 
ATOM      4  C   UNL d   1     -45.874  11.846  23.176  0.00  0.00     0.103 A 
ATOM      5  C   UNL d   1     -46.676  11.713  23.184  0.00  0.00     0.041 A 
ENDROOT
BRANCH   3   6
ATOM      6  C   UNL d   1     -47.862  12.563  23.003  0.00  0.00     0.020 A 
ATOM      7  C   UNL d   1     -48.251  12.529  22.275  0.00  0.00     0.022 A 
ATOM      8  C   UNL d   1     -49.066  12.654  22.236  0.00  0.00     0.099 A 
ATOM      9  N   UNL d   1     -49.455  12.620  21.508  0.00  0.00    -0.241 NA
ATOM     10  C   UNL d   1     -49.491  12.812  22.921  0.00  0.00     0.099 A 
ATOM     11  C   UNL d   1     -50.246  12.744  21.485  0.00  0.00     0.120 A 
ATOM     12  C   UNL d   1     -50.670  12.902  22.170  0.00  0.00     0.120 A 
ATOM     13  N   UNL d   1     -50.306  12.937  22.883  0.00  0.00    -0.241 NA
ATOM     14  C   UNL d   1     -49.102  12.846  23.649  0.00  0.00     0.021 A 
ATOM     15  C   UNL d   1     -48.286  12.721  23.688  0.00  0.00     0.003 A 
ENDBRANCH   3   6
BRANCH   1  16
ATOM     16  S   UNL d   1     -46.608  13.816  22.797  0.00  0.00     0.266 S 
ATOM     17  O   UNL d   1     -46.672  13.935  23.634  0.00  0.00    -0.203 OA
ATOM     18  O   UNL d   1     -46.749  14.619  22.679  0.00  0.00    -0.203 OA
ATOM     19  C   UNL d   1     -46.544  13.685  21.995  0.00  0.00     0.165 C 
ENDBRANCH   1  16
BRANCH   4  20
ATOM     20  C   UNL d   1     -45.299  11.280  23.292  0.00  0.00     0.019 A 
ATOM     21  C   UNL d   1     -45.490  10.543  23.572  0.00  0.00     0.002 A 
ATOM     22  C   UNL d   1     -44.910   9.951  23.697  0.00  0.00     0.000 A 
ATOM     23  C   UNL d   1     -44.117  10.131  23.526  0.00  0.00     0.000 A 
ATOM     24  C   UNL d   1     -43.938  10.891  23.239  0.00  0.00     0.000 A 
ATOM     25  C   UNL d   1     -43.545   9.569  23.641  0.00  0.00     0.000 C 
ATOM     26  C   UNL d   1     -44.505  11.455  23.122  0.00  0.00     0.002 A 
ENDBRANCH   4  20
TORSDOF 3
ENDMDL
MODEL 3
REMARK VINA RESULT:      -7.3      8.524      9.922
REMARK  3 active torsions:
REMARK  status: ('A' for Active; 'I' for Inactive)
REMARK    1  A    between atoms: S_3  and  N_1 
REMARK    2  A    between atoms: C_7  and  C_4 
REMARK    3  A    between atoms: C_12  and  C_5 
ROOT
ATOM      1  N   UNL d   1     -48.358  12.366  22.778  0.00  0.00    -0.155 N 
ATOM      2  N   UNL d   1     -49.062  12.765  22.888  0.00  0.00    -0.156 NA
ATOM      3  C   UNL d   1     -47.747  12.888  22.892  0.00  0.00     0.096 A 
ATOM      4  C   UNL d   1     -48.879  13.540  23.071  0.00  0.00     0.103 A 
ATOM      5  C   UNL d   1     -48.071  13.625  23.075  0.00  0.00     0.041 A 
ENDROOT
BRANCH   3   6
ATOM      6  C   UNL d   1     -46.940  12.718  22.835  0.00  0.00     0.020 A 
ATOM      7  C   UNL d   1     -46.490  13.041  22.221  0.00  0.00     0.022 A 
ATOM      8  C   UNL d   1     -45.684  12.870  22.165  0.00  0.00     0.099 A 
ATOM      9  N   UNL d   1     -45.236  13.192  21.551  0.00  0.00    -0.241 NA
ATOM     10  C   UNL d   1     -45.329  12.379  22.719  0.00  0.00     0.099 A 
ATOM     11  C   UNL d   1     -44.455  13.018  21.509  0.00  0.00     0.120 A 
ATOM     12  C   UNL d   1     -44.100  12.527  22.063  0.00  0.00     0.120 A 
ATOM     13  N   UNL d   1     -44.523  12.207  22.662  0.00  0.00    -0.241 NA
ATOM     14  C   UNL d   1     -45.778  12.056  23.332  0.00  0.00     0.021 A 
ATOM     15  C   UNL d   1     -46.584  12.227  23.389  0.00  0.00     0.003 A 
ENDBRANCH   3   6
BRANCH   1  16
ATOM     16  S   UNL d   1     -48.267  11.552  22.581  0.00  0.00     0.266 S 
ATOM     17  O   UNL d   1     -48.284  11.777  21.764  0.00  0.00    -0.203 OA
ATOM     18  O   UNL d   1     -48.179  10.765  22.357  0.00  0.00    -0.203 OA
ATOM     19  C   UNL d   1     -48.254  11.353  23.372  0.00  0.00     0.165 C 
ENDBRANCH   1  16
BRANCH   4  20
ATOM     20  C   UNL d   1     -49.419  14.132  23.224  0.00  0.00     0.019 A 
ATOM     21  C   UNL d   1     -49.175  14.897  23.342  0.00  0.00     0.002 A 
ATOM     22  C   UNL d   1     -49.718  15.516  23.500  0.00  0.00     0.000 A 
ATOM     23  C   UNL d   1     -50.527  15.334  23.536  0.00  0.00     0.000 A 
ATOM     24  C   UNL d   1     -50.760  14.545  23.413  0.00  0.00     0.000 A 
ATOM     25  C   UNL d   1     -51.064  15.922  23.688  0.00  0.00     0.000 C 
ATOM     26  C   UNL d   1     -50.229  13.955  23.261  0.00  0.00     0.002 A 
ENDBRANCH   4  20
TORSDOF 3
ENDMDL
MODEL 4
REMARK VINA RESULT:      -6.9      1.733      4.836
REMARK  3 active torsions:
REMARK  status: ('A' for Active; 'I' for Inactive)
REMARK    1  A    between atoms: S_3  and  N_1 
REMARK    2  A    between atoms: C_7  and  C_4 
REMARK    3  A    between atoms: C_12  and  C_5 
ROOT
ATOM      1  N   UNL d   1     -40.295  14.927  19.897  0.00  0.00    -0.155 N 
ATOM      2  N   UNL d   1     -40.302  14.864  19.083  0.00  0.00    -0.156 NA
ATOM      3  C   UNL d   1     -39.546  14.760  20.161  0.00  0.00     0.096 A 
ATOM      4  C   UNL d   1     -39.548  14.656  18.847  0.00  0.00     0.103 A 
ATOM      5  C   UNL d   1     -39.075  14.590  19.504  0.00  0.00     0.041 A 
ENDROOT
BRANCH   3   6
ATOM      6  C   UNL d   1     -39.293  14.759  20.948  0.00  0.00     0.020 A 
ATOM      7  C   UNL d   1     -39.241  14.047  21.366  0.00  0.00     0.022 A 
ATOM      8  C   UNL d   1     -38.988  14.047  22.152  0.00  0.00     0.099 A 
ATOM      9  N   UNL d   1     -38.937  13.336  22.569  0.00  0.00    -0.241 NA
ATOM     10  C   UNL d   1     -38.788  14.754  22.519  0.00  0.00     0.099 A 
ATOM     11  C   UNL d   1     -38.690  13.351  23.331  0.00  0.00     0.120 A 
ATOM     12  C   UNL d   1     -38.490  14.057  23.698  0.00  0.00     0.120 A 
ATOM     13  N   UNL d   1     -38.535  14.754  23.305  0.00  0.00    -0.241 NA
ATOM     14  C   UNL d   1     -38.839  15.465  22.102  0.00  0.00     0.021 A 
ATOM     15  C   UNL d   1     -39.092  15.465  21.315  0.00  0.00     0.003 A 
ENDBRANCH   3   6
BRANCH   1  16
ATOM     16  S   UNL d   1     -40.947  15.129  20.390  0.00  0.00     0.266 S 
ATOM     17  O   UNL d   1     -41.109  14.300  20.469  0.00  0.00    -0.203 OA
ATOM     18  O   UNL d   1     -41.591  15.295  20.876  0.00  0.00    -0.203 OA
ATOM     19  C   UNL d   1     -40.777  15.922  20.304  0.00  0.00     0.165 C 
ENDBRANCH   1  16
BRANCH   4  20
ATOM     20  C   UNL d   1     -39.308  14.535  18.077  0.00  0.00     0.019 A 
ATOM     21  C   UNL d   1     -39.094  15.160  17.604  0.00  0.00     0.002 A 
ATOM     22  C   UNL d   1     -38.845  15.051  16.811  0.00  0.00     0.000 A 
ATOM     23  C   UNL d   1     -38.819  14.279  16.506  0.00  0.00     0.000 A 
ATOM     24  C   UNL d   1     -39.042  13.650  17.004  0.00  0.00     0.000 A 
ATOM     25  C   UNL d   1     -38.580  14.158  15.741  0.00  0.00     0.000 C 
ATOM     26  C   UNL d   1     -39.280  13.765  17.767  0.00  0.00     0.002 A 
ENDBRANCH   4  20
TORSDOF 3
ENDMDL
MODEL 5
REMARK VINA RESULT:      -6.5      8.298      9.950
REMARK  3 active torsions:
REMARK  status: ('A' for Active; 'I' for Inactive)
REMARK    1  A    between atoms: S_3  and  N_1 
REMARK    2  A    between atoms: C_7  and  C_4 
REMARK    3  A    between atoms: C_12  and  C_5 
ROOT
ATOM      1  N   UNL d   1     -47.286  14.037  22.537  0.00  0.00    -0.155 N 
ATOM      2  N   UNL d   1     -46.471  14.022  22.494  0.00  0.00    -0.156 NA
ATOM      3  C   UNL d   1     -47.565  13.292  22.374  0.00  0.00     0.096 A 
ATOM      4  C   UNL d   1     -46.249  13.259  22.304  0.00  0.00     0.103 A 
ATOM      5  C   UNL d   1     -46.917  12.803  22.228  0.00  0.00     0.041 A 
ENDROOT
BRANCH   3   6
ATOM      6  C   UNL d   1     -48.359  13.059  22.357  0.00  0.00     0.020 A 
ATOM      7  C   UNL d   1     -48.713  12.744  23.034  0.00  0.00     0.022 A 
ATOM      8  C   UNL d   1     -49.505  12.512  23.015  0.00  0.00     0.099 A 
ATOM      9  N   UNL d   1     -49.859  12.197  23.692  0.00  0.00    -0.241 NA
ATOM     10  C   UNL d   1     -49.941  12.594  22.325  0.00  0.00     0.099 A 
ATOM     11  C   UNL d   1     -50.628  11.976  23.661  0.00  0.00     0.120 A 
ATOM     12  C   UNL d   1     -51.064  12.058  22.970  0.00  0.00     0.120 A 
ATOM     13  N   UNL d   1     -50.734  12.362  22.306  0.00  0.00    -0.241 NA
ATOM     14  C   UNL d   1     -49.588  12.909  21.648  0.00  0.00     0.021 A 
ATOM     15  C   UNL d   1     -48.795  13.141  21.666  0.00  0.00     0.003 A 
ENDBRANCH   3   6
BRANCH   1  16
ATOM     16  S   UNL d   1     -47.767  14.704  22.717  0.00  0.00     0.266 S 
ATOM     17  O   UNL d   1     -47.755  14.459  23.529  0.00  0.00    -0.203 OA
ATOM     18  O   UNL d   1     -48.238  15.347  22.925  0.00  0.00    -0.203 OA
ATOM     19  C   UNL d   1     -47.769  14.925  21.932  0.00  0.00     0.165 C 
ENDBRANCH   1  16
BRANCH   4  20
ATOM     20  C   UNL d   1     -45.483  12.997  22.206  0.00  0.00     0.019 A 
ATOM     21  C   UNL d   1     -45.203  12.361  22.625  0.00  0.00     0.002 A 
ATOM     22  C   UNL d   1     -44.418  12.081  22.535  0.00  0.00     0.000 A 
ATOM     23  C   UNL d   1     -43.917  12.470  21.999  0.00  0.00     0.000 A 
ATOM     24  C   UNL d   1     -44.220  13.120  21.577  0.00  0.00     0.000 A 
ATOM     25  C   UNL d   1     -43.155  12.211  21.901  0.00  0.00     0.000 C 
ATOM     26  C   UNL d   1     -44.978  13.383  21.671  0.00  0.00     0.002 A 
ENDBRANCH   4  20
TORSDOF 3
ENDMDL
MODEL 6
REMARK VINA RESULT:      -5.8      1.775      2.378
REMARK  3 active torsions:
REMARK  status: ('A' for Active; 'I' for Inactive)
REMARK    1  A    between atoms: S_3  and  N_1 
REMARK    2  A    between atoms: C_7  and  C_4 
REMARK    3  A    between atoms: C_12  and  C_5 
ROOT
ATOM      1  N   UNL d   1     -38.737  13.735  18.812  0.00  0.00    -0.155 N 
ATOM      2  N   UNL d   1     -38.504  13.583  19.580  0.00  0.00    -0.156 NA
ATOM      3  C   UNL d   1     -39.115  14.454  18.796  0.00  0.00     0.096 A 
ATOM      4  C   UNL d   1     -38.742  14.217  20.038  0.00  0.00     0.103 A 
ATOM      5  C   UNL d   1     -39.119  14.758  19.563  0.00  0.00     0.041 A 
ENDROOT
BRANCH   3   6
ATOM      6  C   UNL d   1     -39.440  14.822  18.130  0.00  0.00     0.020 A 
ATOM      7  C   UNL d   1     -40.255  14.796  17.999  0.00  0.00     0.022 A 
ATOM      8  C   UNL d   1     -40.579  15.163  17.335  0.00  0.00     0.099 A 
ATOM      9  N   UNL d   1     -41.394  15.137  17.204  0.00  0.00    -0.241 NA
ATOM     10  C   UNL d   1     -40.091  15.555  16.803  0.00  0.00     0.099 A 
ATOM     11  C   UNL d   1     -41.695  15.498  16.556  0.00  0.00     0.120 A 
ATOM     12  C   UNL d   1     -41.206  15.889  16.024  0.00  0.00     0.120 A 
ATOM     13  N   UNL d   1     -40.414  15.922  16.138  0.00  0.00    -0.241 NA
ATOM     14  C   UNL d   1     -39.276  15.581  16.933  0.00  0.00     0.021 A 
ATOM     15  C   UNL d   1     -38.951  15.213  17.599  0.00  0.00     0.003 A 
ENDBRANCH   3   6
BRANCH   1  16
ATOM     16  S   UNL d   1     -38.614  13.240  18.142  0.00  0.00     0.266 S 
ATOM     17  O   UNL d   1     -39.285  12.785  18.390  0.00  0.00    -0.203 OA
ATOM     18  O   UNL d   1     -38.518  12.738  17.497  0.00  0.00    -0.203 OA
ATOM     19  C   UNL d   1     -37.970  13.688  17.919  0.00  0.00     0.165 C 
ENDBRANCH   1  16
BRANCH   4  20
ATOM     20  C   UNL d   1     -38.621  14.294  20.841  0.00  0.00     0.019 A 
ATOM     21  C   UNL d   1     -38.114  14.856  21.133  0.00  0.00     0.002 A 
ATOM     22  C   UNL d   1     -37.980  14.947  21.956  0.00  0.00     0.000 A 
ATOM     23  C   UNL d   1     -38.380  14.444  22.481  0.00  0.00     0.000 A 
ATOM     24  C   UNL d   1     -38.896  13.873  22.165  0.00  0.00     0.000 A 
ATOM     25  C   UNL d   1     -38.260  14.520  23.280  0.00  0.00     0.000 C 
ATOM     26  C   UNL d   1     -39.019  13.793  21.370  0.00  0.00     0.002 A 
ENDBRANCH   4  20
TORSDOF 3
ENDMDL
MODEL 7
REMARK VINA RESULT:      -5.1      1.823      4.598
REMARK  3 active torsions:
REMARK  status: ('A' for Active; 'I' for Inactive)
REMARK    1  A    between atoms: S_3  and  N_1 
REMARK    2  A    between atoms: C_7  and  C_4 
REMARK    3  A    between atoms: C_12  and  C_5 
ROOT
ATOM      1  N   UNL d   1     -39.098  14.270  18.626  0.00  0.00    -0.155 N 
ATOM      2  N   UNL d   1     -39.564  14.301  17.957  0.00  0.00    -0.156 NA
ATOM      3  C   UNL d   1     -39.290  14.898  19.103  0.00  0.00     0.096 A 
ATOM      4  C   UNL d   1     -40.047  14.956  18.025  0.00  0.00     0.103 A 
ATOM      5  C   UNL d   1     -39.885  15.330  18.728  0.00  0.00     0.041 A 
ENDROOT
BRANCH   3   6
ATOM      6  C   UNL d   1     -38.952  15.078  19.836  0.00  0.00     0.020 A 
ATOM      7  C   UNL d   1     -39.259  14.744  20.527  0.00  0.00     0.022 A 
ATOM      8  C   UNL d   1     -38.921  14.925  21.258  0.00  0.00     0.099 A 
ATOM      9  N   UNL d   1     -39.228  14.591  21.948  0.00  0.00    -0.241 NA
ATOM     10  C   UNL d   1     -38.280  15.436  21.300  0.00  0.00     0.099 A 
ATOM     11  C   UNL d   1     -38.890  14.774  22.651  0.00  0.00     0.120 A 
ATOM     12  C   UNL d   1     -38.249  15.286  22.692  0.00  0.00     0.120 A 
ATOM     13  N   UNL d   1     -37.942  15.616  22.031  0.00  0.00    -0.241 NA
ATOM     14  C   UNL d   1     -37.973  15.770  20.610  0.00  0.00     0.021 A 
ATOM     15  C   UNL d   1     -38.311  15.590  19.877  0.00  0.00     0.003 A 
ENDBRANCH   3   6
BRANCH   1  16
ATOM     16  S   UNL d   1     -38.513  13.690  18.804  0.00  0.00     0.266 S 
ATOM     17  O   UNL d   1     -39.103  13.271  19.246  0.00  0.00    -0.203 OA
ATOM     18  O   UNL d   1     -37.964  13.107  18.995  0.00  0.00    -0.203 OA
ATOM     19  C   UNL d   1     -37.958  14.106  18.375  0.00  0.00     0.165 C 
ENDBRANCH   1  16
BRANCH   4  20
ATOM     20  C   UNL d   1     -40.602  15.197  17.478  0.00  0.00     0.019 A 
ATOM     21  C   UNL d   1     -41.254  15.624  17.705  0.00  0.00     0.002 A 
ATOM     22  C   UNL d   1     -41.832  15.878  17.154  0.00  0.00     0.000 A 
ATOM     23  C   UNL d   1     -41.730  15.683  16.354  0.00  0.00     0.000 A 
ATOM     24  C   UNL d   1     -41.056  15.245  16.138  0.00  0.00     0.000 A 
ATOM     25  C   UNL d   1     -42.280  15.922  15.809  0.00  0.00     0.000 C 
ATOM     26  C   UNL d   1     -40.504  15.004  16.676  0.00  0.00     0.002 A 
ENDBRANCH   4  20
TORSDOF 3
ENDMDL
MODEL 8
REMARK VINA RESULT:      -4.9      1.948      4.802
REMARK  3 active torsions:
REMARK  status: ('A' for Active; 'I' for Inactive)
REMARK    1  A    between atoms: S_3  and  N_1 
REMARK    2  A    between atoms: C_7  and  C_4 
REMARK    3  A    between atoms: C_12  and  C_5 
ROOT
ATOM      1  N   UNL d   1     -38.565  14.895  19.033  0.00  0.00    -0.155 N 
ATOM      2  N   UNL d   1     -38.143  14.733  18.353  0.00  0.00    -0.156 NA
ATOM      3  C   UNL d   1     -39.353  14.771  18.882  0.00  0.00     0.096 A 
ATOM      4  C   UNL d   1     -38.680  14.507  17.780  0.00  0.00     0.103 A 
ATOM      5  C   UNL d   1     -39.428  14.528  18.097  0.00  0.00     0.041 A 
ENDROOT
BRANCH   3   6
ATOM      6  C   UNL d   1     -39.976  14.869  19.418  0.00  0.00     0.020 A 
ATOM      7  C   UNL d   1     -40.290  14.215  19.813  0.00  0.00     0.022 A 
ATOM      8  C   UNL d   1     -40.911  14.314  20.348  0.00  0.00     0.099 A 
ATOM      9  N   UNL d   1     -41.224  13.660  20.743  0.00  0.00    -0.241 NA
ATOM     10  C   UNL d   1     -41.218  15.063  20.486  0.00  0.00     0.099 A 
ATOM     11  C   UNL d   1     -41.827  13.771  21.258  0.00  0.00     0.120 A 
ATOM     12  C   UNL d   1     -42.134  14.520  21.396  0.00  0.00     0.120 A 
ATOM     13  N   UNL d   1     -41.840  15.163  21.020  0.00  0.00    -0.241 NA
ATOM     14  C   UNL d   1     -40.905  15.717  20.091  0.00  0.00     0.021 A 
ATOM     15  C   UNL d   1     -40.283  15.618  19.556  0.00  0.00     0.003 A 
ENDBRANCH   3   6
BRANCH   1  16
ATOM     16  S   UNL d   1     -38.249  15.148  19.772  0.00  0.00     0.266 S 
ATOM     17  O   UNL d   1     -38.287  14.342  20.033  0.00  0.00    -0.203 OA
ATOM     18  O   UNL d   1     -37.941  15.365  20.504  0.00  0.00    -0.203 OA
ATOM     19  C   UNL d   1     -38.219  15.918  19.505  0.00  0.00     0.165 C 
ENDBRANCH   1  16
BRANCH   4  20
ATOM     20  C   UNL d   1     -38.496  14.296  17.014  0.00  0.00     0.019 A 
ATOM     21  C   UNL d   1     -38.223  13.551  16.842  0.00  0.00     0.002 A 
ATOM     22  C   UNL d   1     -38.029  13.319  16.060  0.00  0.00     0.000 A 
ATOM     23  C   UNL d   1     -38.122  13.872  15.448  0.00  0.00     0.000 A 
ATOM     24  C   UNL d   1     -38.404  14.631  15.642  0.00  0.00     0.000 A 
ATOM     25  C   UNL d   1     -37.940  13.663  14.686  0.00  0.00     0.000 C 
ATOM     26  C   UNL d   1     -38.587  14.846  16.399  0.00  0.00     0.002 A 
ENDBRANCH   4  20
TORSDOF 3
ENDMDL
