MODEL 1
REMARK VINA RESULT:      15.5      0.000      0.000
REMARK  2 active torsions:
REMARK  status: ('A' for Active; 'I' for Inactive)
REMARK    1  A    between atoms: C_6  and  N_1 
REMARK    2  A    between atoms: C_7  and  C_6 
ROOT
ATOM      1  N   UNL d   1      45.715 -13.231  44.282  0.00  0.00    -0.287 N 
ATOM      2  N   UNL d   1      46.397 -12.560  43.337  0.00  0.00    -0.224 NA
ATOM      3  C   UNL d   1      46.467 -13.014  44.003  0.00  0.00     0.183 A 
ATOM      4  C   UNL d   1      45.153 -12.899  43.767  0.00  0.00     0.083 A 
ATOM      5  C   UNL d   1      45.586 -12.472  43.166  0.00  0.00     0.099 A 
ATOM      6  C   UNL d   1      44.343 -12.900  43.727  0.00  0.00     0.019 A 
ATOM      7  C   UNL d   1      45.165 -12.090  42.588  0.00  0.00     0.021 A 
ATOM      8  C   UNL d   1      43.945 -12.526  43.160  0.00  0.00     0.002 A 
ATOM      9  C   UNL d   1      44.378 -12.099  42.559  0.00  0.00     0.002 A 
ENDROOT
BRANCH   1  10
ATOM     10  C   UNL d   1      45.679 -13.694  44.955  0.00  0.00     0.082 C 
BRANCH  10  11
ATOM     11  C   UNL d   1      45.485 -14.472  44.948  0.00  0.00     0.018 A 
ATOM     12  C   UNL d   1      46.035 -15.068  44.934  0.00  0.00     0.002 A 
ATOM     13  C   UNL d   1      45.843 -15.856  44.927  0.00  0.00     0.000 A 
ATOM     14  C   UNL d   1      46.422 -16.449  44.914  0.00  0.00     0.000 C 
ATOM     15  C   UNL d   1      45.044 -16.062  44.934  0.00  0.00     0.000 A 
ATOM     16  C   UNL d   1      44.465 -15.474  44.948  0.00  0.00     0.000 A 
ATOM     17  C   UNL d   1      44.686 -14.679  44.955  0.00  0.00     0.002 A 
ENDBRANCH  10  11
ENDBRANCH   1  10
TORSDOF 2
ENDMDL
MODEL 2
REMARK VINA RESULT:      16.8      1.795      3.177
REMARK  2 active torsions:
REMARK  status: ('A' for Active; 'I' for Inactive)
REMARK    1  A    between atoms: C_6  and  N_1 
REMARK    2  A    between atoms: C_7  and  C_6 
ROOT
ATOM      1  N   UNL d   1      45.764 -16.118  44.895  0.00  0.00    -0.287 N 
ATOM      2  N   UNL d   1      44.486 -15.698  44.885  0.00  0.00    -0.224 NA
ATOM      3  C   UNL d   1      44.967 -16.346  44.948  0.00  0.00     0.183 A 
ATOM      4  C   UNL d   1      45.780 -15.292  44.794  0.00  0.00     0.083 A 
ATOM      5  C   UNL d   1      44.968 -15.025  44.788  0.00  0.00     0.099 A 
ATOM      6  C   UNL d   1      46.366 -14.739  44.707  0.00  0.00     0.019 A 
ATOM      7  C   UNL d   1      44.826 -14.233  44.696  0.00  0.00     0.021 A 
ATOM      8  C   UNL d   1      46.216 -13.971  44.619  0.00  0.00     0.002 A 
ATOM      9  C   UNL d   1      45.404 -13.704  44.613  0.00  0.00     0.002 A 
ENDROOT
BRANCH   1  10
ATOM     10  C   UNL d   1      46.330 -16.705  44.947  0.00  0.00     0.082 C 
BRANCH  10  11
ATOM     11  C   UNL d   1      46.300 -17.389  44.530  0.00  0.00     0.018 A 
ATOM     12  C   UNL d   1      46.309 -18.122  44.877  0.00  0.00     0.002 A 
ATOM     13  C   UNL d   1      46.278 -18.816  44.459  0.00  0.00     0.000 A 
ATOM     14  C   UNL d   1      46.288 -19.555  44.835  0.00  0.00     0.000 C 
ATOM     15  C   UNL d   1      46.236 -18.775  43.636  0.00  0.00     0.000 A 
ATOM     16  C   UNL d   1      46.225 -18.040  43.260  0.00  0.00     0.000 A 
ATOM     17  C   UNL d   1      46.258 -17.348  43.707  0.00  0.00     0.002 A 
ENDBRANCH  10  11
ENDBRANCH   1  10
TORSDOF 2
ENDMDL
MODEL 3
REMARK VINA RESULT:      17.7      6.978      8.004
REMARK  2 active torsions:
REMARK  status: ('A' for Active; 'I' for Inactive)
REMARK    1  A    between atoms: C_6  and  N_1 
REMARK    2  A    between atoms: C_7  and  C_6 
ROOT
ATOM      1  N   UNL d   1      44.497 -15.790  36.813  0.00  0.00    -0.287 N 
ATOM      2  N   UNL d   1      45.215 -16.174  37.883  0.00  0.00    -0.224 NA
ATOM      3  C   UNL d   1      44.529 -16.295  37.471  0.00  0.00     0.183 A 
ATOM      4  C   UNL d   1      45.193 -15.333  36.815  0.00  0.00     0.083 A 
ATOM      5  C   UNL d   1      45.649 -15.577  37.495  0.00  0.00     0.099 A 
ATOM      6  C   UNL d   1      45.496 -14.752  36.339  0.00  0.00     0.019 A 
ATOM      7  C   UNL d   1      46.361 -15.215  37.629  0.00  0.00     0.021 A 
ATOM      8  C   UNL d   1      46.190 -14.407  36.478  0.00  0.00     0.002 A 
ATOM      9  C   UNL d   1      46.646 -14.651  37.158  0.00  0.00     0.002 A 
ENDROOT
BRANCH   1  10
ATOM     10  C   UNL d   1      43.839 -15.836  36.330  0.00  0.00     0.082 C 
BRANCH  10  11
ATOM     11  C   UNL d   1      43.095 -15.661  36.576  0.00  0.00     0.018 A 
ATOM     12  C   UNL d   1      42.440 -16.074  36.340  0.00  0.00     0.002 A 
ATOM     13  C   UNL d   1      41.686 -15.900  36.586  0.00  0.00     0.000 A 
ATOM     14  C   UNL d   1      41.030 -16.336  36.331  0.00  0.00     0.000 C 
ATOM     15  C   UNL d   1      41.583 -15.267  37.104  0.00  0.00     0.000 A 
ATOM     16  C   UNL d   1      42.235 -14.830  37.359  0.00  0.00     0.000 A 
ATOM     17  C   UNL d   1      42.991 -15.027  37.095  0.00  0.00     0.002 A 
ENDBRANCH  10  11
ENDBRANCH   1  10
TORSDOF 2
ENDMDL
