MODEL 1
REMARK VINA RESULT:      -5.4      0.000      0.000
REMARK  6 active torsions:
REMARK  status: ('A' for Active; 'I' for Inactive)
REMARK    1  A    between atoms: C_6  and  C_1 
REMARK    2  A    between atoms: N_4  and  C_2 
REMARK       I    between atoms: C_8  and  N_4 
REMARK    3  A    between atoms: C_11  and  C_8 
REMARK    4  A    between atoms: O_22  and  C_10 
REMARK    5  A    between atoms: O_24  and  C_12 
REMARK    6  A    between atoms: O_23  and  C_13 
ROOT
ATOM      1  C   UNL d   1      53.442  31.679  53.792  0.00  0.00     0.080 A 
ATOM      2  C   UNL d   1      52.788  31.768  53.297  0.00  0.00     0.188 A 
ATOM      3  C   UNL d   1      53.670  30.925  54.043  0.00  0.00     0.201 A 
ATOM      4  O   UNL d   1      52.362  31.103  53.053  0.00  0.00    -0.289 OA
ATOM      5  C   UNL d   1      53.244  30.264  53.799  0.00  0.00     0.062 A 
ATOM      6  C   UNL d   1      52.590  30.352  53.304  0.00  0.00     0.105 A 
ATOM      7  O   UNL d   1      54.324  30.836  54.538  0.00  0.00    -0.286 OA
ATOM      8  C   UNL d   1      53.472  29.513  54.050  0.00  0.00     0.005 A 
ATOM      9  C   UNL d   1      52.164  29.691  53.060  0.00  0.00     0.025 A 
ATOM     10  C   UNL d   1      53.046  28.844  53.806  0.00  0.00     0.000 A 
ATOM     11  C   UNL d   1      52.392  28.933  53.311  0.00  0.00     0.002 A 
ENDROOT
BRANCH   1  12
ATOM     12  C   UNL d   1      53.868  32.340  54.035  0.00  0.00     0.011 A 
ATOM     13  C   UNL d   1      53.630  32.758  54.703  0.00  0.00     0.027 A 
ATOM     14  C   UNL d   1      54.056  33.426  54.952  0.00  0.00     0.118 A 
ATOM     15  C   UNL d   1      54.724  33.671  54.524  0.00  0.00     0.138 A 
ATOM     16  C   UNL d   1      54.960  33.247  53.850  0.00  0.00     0.118 A 
ATOM     17  C   UNL d   1      54.535  32.586  53.607  0.00  0.00     0.027 A 
BRANCH  14  18
ATOM     18  O   UNL d   1      53.813  33.845  55.627  0.00  0.00    -0.326 OA
ATOM     19  C   UNL d   1      53.162  34.358  55.590  0.00  0.00     0.181 C 
ENDBRANCH  14  18
BRANCH  15  20
ATOM     20  O   UNL d   1      55.156  34.338  54.766  0.00  0.00    -0.324 OA
ATOM     21  C   UNL d   1      55.770  34.262  55.319  0.00  0.00     0.182 C 
ENDBRANCH  15  20
BRANCH  16  22
ATOM     22  O   UNL d   1      55.624  33.490  53.425  0.00  0.00    -0.326 OA
ATOM     23  C   UNL d   1      55.846  33.089  52.740  0.00  0.00     0.181 C 
ENDBRANCH  16  22
ENDBRANCH   1  12
BRANCH   2  24
ATOM     24  N   UNL d   1      52.554  32.527  53.040  0.00  0.00    -0.182 NA
ATOM     25  C   UNL d   1      51.759  32.672  52.857  0.00  0.00     0.304 C 
ATOM     26  O   UNL d   1      51.196  32.074  52.925  0.00  0.00    -0.263 OA
BRANCH  25  27
ATOM     27  C   UNL d   1      51.533  33.429  52.603  0.00  0.00     0.158 A 
ATOM     28  O   UNL d   1      51.863  33.949  52.061  0.00  0.00    -0.300 OA
ATOM     29  C   UNL d   1      51.392  34.627  52.036  0.00  0.00     0.123 A 
ATOM     30  C   UNL d   1      50.766  34.521  52.568  0.00  0.00     0.029 A 
ATOM     31  C   UNL d   1      50.856  33.782  52.916  0.00  0.00     0.032 A 
ENDBRANCH  25  27
ENDBRANCH   2  24
TORSDOF 6
ENDMDL
MODEL 2
REMARK VINA RESULT:      -4.9      0.864      3.498
REMARK  6 active torsions:
REMARK  status: ('A' for Active; 'I' for Inactive)
REMARK    1  A    between atoms: C_6  and  C_1 
REMARK    2  A    between atoms: N_4  and  C_2 
REMARK       I    between atoms: C_8  and  N_4 
REMARK    3  A    between atoms: C_11  and  C_8 
REMARK    4  A    between atoms: O_22  and  C_10 
REMARK    5  A    between atoms: O_24  and  C_12 
REMARK    6  A    between atoms: O_23  and  C_13 
ROOT
ATOM      1  C   UNL d   1      52.592  33.393  53.527  0.00  0.00     0.080 A 
ATOM      2  C   UNL d   1      52.260  32.672  53.300  0.00  0.00     0.188 A 
ATOM      3  C   UNL d   1      52.176  34.095  53.404  0.00  0.00     0.201 A 
ATOM      4  O   UNL d   1      51.511  32.655  52.951  0.00  0.00    -0.289 OA
ATOM      5  C   UNL d   1      51.430  34.077  53.056  0.00  0.00     0.062 A 
ATOM      6  C   UNL d   1      51.097  33.357  52.829  0.00  0.00     0.105 A 
ATOM      7  O   UNL d   1      52.508  34.816  53.631  0.00  0.00    -0.286 OA
ATOM      8  C   UNL d   1      51.016  34.779  52.935  0.00  0.00     0.005 A 
ATOM      9  C   UNL d   1      50.351  33.339  52.481  0.00  0.00     0.025 A 
ATOM     10  C   UNL d   1      50.264  34.764  52.584  0.00  0.00     0.000 A 
ATOM     11  C   UNL d   1      49.931  34.044  52.358  0.00  0.00     0.002 A 
ENDROOT
BRANCH   1  12
ATOM     12  C   UNL d   1      53.338  33.411  53.875  0.00  0.00     0.011 A 
ATOM     13  C   UNL d   1      54.010  33.459  53.403  0.00  0.00     0.027 A 
ATOM     14  C   UNL d   1      54.764  33.477  53.750  0.00  0.00     0.118 A 
ATOM     15  C   UNL d   1      54.838  33.446  54.576  0.00  0.00     0.138 A 
ATOM     16  C   UNL d   1      54.157  33.398  55.049  0.00  0.00     0.118 A 
ATOM     17  C   UNL d   1      53.412  33.380  54.701  0.00  0.00     0.027 A 
BRANCH  14  18
ATOM     18  O   UNL d   1      55.440  33.526  53.270  0.00  0.00    -0.326 OA
ATOM     19  C   UNL d   1      55.558  32.981  52.655  0.00  0.00     0.181 C 
ENDBRANCH  14  18
BRANCH  15  20
ATOM     20  O   UNL d   1      55.589  33.464  54.932  0.00  0.00    -0.324 OA
ATOM     21  C   UNL d   1      55.939  34.188  55.137  0.00  0.00     0.182 C 
ENDBRANCH  15  20
BRANCH  16  22
ATOM     22  O   UNL d   1      54.230  33.367  55.870  0.00  0.00    -0.326 OA
ATOM     23  C   UNL d   1      54.100  32.659  56.271  0.00  0.00     0.181 C 
ENDBRANCH  16  22
ENDBRANCH   1  12
BRANCH   2  24
ATOM     24  N   UNL d   1      52.676  31.959  53.422  0.00  0.00    -0.182 NA
ATOM     25  C   UNL d   1      52.299  31.234  53.287  0.00  0.00     0.304 C 
ATOM     26  O   UNL d   1      51.515  31.210  53.033  0.00  0.00    -0.263 OA
BRANCH  25  27
ATOM     27  C   UNL d   1      52.718  30.528  53.409  0.00  0.00     0.158 A 
ATOM     28  O   UNL d   1      52.967  30.148  54.092  0.00  0.00    -0.300 OA
ATOM     29  C   UNL d   1      53.364  29.459  53.872  0.00  0.00     0.123 A 
ATOM     30  C   UNL d   1      53.359  29.416  53.044  0.00  0.00     0.029 A 
ATOM     31  C   UNL d   1      52.960  30.077  52.763  0.00  0.00     0.032 A 
ENDBRANCH  25  27
ENDBRANCH   2  24
TORSDOF 6
ENDMDL
MODEL 3
REMARK VINA RESULT:      -4.1      1.080      4.139
REMARK  6 active torsions:
REMARK  status: ('A' for Active; 'I' for Inactive)
REMARK    1  A    between atoms: C_6  and  C_1 
REMARK    2  A    between atoms: N_4  and  C_2 
REMARK       I    between atoms: C_8  and  N_4 
REMARK    3  A    between atoms: C_11  and  C_8 
REMARK    4  A    between atoms: O_22  and  C_10 
REMARK    5  A    between atoms: O_24  and  C_12 
REMARK    6  A    between atoms: O_23  and  C_13 
ROOT
ATOM      1  C   UNL d   1      53.013  33.607  53.890  0.00  0.00     0.080 A 
ATOM      2  C   UNL d   1      53.405  32.881  53.900  0.00  0.00     0.188 A 
ATOM      3  C   UNL d   1      53.316  34.245  54.318  0.00  0.00     0.201 A 
ATOM      4  O   UNL d   1      54.100  32.793  54.339  0.00  0.00    -0.289 OA
ATOM      5  C   UNL d   1      54.009  34.157  54.754  0.00  0.00     0.062 A 
ATOM      6  C   UNL d   1      54.401  33.431  54.765  0.00  0.00     0.105 A 
ATOM      7  O   UNL d   1      52.924  34.971  54.307  0.00  0.00    -0.286 OA
ATOM      8  C   UNL d   1      54.310  34.794  55.180  0.00  0.00     0.005 A 
ATOM      9  C   UNL d   1      55.094  33.342  55.202  0.00  0.00     0.025 A 
ATOM     10  C   UNL d   1      55.008  34.709  55.621  0.00  0.00     0.000 A 
ATOM     11  C   UNL d   1      55.399  33.983  55.632  0.00  0.00     0.002 A 
ENDROOT
BRANCH   1  12
ATOM     12  C   UNL d   1      52.320  33.695  53.453  0.00  0.00     0.011 A 
ATOM     13  C   UNL d   1      51.606  33.421  53.757  0.00  0.00     0.027 A 
ATOM     14  C   UNL d   1      50.906  33.508  53.319  0.00  0.00     0.118 A 
ATOM     15  C   UNL d   1      50.928  33.873  52.574  0.00  0.00     0.138 A 
ATOM     16  C   UNL d   1      51.651  34.147  52.271  0.00  0.00     0.118 A 
ATOM     17  C   UNL d   1      52.343  34.059  52.708  0.00  0.00     0.027 A 
BRANCH  14  18
ATOM     18  O   UNL d   1      50.187  33.231  53.629  0.00  0.00    -0.326 OA
ATOM     19  C   UNL d   1      50.047  32.415  53.699  0.00  0.00     0.181 C 
ENDBRANCH  14  18
BRANCH  15  20
ATOM     20  O   UNL d   1      50.232  33.964  52.130  0.00  0.00    -0.324 OA
ATOM     21  C   UNL d   1      49.745  34.626  52.243  0.00  0.00     0.182 C 
ENDBRANCH  15  20
BRANCH  16  22
ATOM     22  O   UNL d   1      51.674  34.510  51.530  0.00  0.00    -0.326 OA
ATOM     23  C   UNL d   1      52.389  34.586  51.129  0.00  0.00     0.181 C 
ENDBRANCH  16  22
ENDBRANCH   1  12
BRANCH   2  24
ATOM     24  N   UNL d   1      53.102  32.233  53.470  0.00  0.00    -0.182 NA
ATOM     25  C   UNL d   1      53.466  31.491  53.534  0.00  0.00     0.304 C 
ATOM     26  O   UNL d   1      54.123  31.386  54.019  0.00  0.00    -0.263 OA
BRANCH  25  27
ATOM     27  C   UNL d   1      53.160  30.850  53.103  0.00  0.00     0.158 A 
ATOM     28  O   UNL d   1      52.941  30.771  52.317  0.00  0.00    -0.300 OA
ATOM     29  C   UNL d   1      52.673  29.999  52.202  0.00  0.00     0.123 A 
ATOM     30  C   UNL d   1      52.729  29.600  52.926  0.00  0.00     0.029 A 
ATOM     31  C   UNL d   1      53.030  30.128  53.479  0.00  0.00     0.032 A 
ENDBRANCH  25  27
ENDBRANCH   2  24
TORSDOF 6
ENDMDL
MODEL 4
REMARK VINA RESULT:      -4.0      1.030      3.464
REMARK  6 active torsions:
REMARK  status: ('A' for Active; 'I' for Inactive)
REMARK    1  A    between atoms: C_6  and  C_1 
REMARK    2  A    between atoms: N_4  and  C_2 
REMARK       I    between atoms: C_8  and  N_4 
REMARK    3  A    between atoms: C_11  and  C_8 
REMARK    4  A    between atoms: O_22  and  C_10 
REMARK    5  A    between atoms: O_24  and  C_12 
REMARK    6  A    between atoms: O_23  and  C_13 
ROOT
ATOM      1  C   UNL d   1      52.575  31.958  53.316  0.00  0.00     0.080 A 
ATOM      2  C   UNL d   1      53.210  32.046  53.836  0.00  0.00     0.188 A 
ATOM      3  C   UNL d   1      52.356  31.205  53.057  0.00  0.00     0.201 A 
ATOM      4  O   UNL d   1      53.626  31.381  54.095  0.00  0.00    -0.289 OA
ATOM      5  C   UNL d   1      52.771  30.543  53.315  0.00  0.00     0.062 A 
ATOM      6  C   UNL d   1      53.406  30.631  53.835  0.00  0.00     0.105 A 
ATOM      7  O   UNL d   1      51.721  31.118  52.537  0.00  0.00    -0.286 OA
ATOM      8  C   UNL d   1      52.552  29.793  53.055  0.00  0.00     0.005 A 
ATOM      9  C   UNL d   1      53.822  29.969  54.094  0.00  0.00     0.025 A 
ATOM     10  C   UNL d   1      52.969  29.124  53.314  0.00  0.00     0.000 A 
ATOM     11  C   UNL d   1      53.604  29.211  53.833  0.00  0.00     0.002 A 
ENDROOT
BRANCH   1  12
ATOM     12  C   UNL d   1      52.160  32.621  53.058  0.00  0.00     0.011 A 
ATOM     13  C   UNL d   1      52.479  33.102  52.472  0.00  0.00     0.027 A 
ATOM     14  C   UNL d   1      52.063  33.771  52.208  0.00  0.00     0.118 A 
ATOM     15  C   UNL d   1      51.323  33.953  52.538  0.00  0.00     0.138 A 
ATOM     16  C   UNL d   1      51.005  33.464  53.130  0.00  0.00     0.118 A 
ATOM     17  C   UNL d   1      51.420  32.802  53.388  0.00  0.00     0.027 A 
BRANCH  14  18
ATOM     18  O   UNL d   1      52.389  34.255  51.616  0.00  0.00    -0.326 OA
ATOM     19  C   UNL d   1      53.043  34.738  51.783  0.00  0.00     0.181 C 
ENDBRANCH  14  18
BRANCH  15  20
ATOM     20  O   UNL d   1      50.901  34.620  52.280  0.00  0.00    -0.324 OA
ATOM     21  C   UNL d   1      50.282  34.539  51.733  0.00  0.00     0.182 C 
ENDBRANCH  15  20
BRANCH  16  22
ATOM     22  O   UNL d   1      50.270  33.645  53.458  0.00  0.00    -0.326 OA
ATOM     23  C   UNL d   1      50.221  33.940  54.225  0.00  0.00     0.181 C 
ENDBRANCH  16  22
ENDBRANCH   1  12
BRANCH   2  24
ATOM     24  N   UNL d   1      53.435  32.805  54.101  0.00  0.00    -0.182 NA
ATOM     25  C   UNL d   1      53.902  32.881  54.782  0.00  0.00     0.304 C 
ATOM     26  O   UNL d   1      54.146  32.214  55.200  0.00  0.00    -0.263 OA
BRANCH  25  27
ATOM     27  C   UNL d   1      54.122  33.638  55.041  0.00  0.00     0.158 A 
ATOM     28  O   UNL d   1      53.682  34.283  55.294  0.00  0.00    -0.300 OA
ATOM     29  C   UNL d   1      54.205  34.892  55.485  0.00  0.00     0.123 A 
ATOM     30  C   UNL d   1      54.976  34.617  55.348  0.00  0.00     0.029 A 
ATOM     31  C   UNL d   1      54.920  33.844  55.075  0.00  0.00     0.032 A 
ENDBRANCH  25  27
ENDBRANCH   2  24
TORSDOF 6
ENDMDL
MODEL 5
REMARK VINA RESULT:      -3.9      1.346      1.664
REMARK  6 active torsions:
REMARK  status: ('A' for Active; 'I' for Inactive)
REMARK    1  A    between atoms: C_6  and  C_1 
REMARK    2  A    between atoms: N_4  and  C_2 
REMARK       I    between atoms: C_8  and  N_4 
REMARK    3  A    between atoms: C_11  and  C_8 
REMARK    4  A    between atoms: O_22  and  C_10 
REMARK    5  A    between atoms: O_24  and  C_12 
REMARK    6  A    between atoms: O_23  and  C_13 
ROOT
ATOM      1  C   UNL d   1      52.944  32.801  53.603  0.00  0.00     0.080 A 
ATOM      2  C   UNL d   1      52.217  32.653  53.242  0.00  0.00     0.188 A 
ATOM      3  C   UNL d   1      53.471  32.179  53.738  0.00  0.00     0.201 A 
ATOM      4  O   UNL d   1      52.018  31.884  53.016  0.00  0.00    -0.289 OA
ATOM      5  C   UNL d   1      53.272  31.413  53.512  0.00  0.00     0.062 A 
ATOM      6  C   UNL d   1      52.545  31.265  53.151  0.00  0.00     0.105 A 
ATOM      7  O   UNL d   1      54.198  32.327  54.099  0.00  0.00    -0.286 OA
ATOM      8  C   UNL d   1      53.798  30.794  53.647  0.00  0.00     0.005 A 
ATOM      9  C   UNL d   1      52.345  30.499  52.925  0.00  0.00     0.025 A 
ATOM     10  C   UNL d   1      53.601  30.021  53.421  0.00  0.00     0.000 A 
ATOM     11  C   UNL d   1      52.874  29.873  53.059  0.00  0.00     0.002 A 
ENDROOT
BRANCH   1  12
ATOM     12  C   UNL d   1      53.144  33.567  53.829  0.00  0.00     0.011 A 
ATOM     13  C   UNL d   1      53.170  33.766  54.627  0.00  0.00     0.027 A 
ATOM     14  C   UNL d   1      53.371  34.538  54.858  0.00  0.00     0.118 A 
ATOM     15  C   UNL d   1      53.545  35.109  54.282  0.00  0.00     0.138 A 
ATOM     16  C   UNL d   1      53.517  34.904  53.477  0.00  0.00     0.118 A 
ATOM     17  C   UNL d   1      53.318  34.138  53.252  0.00  0.00     0.027 A 
BRANCH  14  18
ATOM     18  O   UNL d   1      53.396  34.735  55.665  0.00  0.00    -0.326 OA
ATOM     19  C   UNL d   1      53.900  34.324  56.182  0.00  0.00     0.181 C 
ENDBRANCH  14  18
BRANCH  15  20
ATOM     20  O   UNL d   1      53.747  35.884  54.505  0.00  0.00    -0.324 OA
ATOM     21  C   UNL d   1      53.154  36.439  54.676  0.00  0.00     0.182 C 
ENDBRANCH  15  20
BRANCH  16  22
ATOM     22  O   UNL d   1      53.690  35.471  52.904  0.00  0.00    -0.326 OA
ATOM     23  C   UNL d   1      53.723  35.258  52.109  0.00  0.00     0.181 C 
ENDBRANCH  16  22
ENDBRANCH   1  12
BRANCH   2  24
ATOM     24  N   UNL d   1      51.681  33.278  53.104  0.00  0.00    -0.182 NA
ATOM     25  C   UNL d   1      50.871  33.116  53.028  0.00  0.00     0.304 C 
ATOM     26  O   UNL d   1      50.591  32.343  53.088  0.00  0.00    -0.263 OA
BRANCH  25  27
ATOM     27  C   UNL d   1      50.343  33.741  52.890  0.00  0.00     0.158 A 
ATOM     28  O   UNL d   1      49.978  34.274  53.396  0.00  0.00    -0.300 OA
ATOM     29  C   UNL d   1      49.507  34.776  52.942  0.00  0.00     0.123 A 
ATOM     30  C   UNL d   1      49.583  34.549  52.149  0.00  0.00     0.029 A 
ATOM     31  C   UNL d   1      50.099  33.911  52.121  0.00  0.00     0.032 A 
ENDBRANCH  25  27
ENDBRANCH   2  24
TORSDOF 6
ENDMDL
