MODEL 1
REMARK VINA RESULT:      -9.2      0.000      0.000
REMARK  3 active torsions:
REMARK  status: ('A' for Active; 'I' for Inactive)
REMARK    1  A    between atoms: C_8  and  C_3 
REMARK    2  A    between atoms: O_18  and  C_12 
REMARK    3  A    between atoms: O_19  and  C_13 
ROOT
ATOM      1  S   UNL d   1     -48.756  14.242  22.863  0.00  0.00     0.211 S 
ATOM      2  C   UNL d   1     -49.570  14.559  22.898  0.00  0.00     0.103 A 
ATOM      3  C   UNL d   1     -48.473  13.575  22.414  0.00  0.00     0.093 A 
ATOM      4  N   UNL d   1     -50.207  13.688  22.047  0.00  0.00    -0.321 N 
ATOM      5  C   UNL d   1     -49.606  13.159  21.790  0.00  0.00     0.258 A 
ATOM      6  C   UNL d   1     -50.215  14.261  22.494  0.00  0.00     0.070 A 
ATOM      7  C   UNL d   1     -48.913  13.097  21.923  0.00  0.00     0.072 A 
ATOM      8  O   UNL d   1     -48.048  14.436  23.202  0.00  0.00    -0.217 OA
ATOM      9  O   UNL d   1     -49.011  14.924  23.332  0.00  0.00    -0.217 OA
ATOM     10  O   UNL d   1     -49.916  12.519  21.205  0.00  0.00    -0.267 OA
ATOM     11  C   UNL d   1     -49.653  15.213  23.389  0.00  0.00     0.013 A 
ATOM     12  C   UNL d   1     -50.945  14.612  22.578  0.00  0.00     0.018 A 
ATOM     13  C   UNL d   1     -50.394  15.573  23.477  0.00  0.00     0.001 A 
ATOM     14  C   UNL d   1     -51.035  15.261  23.063  0.00  0.00     0.002 A 
ATOM     15  H   UNL d   1     -50.945  13.515  21.716  0.00  0.00     0.169 HD
ENDROOT
BRANCH   3  16
ATOM     16  C   UNL d   1     -47.667  13.392  22.483  0.00  0.00     0.013 A 
ATOM     17  C   UNL d   1     -47.416  12.805  23.010  0.00  0.00     0.027 A 
ATOM     18  C   UNL d   1     -46.611  12.631  23.072  0.00  0.00     0.116 A 
ATOM     19  C   UNL d   1     -46.066  13.030  22.622  0.00  0.00     0.116 A 
ATOM     20  C   UNL d   1     -46.310  13.622  22.090  0.00  0.00     0.026 A 
ATOM     21  C   UNL d   1     -47.114  13.806  22.018  0.00  0.00     0.003 A 
BRANCH  18  22
ATOM     22  O   UNL d   1     -46.361  12.043  23.600  0.00  0.00    -0.326 OA
ATOM     23  C   UNL d   1     -46.800  11.352  23.698  0.00  0.00     0.181 C 
ENDBRANCH  18  22
BRANCH  19  24
ATOM     24  O   UNL d   1     -45.257  12.850  22.689  0.00  0.00    -0.326 OA
ATOM     25  C   UNL d   1     -44.743  13.032  22.079  0.00  0.00     0.181 C 
ENDBRANCH  19  24
ENDBRANCH   3  16
TORSDOF 3
ENDMDL
MODEL 2
REMARK VINA RESULT:      -9.0      0.610      1.295
REMARK  3 active torsions:
REMARK  status: ('A' for Active; 'I' for Inactive)
REMARK    1  A    between atoms: C_8  and  C_3 
REMARK    2  A    between atoms: O_18  and  C_12 
REMARK    3  A    between atoms: O_19  and  C_13 
ROOT
ATOM      1  S   UNL d   1     -48.665  13.816  23.069  0.00  0.00     0.211 S 
ATOM      2  C   UNL d   1     -49.361  14.324  22.923  0.00  0.00     0.103 A 
ATOM      3  C   UNL d   1     -48.349  13.205  22.565  0.00  0.00     0.093 A 
ATOM      4  N   UNL d   1     -49.757  13.847  21.695  0.00  0.00    -0.321 N 
ATOM      5  C   UNL d   1     -49.203  13.242  21.510  0.00  0.00     0.258 A 
ATOM      6  C   UNL d   1     -49.840  14.298  22.260  0.00  0.00     0.070 A 
ATOM      7  C   UNL d   1     -48.639  12.972  21.842  0.00  0.00     0.072 A 
ATOM      8  O   UNL d   1     -48.122  13.742  23.663  0.00  0.00    -0.217 OA
ATOM      9  O   UNL d   1     -48.961  14.431  23.603  0.00  0.00    -0.217 OA
ATOM     10  O   UNL d   1     -49.367  12.840  20.698  0.00  0.00    -0.267 OA
ATOM     11  C   UNL d   1     -49.515  14.861  23.525  0.00  0.00     0.013 A 
ATOM     12  C   UNL d   1     -50.474  14.805  22.195  0.00  0.00     0.018 A 
ATOM     13  C   UNL d   1     -50.159  15.380  23.463  0.00  0.00     0.001 A 
ATOM     14  C   UNL d   1     -50.633  15.340  22.789  0.00  0.00     0.002 A 
ATOM     15  H   UNL d   1     -50.327  13.948  21.104  0.00  0.00     0.169 HD
ENDROOT
BRANCH   3  16
ATOM     16  C   UNL d   1     -47.676  12.804  22.842  0.00  0.00     0.013 A 
ATOM     17  C   UNL d   1     -46.921  13.095  22.673  0.00  0.00     0.027 A 
ATOM     18  C   UNL d   1     -46.257  12.690  22.952  0.00  0.00     0.116 A 
ATOM     19  C   UNL d   1     -46.341  12.011  23.390  0.00  0.00     0.116 A 
ATOM     20  C   UNL d   1     -47.098  11.714  23.564  0.00  0.00     0.026 A 
ATOM     21  C   UNL d   1     -47.771  12.109  23.290  0.00  0.00     0.003 A 
BRANCH  18  22
ATOM     22  O   UNL d   1     -45.500  12.982  22.782  0.00  0.00    -0.326 OA
ATOM     23  C   UNL d   1     -45.329  13.299  22.041  0.00  0.00     0.181 C 
ENDBRANCH  18  22
BRANCH  19  24
ATOM     24  O   UNL d   1     -45.669  11.608  23.669  0.00  0.00    -0.326 OA
ATOM     25  C   UNL d   1     -45.663  10.791  23.698  0.00  0.00     0.181 C 
ENDBRANCH  19  24
ENDBRANCH   3  16
TORSDOF 3
ENDMDL
MODEL 3
REMARK VINA RESULT:      -8.6      0.936      2.068
REMARK  3 active torsions:
REMARK  status: ('A' for Active; 'I' for Inactive)
REMARK    1  A    between atoms: C_8  and  C_3 
REMARK    2  A    between atoms: O_18  and  C_12 
REMARK    3  A    between atoms: O_19  and  C_13 
ROOT
ATOM      1  S   UNL d   1     -48.845  13.054  22.280  0.00  0.00     0.211 S 
ATOM      2  C   UNL d   1     -49.609  13.368  21.992  0.00  0.00     0.103 A 
ATOM      3  C   UNL d   1     -48.231  13.474  22.697  0.00  0.00     0.093 A 
ATOM      4  N   UNL d   1     -49.504  14.676  22.404  0.00  0.00    -0.321 N 
ATOM      5  C   UNL d   1     -48.756  14.723  22.784  0.00  0.00     0.258 A 
ATOM      6  C   UNL d   1     -49.869  14.138  22.076  0.00  0.00     0.070 A 
ATOM      7  C   UNL d   1     -48.237  14.259  22.910  0.00  0.00     0.072 A 
ATOM      8  O   UNL d   1     -48.476  12.335  22.263  0.00  0.00    -0.217 OA
ATOM      9  O   UNL d   1     -49.450  12.599  21.858  0.00  0.00    -0.217 OA
ATOM     10  O   UNL d   1     -48.569  15.565  23.108  0.00  0.00    -0.267 OA
ATOM     11  C   UNL d   1     -50.076  12.811  21.609  0.00  0.00     0.013 A 
ATOM     12  C   UNL d   1     -50.596  14.357  21.780  0.00  0.00     0.018 A 
ATOM     13  C   UNL d   1     -50.816  13.029  21.306  0.00  0.00     0.001 A 
ATOM     14  C   UNL d   1     -51.064  13.810  21.400  0.00  0.00     0.002 A 
ATOM     15  H   UNL d   1     -49.907  15.398  22.405  0.00  0.00     0.169 HD
ENDROOT
BRANCH   3  16
ATOM     16  C   UNL d   1     -47.557  13.037  22.907  0.00  0.00     0.013 A 
ATOM     17  C   UNL d   1     -46.832  13.187  22.538  0.00  0.00     0.027 A 
ATOM     18  C   UNL d   1     -46.167  12.747  22.753  0.00  0.00     0.116 A 
ATOM     19  C   UNL d   1     -46.219  12.170  23.323  0.00  0.00     0.116 A 
ATOM     20  C   UNL d   1     -46.945  12.014  23.698  0.00  0.00     0.026 A 
ATOM     21  C   UNL d   1     -47.619  12.447  23.491  0.00  0.00     0.003 A 
BRANCH  18  22
ATOM     22  O   UNL d   1     -45.441  12.898  22.383  0.00  0.00    -0.326 OA
ATOM     23  C   UNL d   1     -45.220  13.668  22.189  0.00  0.00     0.181 C 
ENDBRANCH  18  22
BRANCH  19  24
ATOM     24  O   UNL d   1     -45.546  11.731  23.535  0.00  0.00    -0.326 OA
ATOM     25  C   UNL d   1     -45.611  10.932  23.698  0.00  0.00     0.181 C 
ENDBRANCH  19  24
ENDBRANCH   3  16
TORSDOF 3
ENDMDL
MODEL 4
REMARK VINA RESULT:      -6.4      1.597      4.208
REMARK  3 active torsions:
REMARK  status: ('A' for Active; 'I' for Inactive)
REMARK    1  A    between atoms: C_8  and  C_3 
REMARK    2  A    between atoms: O_18  and  C_12 
REMARK    3  A    between atoms: O_19  and  C_13 
ROOT
ATOM      1  S   UNL d   1     -47.173  12.791  22.701  0.00  0.00     0.211 S 
ATOM      2  C   UNL d   1     -46.312  12.909  22.603  0.00  0.00     0.103 A 
ATOM      3  C   UNL d   1     -47.782  13.387  22.738  0.00  0.00     0.093 A 
ATOM      4  N   UNL d   1     -46.262  14.281  22.533  0.00  0.00    -0.321 N 
ATOM      5  C   UNL d   1     -47.062  14.530  22.607  0.00  0.00     0.258 A 
ATOM      6  C   UNL d   1     -45.936  13.631  22.529  0.00  0.00     0.070 A 
ATOM      7  C   UNL d   1     -47.678  14.192  22.689  0.00  0.00     0.072 A 
ATOM      8  O   UNL d   1     -47.660  12.150  22.783  0.00  0.00    -0.217 OA
ATOM      9  O   UNL d   1     -46.579  12.161  22.666  0.00  0.00    -0.217 OA
ATOM     10  O   UNL d   1     -47.158  15.446  22.575  0.00  0.00    -0.267 OA
ATOM     11  C   UNL d   1     -45.879  12.211  22.589  0.00  0.00     0.013 A 
ATOM     12  C   UNL d   1     -45.127  13.661  22.440  0.00  0.00     0.018 A 
ATOM     13  C   UNL d   1     -45.055  12.237  22.499  0.00  0.00     0.001 A 
ATOM     14  C   UNL d   1     -44.690  12.973  22.426  0.00  0.00     0.002 A 
ATOM     15  H   UNL d   1     -45.738  14.916  22.447  0.00  0.00     0.169 HD
ENDROOT
BRANCH   3  16
ATOM     16  C   UNL d   1     -48.561  13.118  22.834  0.00  0.00     0.013 A 
ATOM     17  C   UNL d   1     -49.115  13.220  22.228  0.00  0.00     0.027 A 
ATOM     18  C   UNL d   1     -49.888  12.950  22.332  0.00  0.00     0.116 A 
ATOM     19  C   UNL d   1     -50.108  12.585  23.024  0.00  0.00     0.116 A 
ATOM     20  C   UNL d   1     -49.557  12.479  23.638  0.00  0.00     0.026 A 
ATOM     21  C   UNL d   1     -48.779  12.745  23.546  0.00  0.00     0.003 A 
BRANCH  18  22
ATOM     22  O   UNL d   1     -50.442  13.053  21.724  0.00  0.00    -0.326 OA
ATOM     23  C   UNL d   1     -50.612  13.805  21.434  0.00  0.00     0.181 C 
ENDBRANCH  18  22
BRANCH  19  24
ATOM     24  O   UNL d   1     -50.888  12.315  23.124  0.00  0.00    -0.326 OA
ATOM     25  C   UNL d   1     -51.060  11.759  23.698  0.00  0.00     0.181 C 
ENDBRANCH  19  24
ENDBRANCH   3  16
TORSDOF 3
ENDMDL
