MODEL 1
REMARK VINA RESULT:      28.2      0.000      0.000
REMARK  4 active torsions:
REMARK  status: ('A' for Active; 'I' for Inactive)
REMARK    1  A    between atoms: C_6  and  C_2 
REMARK    2  A    between atoms: O_7  and  C_6 
REMARK    3  A    between atoms: C_8  and  O_7 
REMARK    4  A    between atoms: O_14  and  C_9 
ROOT
ATOM      1  C   UNL d   1     -55.661 -99.294 -44.350  0.00  0.00     0.161 C 
ENDROOT
BRANCH   1   2
ATOM      2  C   UNL d   1     -55.429-100.055 -44.518  0.00  0.00     0.188 A 
ATOM      3  N   UNL d   1     -55.491-100.483 -43.845  0.00  0.00    -0.224 NA
ATOM      4  C   UNL d   1     -55.235-101.292 -44.062  0.00  0.00     0.101 A 
ATOM      5  C   UNL d   1     -55.039-101.295 -44.844  0.00  0.00     0.101 A 
ATOM      6  C   UNL d   1     -55.186-101.992 -43.558  0.00  0.00     0.021 A 
ATOM      7  C   UNL d   1     -54.780-101.998 -45.177  0.00  0.00     0.021 A 
ATOM      8  N   UNL d   1     -55.167-100.488 -45.135  0.00  0.00    -0.224 NA
ATOM      9  C   UNL d   1     -54.711-102.697 -44.756  0.00  0.00     0.002 A 
ATOM     10  C   UNL d   1     -54.907-102.693 -43.974  0.00  0.00     0.002 A 
ENDBRANCH   1   2
BRANCH   1  11
ATOM     11  O   UNL d   1     -56.338 -98.963 -44.719  0.00  0.00    -0.302 OA
BRANCH  11  12
ATOM     12  C   UNL d   1     -57.073 -98.932 -44.323  0.00  0.00     0.100 A 
ATOM     13  C   UNL d   1     -57.774 -99.016 -44.753  0.00  0.00     0.027 A 
ATOM     14  C   UNL d   1     -58.508 -98.989 -44.386  0.00  0.00     0.026 A 
ATOM     15  C   UNL d   1     -58.522 -98.873 -43.564  0.00  0.00     0.094 A 
ATOM     16  C   UNL d   1     -57.822 -98.788 -43.134  0.00  0.00     0.026 A 
ATOM     17  C   UNL d   1     -57.081 -98.816 -43.507  0.00  0.00     0.027 A 
BRANCH  15  18
ATOM     18  O   UNL d   1     -59.257 -98.841 -43.167  0.00  0.00    -0.328 OA
ATOM     19  C   UNL d   1     -59.958 -98.756 -42.504  0.00  0.00     0.181 C 
ENDBRANCH  15  18
ENDBRANCH  11  12
ENDBRANCH   1  11
TORSDOF 4
ENDMDL
