MODEL 1
REMARK VINA RESULT:       1.6      0.000      0.000
REMARK  2 active torsions:
REMARK  status: ('A' for Active; 'I' for Inactive)
REMARK    1  A    between atoms: N_5  and  C_1 
REMARK    2  A    between atoms: C_8  and  C_4 
ROOT
ATOM      1  C   UNL d   1     -41.748-122.201 -52.538  0.00  0.00     0.166 A 
ATOM      2  N   UNL d   1     -41.678-121.964 -53.308  0.00  0.00    -0.225 NA
ATOM      3  N   UNL d   1     -41.624-123.546 -52.995  0.00  0.00    -0.241 NA
ATOM      4  C   UNL d   1     -41.720-123.007 -52.378  0.00  0.00     0.116 A 
ATOM      5  C   UNL d   1     -41.582-122.471 -53.932  0.00  0.00     0.101 A 
ATOM      6  C   UNL d   1     -41.555-123.277 -53.773  0.00  0.00     0.099 A 
ATOM      7  C   UNL d   1     -41.513-122.234 -54.703  0.00  0.00     0.021 A 
ATOM      8  C   UNL d   1     -41.458-123.816 -54.390  0.00  0.00     0.021 A 
ATOM      9  C   UNL d   1     -41.393-123.542 -55.139  0.00  0.00     0.002 A 
ATOM     10  C   UNL d   1     -41.421-122.736 -55.298  0.00  0.00     0.002 A 
ENDROOT
BRANCH   1  11
ATOM     11  N   UNL d   1     -41.843-121.694 -51.916  0.00  0.00    -0.284 N 
ATOM     12  C   UNL d   1     -41.180-121.271 -51.655  0.00  0.00     0.108 A 
ATOM     13  C   UNL d   1     -41.272-120.742 -51.010  0.00  0.00     0.142 A 
ATOM     14  O   UNL d   1     -42.007-120.657 -50.656  0.00  0.00    -0.300 OA
ATOM     15  C   UNL d   1     -42.651-121.082 -50.927  0.00  0.00     0.142 A 
ATOM     16  C   UNL d   1     -42.590-121.609 -51.560  0.00  0.00     0.108 A 
ENDBRANCH   1  11
BRANCH   4  17
ATOM     17  C   UNL d   1     -41.789-123.276 -51.603  0.00  0.00     0.021 A 
ATOM     18  C   UNL d   1     -41.123-123.306 -51.116  0.00  0.00     0.002 A 
ATOM     19  C   UNL d   1     -41.191-123.575 -50.338  0.00  0.00     0.000 A 
ATOM     20  C   UNL d   1     -41.925-123.816 -50.048  0.00  0.00     0.000 A 
ATOM     21  C   UNL d   1     -42.591-123.786 -50.535  0.00  0.00     0.000 A 
ATOM     22  C   UNL d   1     -42.523-123.516 -51.313  0.00  0.00     0.002 A 
ENDBRANCH   4  17
TORSDOF 2
ENDMDL
MODEL 2
REMARK VINA RESULT:       2.3      2.082      4.399
REMARK  2 active torsions:
REMARK  status: ('A' for Active; 'I' for Inactive)
REMARK    1  A    between atoms: N_5  and  C_1 
REMARK    2  A    between atoms: C_8  and  C_4 
ROOT
ATOM      1  C   UNL d   1     -42.581-122.803 -49.380  0.00  0.00     0.166 A 
ATOM      2  N   UNL d   1     -42.794-122.829 -48.600  0.00  0.00    -0.225 NA
ATOM      3  N   UNL d   1     -41.368-123.460 -49.018  0.00  0.00    -0.241 NA
ATOM      4  C   UNL d   1     -41.855-123.125 -49.592  0.00  0.00     0.116 A 
ATOM      5  C   UNL d   1     -42.335-123.152 -48.015  0.00  0.00     0.101 A 
ATOM      6  C   UNL d   1     -41.609-123.474 -48.228  0.00  0.00     0.099 A 
ATOM      7  C   UNL d   1     -42.548-123.178 -47.234  0.00  0.00     0.021 A 
ATOM      8  C   UNL d   1     -41.123-123.810 -47.652  0.00  0.00     0.021 A 
ATOM      9  C   UNL d   1     -41.369-123.816 -46.890  0.00  0.00     0.002 A 
ATOM     10  C   UNL d   1     -42.095-123.494 -46.678  0.00  0.00     0.002 A 
ENDROOT
BRANCH   1  11
ATOM     11  N   UNL d   1     -43.039-122.481 -49.962  0.00  0.00    -0.284 N 
ATOM     12  C   UNL d   1     -43.699-122.910 -50.219  0.00  0.00     0.108 A 
ATOM     13  C   UNL d   1     -44.179-122.581 -50.824  0.00  0.00     0.142 A 
ATOM     14  O   UNL d   1     -43.986-121.850 -51.142  0.00  0.00    -0.300 OA
ATOM     15  C   UNL d   1     -43.330-121.439 -50.877  0.00  0.00     0.142 A 
ATOM     16  C   UNL d   1     -42.840-121.740 -50.283  0.00  0.00     0.108 A 
ENDBRANCH   1  11
BRANCH   4  17
ATOM     17  C   UNL d   1     -41.613-123.112 -50.380  0.00  0.00     0.021 A 
ATOM     18  C   UNL d   1     -41.620-123.807 -50.825  0.00  0.00     0.002 A 
ATOM     19  C   UNL d   1     -41.378-123.795 -51.615  0.00  0.00     0.000 A 
ATOM     20  C   UNL d   1     -41.129-123.088 -51.959  0.00  0.00     0.000 A 
ATOM     21  C   UNL d   1     -41.123-122.392 -51.513  0.00  0.00     0.000 A 
ATOM     22  C   UNL d   1     -41.365-122.405 -50.724  0.00  0.00     0.002 A 
ENDBRANCH   4  17
TORSDOF 2
ENDMDL
MODEL 3
REMARK VINA RESULT:       3.4      1.218      3.291
REMARK  2 active torsions:
REMARK  status: ('A' for Active; 'I' for Inactive)
REMARK    1  A    between atoms: N_5  and  C_1 
REMARK    2  A    between atoms: C_8  and  C_4 
ROOT
ATOM      1  C   UNL d   1     -41.754-122.200 -52.702  0.00  0.00     0.166 A 
ATOM      2  N   UNL d   1     -41.672-121.962 -51.934  0.00  0.00    -0.225 NA
ATOM      3  N   UNL d   1     -41.582-123.542 -52.251  0.00  0.00    -0.241 NA
ATOM      4  C   UNL d   1     -41.708-123.005 -52.863  0.00  0.00     0.116 A 
ATOM      5  C   UNL d   1     -41.547-122.467 -51.313  0.00  0.00     0.101 A 
ATOM      6  C   UNL d   1     -41.501-123.272 -51.474  0.00  0.00     0.099 A 
ATOM      7  C   UNL d   1     -41.465-122.229 -50.543  0.00  0.00     0.021 A 
ATOM      8  C   UNL d   1     -41.375-123.809 -50.860  0.00  0.00     0.021 A 
ATOM      9  C   UNL d   1     -41.299-123.534 -50.112  0.00  0.00     0.002 A 
ATOM     10  C   UNL d   1     -41.345-122.729 -49.951  0.00  0.00     0.002 A 
ENDROOT
BRANCH   1  11
ATOM     11  N   UNL d   1     -41.878-121.695 -53.320  0.00  0.00    -0.284 N 
ATOM     12  C   UNL d   1     -42.647-121.411 -53.442  0.00  0.00     0.108 A 
ATOM     13  C   UNL d   1     -42.783-120.886 -54.082  0.00  0.00     0.142 A 
ATOM     14  O   UNL d   1     -42.159-120.669 -54.568  0.00  0.00    -0.300 OA
ATOM     15  C   UNL d   1     -41.406-120.958 -54.434  0.00  0.00     0.142 A 
ATOM     16  C   UNL d   1     -41.243-121.477 -53.811  0.00  0.00     0.108 A 
ENDBRANCH   1  11
BRANCH   4  17
ATOM     17  C   UNL d   1     -41.788-123.275 -53.637  0.00  0.00     0.021 A 
ATOM     18  C   UNL d   1     -41.123-123.348 -54.120  0.00  0.00     0.002 A 
ATOM     19  C   UNL d   1     -41.202-123.619 -54.897  0.00  0.00     0.000 A 
ATOM     20  C   UNL d   1     -41.948-123.817 -55.189  0.00  0.00     0.000 A 
ATOM     21  C   UNL d   1     -42.614-123.745 -54.706  0.00  0.00     0.000 A 
ATOM     22  C   UNL d   1     -42.534-123.474 -53.930  0.00  0.00     0.002 A 
ENDBRANCH   4  17
TORSDOF 2
ENDMDL
MODEL 4
REMARK VINA RESULT:       3.5      0.818      2.014
REMARK  2 active torsions:
REMARK  status: ('A' for Active; 'I' for Inactive)
REMARK    1  A    between atoms: N_5  and  C_1 
REMARK    2  A    between atoms: C_8  and  C_4 
ROOT
ATOM      1  C   UNL d   1     -41.751-123.057 -52.548  0.00  0.00     0.166 A 
ATOM      2  N   UNL d   1     -41.707-123.555 -53.184  0.00  0.00    -0.225 NA
ATOM      3  N   UNL d   1     -41.657-121.965 -53.460  0.00  0.00    -0.241 NA
ATOM      4  C   UNL d   1     -41.725-122.248 -52.689  0.00  0.00     0.116 A 
ATOM      5  C   UNL d   1     -41.640-123.304 -53.952  0.00  0.00     0.101 A 
ATOM      6  C   UNL d   1     -41.614-122.495 -54.093  0.00  0.00     0.099 A 
ATOM      7  C   UNL d   1     -41.596-123.802 -54.589  0.00  0.00     0.021 A 
ATOM      8  C   UNL d   1     -41.546-122.213 -54.865  0.00  0.00     0.021 A 
ATOM      9  C   UNL d   1     -41.505-122.737 -55.468  0.00  0.00     0.002 A 
ATOM     10  C   UNL d   1     -41.531-123.546 -55.328  0.00  0.00     0.002 A 
ENDROOT
BRANCH   1  11
ATOM     11  N   UNL d   1     -41.818-123.308 -51.783  0.00  0.00    -0.284 N 
ATOM     12  C   UNL d   1     -41.123-123.396 -51.341  0.00  0.00     0.108 A 
ATOM     13  C   UNL d   1     -41.185-123.656 -50.546  0.00  0.00     0.142 A 
ATOM     14  O   UNL d   1     -41.925-123.816 -50.228  0.00  0.00    -0.300 OA
ATOM     15  C   UNL d   1     -42.601-123.724 -50.678  0.00  0.00     0.142 A 
ATOM     16  C   UNL d   1     -42.568-123.469 -51.464  0.00  0.00     0.108 A 
ENDBRANCH   1  11
BRANCH   4  17
ATOM     17  C   UNL d   1     -41.768-121.719 -52.059  0.00  0.00     0.021 A 
ATOM     18  C   UNL d   1     -41.124-121.234 -51.883  0.00  0.00     0.002 A 
ATOM     19  C   UNL d   1     -41.165-120.703 -51.251  0.00  0.00     0.000 A 
ATOM     20  C   UNL d   1     -41.851-120.657 -50.796  0.00  0.00     0.000 A 
ATOM     21  C   UNL d   1     -42.497-121.143 -50.973  0.00  0.00     0.000 A 
ATOM     22  C   UNL d   1     -42.454-121.673 -51.604  0.00  0.00     0.002 A 
ENDBRANCH   4  17
TORSDOF 2
ENDMDL
