MODEL 1
REMARK VINA RESULT:      59.9      0.000      0.000
REMARK  6 active torsions:
REMARK  status: ('A' for Active; 'I' for Inactive)
REMARK    1  A    between atoms: N_5  and  S_1 
REMARK    2  A    between atoms: C_6  and  S_1 
REMARK    3  A    between atoms: C_2  and  C_10 
REMARK       I    between atoms: N_3  and  C_2 
REMARK    4  A    between atoms: C_11  and  N_4 
REMARK    5  A    between atoms: C_17  and  N_5 
REMARK    6  A    between atoms: O_29  and  C_23 
ROOT
ATOM      1  C   UNL d   1     -54.787-101.422 -41.931  0.00  0.00     0.057 A 
ATOM      2  C   UNL d   1     -54.801-100.000 -42.766  0.00  0.00     0.094 A 
ATOM      3  C   UNL d   1     -54.711-100.703 -41.525  0.00  0.00     0.006 A 
ATOM      4  C   UNL d   1     -54.869-101.420 -42.752  0.00  0.00     0.006 A 
ATOM      5  C   UNL d   1     -54.719 -99.995 -41.951  0.00  0.00     0.020 A 
ATOM      6  C   UNL d   1     -54.876-100.720 -43.165  0.00  0.00     0.020 A 
ENDROOT
BRANCH   1   7
ATOM      7  C   UNL d   1     -54.780-102.140 -41.512  0.00  0.00     0.265 C 
ATOM      8  N   UNL d   1     -54.806-102.141 -40.682  0.00  0.00    -0.269 N 
ATOM      9  C   UNL d   1     -54.799-102.847 -40.275  0.00  0.00     0.102 A 
ATOM     10  C   UNL d   1     -54.839-101.427 -40.273  0.00  0.00     0.102 A 
ATOM     11  C   UNL d   1     -54.825-102.847 -39.450  0.00  0.00     0.100 A 
ATOM     12  N   UNL d   1     -54.858-102.133 -39.046  0.00  0.00    -0.301 N 
ATOM     13  C   UNL d   1     -54.864-101.426 -39.455  0.00  0.00     0.100 A 
ATOM     14  O   UNL d   1     -54.748-102.851 -41.923  0.00  0.00    -0.267 OA
BRANCH  12  15
ATOM     15  C   UNL d   1     -54.883-102.130 -38.237  0.00  0.00     0.064 A 
ATOM     16  C   UNL d   1     -54.711-102.820 -37.819  0.00  0.00     0.020 A 
ATOM     17  C   UNL d   1     -54.736-102.820 -37.000  0.00  0.00     0.026 A 
ATOM     18  C   UNL d   1     -54.933-102.131 -36.590  0.00  0.00     0.094 A 
ATOM     19  C   UNL d   1     -55.104-101.441 -37.019  0.00  0.00     0.026 A 
ATOM     20  C   UNL d   1     -55.078-101.447 -37.831  0.00  0.00     0.020 A 
BRANCH  18  21
ATOM     21  O   UNL d   1     -54.958-102.131 -35.770  0.00  0.00    -0.328 OA
ATOM     22  C   UNL d   1     -54.884-101.421 -35.361  0.00  0.00     0.181 C 
ENDBRANCH  18  21
ENDBRANCH  12  15
ENDBRANCH   1   7
BRANCH   2  23
ATOM     23  N   UNL d   1     -54.807 -99.294 -43.174  0.00  0.00    -0.158 NA
BRANCH  23  24
ATOM     24  S   UNL d   1     -55.344 -99.166 -43.789  0.00  0.00     0.285 S 
ATOM     25  O   UNL d   1     -54.721 -99.114 -44.318  0.00  0.00    -0.198 OA
ATOM     26  O   UNL d   1     -55.960 -99.221 -43.248  0.00  0.00    -0.198 OA
BRANCH  24  27
ATOM     27  C   UNL d   1     -55.883 -99.040 -44.392  0.00  0.00     0.107 A 
ATOM     28  C   UNL d   1     -56.684 -99.005 -44.230  0.00  0.00     0.043 A 
ATOM     29  C   UNL d   1     -57.229 -98.877 -44.841  0.00  0.00     0.141 A 
ATOM     30  F   UNL d   1     -58.045 -98.840 -44.681  0.00  0.00    -0.204 F 
ATOM     31  C   UNL d   1     -56.960 -98.786 -45.617  0.00  0.00     0.030 A 
ATOM     32  C   UNL d   1     -56.146 -98.823 -45.782  0.00  0.00     0.003 A 
ATOM     33  C   UNL d   1     -55.610 -98.950 -45.166  0.00  0.00     0.013 A 
ENDBRANCH  24  27
ENDBRANCH  23  24
ENDBRANCH   2  23
TORSDOF 6
ENDMDL
