MODEL 1
REMARK VINA RESULT:      -3.3      0.000      0.000
REMARK  9 active torsions:
REMARK  status: ('A' for Active; 'I' for Inactive)
REMARK    1  A    between atoms: N_4  and  C_1 
REMARK       I    between atoms: C_7  and  N_4 
REMARK    2  A    between atoms: C_13  and  C_7 
REMARK    3  A    between atoms: C_8  and  C_14 
REMARK    4  A    between atoms: O_12  and  C_8 
REMARK    5  A    between atoms: S_11  and  C_13 
REMARK    6  A    between atoms: C_14  and  S_11 
REMARK    7  A    between atoms: C_16  and  O_12 
REMARK    8  A    between atoms: C_17  and  C_16 
REMARK    9  A    between atoms: C_18  and  C_17 
ROOT
ATOM      1  C   UNL d   1      58.536  -0.455  29.676  0.00  0.00     0.127 C 
ENDROOT
BRANCH   1   2
ATOM      2  S   UNL d   1      58.246   0.074  30.239  0.00  0.00    -0.089 SA
BRANCH   2   3
ATOM      3  C   UNL d   1      57.694  -0.180  30.797  0.00  0.00     0.103 C 
BRANCH   3   4
ATOM      4  C   UNL d   1      57.539   0.277  31.461  0.00  0.00     0.307 C 
ATOM      5  O   UNL d   1      58.149   0.667  31.846  0.00  0.00    -0.258 OA
BRANCH   4   6
ATOM      6  O   UNL d   1      56.771   0.341  31.736  0.00  0.00    -0.271 OA
BRANCH   6   7
ATOM      7  C   UNL d   1      56.597   0.187  32.527  0.00  0.00     0.126 C 
BRANCH   7   8
ATOM      8  C   UNL d   1      55.894   0.467  32.857  0.00  0.00     0.027 C 
BRANCH   8   9
ATOM      9  C   UNL d   1      55.521   0.039  33.456  0.00  0.00     0.002 C 
ATOM     10  C   UNL d   1      54.848   0.327  33.810  0.00  0.00     0.000 C 
ENDBRANCH   8   9
ENDBRANCH   7   8
ENDBRANCH   6   7
ENDBRANCH   4   6
ENDBRANCH   3   4
ENDBRANCH   2   3
ENDBRANCH   1   2
BRANCH   1  11
ATOM     11  C   UNL d   1      58.831  -0.175  28.958  0.00  0.00     0.275 C 
ATOM     12  N   UNL d   1      59.226  -0.684  28.455  0.00  0.00    -0.187 NA
ATOM     13  O   UNL d   1      58.725   0.616  28.750  0.00  0.00    -0.266 OA
BRANCH  12  14
ATOM     14  C   UNL d   1      59.332  -1.476  28.663  0.00  0.00     0.194 A 
ATOM     15  N   UNL d   1      58.746  -2.057  28.661  0.00  0.00    -0.107 NA
ATOM     16  O   UNL d   1      59.095  -2.762  28.906  0.00  0.00    -0.210 OA
ATOM     17  C   UNL d   1      59.884  -2.631  29.060  0.00  0.00     0.128 A 
ATOM     18  C   UNL d   1      60.038  -1.833  28.911  0.00  0.00     0.068 A 
ATOM     19  C   UNL d   1      60.433  -3.202  29.320  0.00  0.00     0.029 C 
ENDBRANCH  12  14
ENDBRANCH   1  11
TORSDOF 9
ENDMDL
MODEL 2
REMARK VINA RESULT:      -2.9      2.425      5.279
REMARK  9 active torsions:
REMARK  status: ('A' for Active; 'I' for Inactive)
REMARK    1  A    between atoms: N_4  and  C_1 
REMARK       I    between atoms: C_7  and  N_4 
REMARK    2  A    between atoms: C_13  and  C_7 
REMARK    3  A    between atoms: C_8  and  C_14 
REMARK    4  A    between atoms: O_12  and  C_8 
REMARK    5  A    between atoms: S_11  and  C_13 
REMARK    6  A    between atoms: C_14  and  S_11 
REMARK    7  A    between atoms: C_16  and  O_12 
REMARK    8  A    between atoms: C_17  and  C_16 
REMARK    9  A    between atoms: C_18  and  C_17 
ROOT
ATOM      1  C   UNL d   1      56.852  -0.423  32.028  0.00  0.00     0.127 C 
ENDROOT
BRANCH   1   2
ATOM      2  S   UNL d   1      57.138  -0.248  31.274  0.00  0.00    -0.089 SA
BRANCH   2   3
ATOM      3  C   UNL d   1      57.837   0.182  31.188  0.00  0.00     0.103 C 
BRANCH   3   4
ATOM      4  C   UNL d   1      58.052   0.479  30.453  0.00  0.00     0.307 C 
ATOM      5  O   UNL d   1      57.481   0.613  29.880  0.00  0.00    -0.258 OA
BRANCH   4   6
ATOM      6  O   UNL d   1      58.839   0.638  30.298  0.00  0.00    -0.271 OA
BRANCH   6   7
ATOM      7  C   UNL d   1      59.120   0.633  29.522  0.00  0.00     0.126 C 
BRANCH   7   8
ATOM      8  C   UNL d   1      59.931   0.682  29.377  0.00  0.00     0.027 C 
BRANCH   8   9
ATOM      9  C   UNL d   1      60.246   0.361  28.685  0.00  0.00     0.002 C 
ATOM     10  C   UNL d   1      60.895  -0.127  28.715  0.00  0.00     0.000 C 
ENDBRANCH   8   9
ENDBRANCH   7   8
ENDBRANCH   6   7
ENDBRANCH   4   6
ENDBRANCH   3   4
ENDBRANCH   2   3
ENDBRANCH   1   2
BRANCH   1  11
ATOM     11  C   UNL d   1      56.479  -1.145  32.172  0.00  0.00     0.275 C 
ATOM     12  N   UNL d   1      55.899  -1.195  32.745  0.00  0.00    -0.187 NA
ATOM     13  O   UNL d   1      56.694  -1.813  31.737  0.00  0.00    -0.266 OA
BRANCH  12  14
ATOM     14  C   UNL d   1      55.684  -0.527  33.179  0.00  0.00     0.194 A 
ATOM     15  N   UNL d   1      55.356   0.163  32.871  0.00  0.00    -0.107 NA
ATOM     16  O   UNL d   1      55.231   0.682  33.499  0.00  0.00    -0.210 OA
ATOM     17  C   UNL d   1      55.475   0.327  34.191  0.00  0.00     0.128 A 
ATOM     18  C   UNL d   1      55.758  -0.425  33.998  0.00  0.00     0.068 A 
ATOM     19  C   UNL d   1      55.442   0.666  34.951  0.00  0.00     0.029 C 
ENDBRANCH  12  14
ENDBRANCH   1  11
TORSDOF 9
ENDMDL
MODEL 3
REMARK VINA RESULT:      -1.4      8.500     10.167
REMARK  9 active torsions:
REMARK  status: ('A' for Active; 'I' for Inactive)
REMARK    1  A    between atoms: N_4  and  C_1 
REMARK       I    between atoms: C_7  and  N_4 
REMARK    2  A    between atoms: C_13  and  C_7 
REMARK    3  A    between atoms: C_8  and  C_14 
REMARK    4  A    between atoms: O_12  and  C_8 
REMARK    5  A    between atoms: S_11  and  C_13 
REMARK    6  A    between atoms: C_14  and  S_11 
REMARK    7  A    between atoms: C_16  and  O_12 
REMARK    8  A    between atoms: C_17  and  C_16 
REMARK    9  A    between atoms: C_18  and  C_17 
ROOT
ATOM      1  C   UNL d   1      59.812  -8.897  34.886  0.00  0.00     0.127 C 
ENDROOT
BRANCH   1   2
ATOM      2  S   UNL d   1      59.816  -9.479  34.302  0.00  0.00    -0.089 SA
BRANCH   2   3
ATOM      3  C   UNL d   1      60.053  -9.291  33.534  0.00  0.00     0.103 C 
BRANCH   3   4
ATOM      4  C   UNL d   1      59.582  -9.498  32.894  0.00  0.00     0.307 C 
ATOM      5  O   UNL d   1      58.772  -9.589  32.991  0.00  0.00    -0.258 OA
BRANCH   4   6
ATOM      6  O   UNL d   1      59.925  -9.611  32.161  0.00  0.00    -0.271 OA
BRANCH   6   7
ATOM      7  C   UNL d   1      59.457  -9.782  31.503  0.00  0.00     0.126 C 
BRANCH   7   8
ATOM      8  C   UNL d   1      59.797  -9.810  30.752  0.00  0.00     0.027 C 
BRANCH   8   9
ATOM      9  C   UNL d   1      59.317  -9.771  30.081  0.00  0.00     0.002 C 
ATOM     10  C   UNL d   1      59.534  -9.313  29.444  0.00  0.00     0.000 C 
ENDBRANCH   8   9
ENDBRANCH   7   8
ENDBRANCH   6   7
ENDBRANCH   4   6
ENDBRANCH   3   4
ENDBRANCH   2   3
ENDBRANCH   1   2
BRANCH   1  11
ATOM     11  C   UNL d   1      59.529  -9.070  35.642  0.00  0.00     0.275 C 
ATOM     12  N   UNL d   1      59.619  -8.526  36.244  0.00  0.00    -0.187 NA
ATOM     13  O   UNL d   1      59.156  -9.792  35.786  0.00  0.00    -0.266 OA
BRANCH  12  14
ATOM     14  C   UNL d   1      59.992  -7.804  36.100  0.00  0.00     0.194 A 
ATOM     15  N   UNL d   1      60.749  -7.706  35.788  0.00  0.00    -0.107 NA
ATOM     16  O   UNL d   1      60.895  -6.897  35.739  0.00  0.00    -0.210 OA
ATOM     17  C   UNL d   1      60.244  -6.490  36.013  0.00  0.00     0.128 A 
ATOM     18  C   UNL d   1      59.679  -7.049  36.239  0.00  0.00     0.068 A 
ATOM     19  C   UNL d   1      60.168  -5.661  36.055  0.00  0.00     0.029 C 
ENDBRANCH  12  14
ENDBRANCH   1  11
TORSDOF 9
ENDMDL
