MODEL 1
REMARK VINA RESULT:      -9.1      0.000      0.000
REMARK  5 active torsions:
REMARK  status: ('A' for Active; 'I' for Inactive)
REMARK    1  A    between atoms: C_12  and  C_4 
REMARK    2  A    between atoms: S_10  and  C_5 
REMARK    3  A    between atoms: C_15  and  S_10 
REMARK    4  A    between atoms: C_11  and  C_15 
REMARK       I    between atoms: N_13  and  C_11 
REMARK    5  A    between atoms: C_16  and  N_13 
ROOT
ATOM      1  N   UNL d   1      51.700  34.277  53.475  0.00  0.00    -0.206 N 
ATOM      2  C   UNL d   1      52.392  33.888  53.703  0.00  0.00     0.166 A 
ATOM      3  N   UNL d   1      52.177  35.460  54.067  0.00  0.00    -0.163 NA
ATOM      4  C   UNL d   1      52.972  34.281  54.109  0.00  0.00     0.055 A 
ATOM      5  C   UNL d   1      51.135  33.867  53.072  0.00  0.00     0.116 A 
ATOM      6  C   UNL d   1      52.858  35.077  54.291  0.00  0.00     0.104 A 
ATOM      7  N   UNL d   1      52.500  33.099  53.520  0.00  0.00    -0.227 NA
ATOM      8  C   UNL d   1      51.227  33.080  52.881  0.00  0.00     0.045 A 
ATOM      9  C   UNL d   1      51.915  32.693  53.107  0.00  0.00     0.085 A 
ATOM     10  C   UNL d   1      53.437  35.466  54.695  0.00  0.00     0.023 C 
ATOM     11  C   UNL d   1      52.028  31.869  52.917  0.00  0.00     0.021 C 
ENDROOT
BRANCH   5  12
ATOM     12  S   UNL d   1      50.422  34.269  52.838  0.00  0.00    -0.062 SA
BRANCH  12  13
ATOM     13  C   UNL d   1      49.952  34.467  52.173  0.00  0.00     0.099 C 
BRANCH  13  14
ATOM     14  C   UNL d   1      49.207  34.845  52.281  0.00  0.00     0.286 C 
ATOM     15  N   UNL d   1      48.750  35.096  51.612  0.00  0.00    -0.208 NA
ATOM     16  O   UNL d   1      48.909  34.978  53.061  0.00  0.00    -0.265 OA
BRANCH  15  17
ATOM     17  C   UNL d   1      48.005  35.474  51.726  0.00  0.00     0.085 A 
ATOM     18  C   UNL d   1      47.966  36.196  52.160  0.00  0.00     0.022 A 
ATOM     19  C   UNL d   1      47.207  36.575  52.272  0.00  0.00     0.044 A 
ATOM     20  C   UNL d   1      46.513  36.229  51.953  0.00  0.00     0.196 A 
ATOM     21  C   UNL d   1      46.553  35.507  51.519  0.00  0.00     0.044 A 
ATOM     22  O   UNL d   1      45.769  36.607  52.067  0.00  0.00    -0.287 OA
ATOM     23  C   UNL d   1      47.303  35.129  51.406  0.00  0.00     0.022 A 
ENDBRANCH  15  17
ENDBRANCH  13  14
ENDBRANCH  12  13
ENDBRANCH   5  12
BRANCH   4  24
ATOM     24  C   UNL d   1      53.653  33.898  54.333  0.00  0.00     0.004 A 
ATOM     25  C   UNL d   1      54.278  33.855  53.827  0.00  0.00     0.000 A 
ATOM     26  C   UNL d   1      54.959  33.472  54.051  0.00  0.00     0.000 A 
ATOM     27  C   UNL d   1      55.015  33.132  54.780  0.00  0.00     0.000 A 
ATOM     28  C   UNL d   1      54.370  33.179  55.293  0.00  0.00     0.000 A 
ATOM     29  C   UNL d   1      53.705  33.559  55.062  0.00  0.00     0.000 A 
ENDBRANCH   4  24
TORSDOF 5
ENDMDL
MODEL 2
REMARK VINA RESULT:      -8.4      1.685      6.199
REMARK  5 active torsions:
REMARK  status: ('A' for Active; 'I' for Inactive)
REMARK    1  A    between atoms: C_12  and  C_4 
REMARK    2  A    between atoms: S_10  and  C_5 
REMARK    3  A    between atoms: C_15  and  S_10 
REMARK    4  A    between atoms: C_11  and  C_15 
REMARK       I    between atoms: N_13  and  C_11 
REMARK    5  A    between atoms: C_16  and  N_13 
ROOT
ATOM      1  N   UNL d   1      49.128  35.206  52.891  0.00  0.00    -0.206 N 
ATOM      2  C   UNL d   1      48.375  35.361  52.589  0.00  0.00     0.166 A 
ATOM      3  N   UNL d   1      48.818  35.957  54.039  0.00  0.00    -0.163 NA
ATOM      4  C   UNL d   1      47.848  35.810  53.009  0.00  0.00     0.055 A 
ATOM      5  C   UNL d   1      49.638  34.756  52.457  0.00  0.00     0.116 A 
ATOM      6  C   UNL d   1      48.078  36.109  53.742  0.00  0.00     0.104 A 
ATOM      7  N   UNL d   1      48.153  35.063  51.863  0.00  0.00    -0.227 NA
ATOM      8  C   UNL d   1      49.432  34.451  51.730  0.00  0.00     0.045 A 
ATOM      9  C   UNL d   1      48.683  34.605  51.430  0.00  0.00     0.085 A 
ATOM     10  C   UNL d   1      47.551  36.556  54.157  0.00  0.00     0.023 C 
ATOM     11  C   UNL d   1      48.451  34.293  50.672  0.00  0.00     0.021 C 
ENDROOT
BRANCH   5  12
ATOM     12  S   UNL d   1      50.414  34.596  52.768  0.00  0.00    -0.062 SA
BRANCH  12  13
ATOM     13  C   UNL d   1      51.196  34.390  52.547  0.00  0.00     0.099 C 
BRANCH  13  14
ATOM     14  C   UNL d   1      51.724  34.069  53.118  0.00  0.00     0.286 C 
ATOM     15  N   UNL d   1      52.546  34.279  53.109  0.00  0.00    -0.208 NA
ATOM     16  O   UNL d   1      51.439  33.535  53.708  0.00  0.00    -0.265 OA
BRANCH  15  17
ATOM     17  C   UNL d   1      53.073  33.956  53.684  0.00  0.00     0.085 A 
ATOM     18  C   UNL d   1      53.234  34.387  54.390  0.00  0.00     0.022 A 
ATOM     19  C   UNL d   1      53.768  34.055  54.969  0.00  0.00     0.044 A 
ATOM     20  C   UNL d   1      54.125  33.308  54.833  0.00  0.00     0.196 A 
ATOM     21  C   UNL d   1      53.963  32.877  54.126  0.00  0.00     0.044 A 
ATOM     22  O   UNL d   1      54.651  32.986  55.407  0.00  0.00    -0.287 OA
ATOM     23  C   UNL d   1      53.434  33.204  53.551  0.00  0.00     0.022 A 
ENDBRANCH  15  17
ENDBRANCH  13  14
ENDBRANCH  12  13
ENDBRANCH   5  12
BRANCH   4  24
ATOM     24  C   UNL d   1      47.107  35.963  52.712  0.00  0.00     0.004 A 
ATOM     25  C   UNL d   1      47.000  36.553  52.175  0.00  0.00     0.000 A 
ATOM     26  C   UNL d   1      46.259  36.706  51.878  0.00  0.00     0.000 A 
ATOM     27  C   UNL d   1      45.625  36.269  52.119  0.00  0.00     0.000 A 
ATOM     28  C   UNL d   1      45.742  35.666  52.670  0.00  0.00     0.000 A 
ATOM     29  C   UNL d   1      46.476  35.525  52.955  0.00  0.00     0.000 A 
ENDBRANCH   4  24
TORSDOF 5
ENDMDL
MODEL 3
REMARK VINA RESULT:      -6.7      1.979      3.348
REMARK  5 active torsions:
REMARK  status: ('A' for Active; 'I' for Inactive)
REMARK    1  A    between atoms: C_12  and  C_4 
REMARK    2  A    between atoms: S_10  and  C_5 
REMARK    3  A    between atoms: C_15  and  S_10 
REMARK    4  A    between atoms: C_11  and  C_15 
REMARK       I    between atoms: N_13  and  C_11 
REMARK    5  A    between atoms: C_16  and  N_13 
ROOT
ATOM      1  N   UNL d   1      52.900  32.184  53.333  0.00  0.00    -0.206 N 
ATOM      2  C   UNL d   1      53.209  31.528  53.729  0.00  0.00     0.166 A 
ATOM      3  N   UNL d   1      52.336  31.329  52.369  0.00  0.00    -0.163 NA
ATOM      4  C   UNL d   1      53.083  30.780  53.448  0.00  0.00     0.055 A 
ATOM      5  C   UNL d   1      53.037  32.921  53.630  0.00  0.00     0.116 A 
ATOM      6  C   UNL d   1      52.640  30.685  52.759  0.00  0.00     0.104 A 
ATOM      7  N   UNL d   1      53.647  31.628  54.411  0.00  0.00    -0.227 NA
ATOM      8  C   UNL d   1      53.472  33.038  54.309  0.00  0.00     0.045 A 
ATOM      9  C   UNL d   1      53.780  32.387  54.703  0.00  0.00     0.085 A 
ATOM     10  C   UNL d   1      52.517  29.938  52.481  0.00  0.00     0.023 C 
ATOM     11  C   UNL d   1      54.237  32.491  55.415  0.00  0.00     0.021 C 
ENDROOT
BRANCH   5  12
ATOM     12  S   UNL d   1      52.718  33.596  53.222  0.00  0.00    -0.062 SA
BRANCH  12  13
ATOM     13  C   UNL d   1      52.254  34.287  53.328  0.00  0.00     0.099 C 
BRANCH  13  14
ATOM     14  C   UNL d   1      51.603  34.439  52.816  0.00  0.00     0.286 C 
ATOM     15  N   UNL d   1      50.807  34.340  53.091  0.00  0.00    -0.208 NA
ATOM     16  O   UNL d   1      51.738  34.693  52.021  0.00  0.00    -0.265 OA
BRANCH  15  17
ATOM     17  C   UNL d   1      50.157  34.494  52.575  0.00  0.00     0.085 A 
ATOM     18  C   UNL d   1      49.561  35.042  52.808  0.00  0.00     0.022 A 
ATOM     19  C   UNL d   1      48.905  35.194  52.281  0.00  0.00     0.044 A 
ATOM     20  C   UNL d   1      48.860  34.800  51.542  0.00  0.00     0.196 A 
ATOM     21  C   UNL d   1      49.456  34.252  51.310  0.00  0.00     0.044 A 
ATOM     22  O   UNL d   1      48.211  34.954  51.027  0.00  0.00    -0.287 OA
ATOM     23  C   UNL d   1      50.107  34.099  51.830  0.00  0.00     0.022 A 
ENDBRANCH  15  17
ENDBRANCH  13  14
ENDBRANCH  12  13
ENDBRANCH   5  12
BRANCH   4  24
ATOM     24  C   UNL d   1      53.388  30.135  53.838  0.00  0.00     0.004 A 
ATOM     25  C   UNL d   1      54.112  29.845  53.636  0.00  0.00     0.000 A 
ATOM     26  C   UNL d   1      54.416  29.200  54.026  0.00  0.00     0.000 A 
ATOM     27  C   UNL d   1      53.998  28.845  54.617  0.00  0.00     0.000 A 
ATOM     28  C   UNL d   1      53.256  29.148  54.818  0.00  0.00     0.000 A 
ATOM     29  C   UNL d   1      52.967  29.783  54.427  0.00  0.00     0.000 A 
ENDBRANCH   4  24
TORSDOF 5
ENDMDL
MODEL 4
REMARK VINA RESULT:      -6.2      1.632      6.506
REMARK  5 active torsions:
REMARK  status: ('A' for Active; 'I' for Inactive)
REMARK    1  A    between atoms: C_12  and  C_4 
REMARK    2  A    between atoms: S_10  and  C_5 
REMARK    3  A    between atoms: C_15  and  S_10 
REMARK    4  A    between atoms: C_11  and  C_15 
REMARK       I    between atoms: N_13  and  C_11 
REMARK    5  A    between atoms: C_16  and  N_13 
ROOT
ATOM      1  N   UNL d   1      48.625  35.066  52.362  0.00  0.00    -0.206 N 
ATOM      2  C   UNL d   1      47.880  35.406  52.469  0.00  0.00     0.166 A 
ATOM      3  N   UNL d   1      48.206  34.549  51.123  0.00  0.00    -0.163 NA
ATOM      4  C   UNL d   1      47.303  35.318  51.908  0.00  0.00     0.055 A 
ATOM      5  C   UNL d   1      49.185  35.165  52.933  0.00  0.00     0.116 A 
ATOM      6  C   UNL d   1      47.474  34.883  51.228  0.00  0.00     0.104 A 
ATOM      7  N   UNL d   1      47.716  35.835  53.144  0.00  0.00    -0.227 NA
ATOM      8  C   UNL d   1      49.038  35.591  53.613  0.00  0.00     0.045 A 
ATOM      9  C   UNL d   1      48.298  35.929  53.719  0.00  0.00     0.085 A 
ATOM     10  C   UNL d   1      46.897  34.798  50.672  0.00  0.00     0.023 C 
ATOM     11  C   UNL d   1      48.127  36.377  54.423  0.00  0.00     0.021 C 
ENDROOT
BRANCH   5  12
ATOM     12  S   UNL d   1      49.953  34.814  52.823  0.00  0.00    -0.062 SA
BRANCH  12  13
ATOM     13  C   UNL d   1      50.354  34.080  52.768  0.00  0.00     0.099 C 
BRANCH  13  14
ATOM     14  C   UNL d   1      51.175  34.034  52.948  0.00  0.00     0.286 C 
ATOM     15  N   UNL d   1      51.482  33.379  53.391  0.00  0.00    -0.208 NA
ATOM     16  O   UNL d   1      51.701  34.642  52.688  0.00  0.00    -0.265 OA
BRANCH  15  17
ATOM     17  C   UNL d   1      52.306  33.337  53.569  0.00  0.00     0.085 A 
ATOM     18  C   UNL d   1      52.794  32.788  53.156  0.00  0.00     0.022 A 
ATOM     19  C   UNL d   1      53.628  32.749  53.341  0.00  0.00     0.044 A 
ATOM     20  C   UNL d   1      53.952  33.254  53.927  0.00  0.00     0.196 A 
ATOM     21  C   UNL d   1      53.464  33.803  54.339  0.00  0.00     0.044 A 
ATOM     22  O   UNL d   1      54.775  33.212  54.105  0.00  0.00    -0.287 OA
ATOM     23  C   UNL d   1      52.637  33.844  54.159  0.00  0.00     0.022 A 
ENDBRANCH  15  17
ENDBRANCH  13  14
ENDBRANCH  12  13
ENDBRANCH   5  12
BRANCH   4  24
ATOM     24  C   UNL d   1      46.569  35.653  52.013  0.00  0.00     0.004 A 
ATOM     25  C   UNL d   1      46.406  36.375  51.697  0.00  0.00     0.000 A 
ATOM     26  C   UNL d   1      45.672  36.709  51.803  0.00  0.00     0.000 A 
ATOM     27  C   UNL d   1      45.103  36.322  52.223  0.00  0.00     0.000 A 
ATOM     28  C   UNL d   1      45.278  35.581  52.543  0.00  0.00     0.000 A 
ATOM     29  C   UNL d   1      46.004  35.262  52.433  0.00  0.00     0.000 A 
ENDBRANCH   4  24
TORSDOF 5
ENDMDL
