MODEL 1
REMARK VINA RESULT:       4.1      0.000      0.000
REMARK  8 active torsions:
REMARK  status: ('A' for Active; 'I' for Inactive)
REMARK    1  A    between atoms: C_8  and  N_1 
REMARK    2  A    between atoms: C_7  and  N_3 
REMARK    3  A    between atoms: C_11  and  C_7 
REMARK    4  A    between atoms: C_20  and  C_8 
REMARK    5  A    between atoms: C_9  and  C_13 
REMARK       I    between atoms: N_16  and  C_9 
REMARK    6  A    between atoms: C_24  and  N_16 
REMARK    7  A    between atoms: C_27  and  C_24 
REMARK    8  A    between atoms: C_25  and  C_27 
ROOT
ATOM      1  N   UNL d   1      31.697  17.642 -24.475  0.00  0.00    -0.226 N 
ATOM      2  C   UNL d   1      30.916  17.607 -24.212  0.00  0.00     0.342 A 
ATOM      3  N   UNL d   1      30.696  17.052 -23.645  0.00  0.00    -0.259 N 
ATOM      4  C   UNL d   1      32.266  17.122 -24.173  0.00  0.00     0.270 A 
ATOM      5  C   UNL d   1      32.038  16.567 -23.603  0.00  0.00     0.073 A 
ATOM      6  C   UNL d   1      31.257  16.532 -23.341  0.00  0.00     0.073 A 
ATOM      7  O   UNL d   1      30.347  18.136 -24.523  0.00  0.00    -0.245 OA
ATOM      8  O   UNL d   1      33.040  17.157 -24.432  0.00  0.00    -0.266 OA
ATOM      9  C   UNL d   1      32.607  16.048 -23.301  0.00  0.00     0.006 A 
ATOM     10  C   UNL d   1      31.037  15.977 -22.773  0.00  0.00     0.018 A 
ATOM     11  C   UNL d   1      32.380  15.489 -22.729  0.00  0.00     0.000 A 
ATOM     12  C   UNL d   1      31.599  15.454 -22.466  0.00  0.00     0.002 A 
ENDROOT
BRANCH   1  13
ATOM     13  C   UNL d   1      31.922  18.207 -25.052  0.00  0.00     0.087 C 
BRANCH  13  14
ATOM     14  C   UNL d   1      32.158  18.955 -24.824  0.00  0.00     0.018 A 
ATOM     15  C   UNL d   1      32.877  19.258 -25.087  0.00  0.00     0.002 A 
ATOM     16  C   UNL d   1      33.118  20.021 -24.855  0.00  0.00     0.005 A 
ATOM     17  C   UNL d   1      32.638  20.473 -24.361  0.00  0.00     0.058 A 
ATOM     18  C   UNL d   1      31.912  20.170 -24.094  0.00  0.00     0.005 A 
ATOM     19  C   UNL d   1      31.672  19.407 -24.327  0.00  0.00     0.002 A 
BRANCH  17  20
ATOM     20  C   UNL d   1      32.876  21.229 -24.131  0.00  0.00     0.279 C 
ATOM     21  O   UNL d   1      33.098  21.782 -24.699  0.00  0.00    -0.265 OA
ATOM     22  N   UNL d   1      32.892  21.430 -23.333  0.00  0.00    -0.206 NA
BRANCH  22  23
ATOM     23  C   UNL d   1      33.131  22.186 -23.103  0.00  0.00     0.102 C 
BRANCH  23  24
ATOM     24  C   UNL d   1      33.237  22.360 -22.305  0.00  0.00     0.021 C 
BRANCH  24  25
ATOM     25  C   UNL d   1      32.634  22.735 -21.877  0.00  0.00     0.002 A 
ATOM     26  C   UNL d   1      32.554  22.591 -21.064  0.00  0.00     0.000 A 
ATOM     27  C   UNL d   1      31.948  22.968 -20.634  0.00  0.00     0.000 A 
ATOM     28  C   UNL d   1      31.428  23.486 -21.022  0.00  0.00     0.000 A 
ATOM     29  C   UNL d   1      31.511  23.627 -21.830  0.00  0.00     0.000 A 
ATOM     30  C   UNL d   1      32.117  23.250 -22.260  0.00  0.00     0.000 A 
ENDBRANCH  24  25
ENDBRANCH  23  24
ENDBRANCH  22  23
ENDBRANCH  17  20
ENDBRANCH  13  14
ENDBRANCH   1  13
BRANCH   3  31
ATOM     31  C   UNL d   1      29.915  17.017 -23.382  0.00  0.00     0.084 C 
BRANCH  31  32
ATOM     32  C   UNL d   1      29.300  16.935 -23.925  0.00  0.00     0.018 A 
ATOM     33  C   UNL d   1      28.610  17.388 -23.843  0.00  0.00     0.001 A 
ATOM     34  C   UNL d   1      28.532  17.932 -23.207  0.00  0.00     0.000 C 
ATOM     35  C   UNL d   1      27.996  17.306 -24.384  0.00  0.00     0.000 A 
ATOM     36  C   UNL d   1      28.068  16.774 -25.009  0.00  0.00     0.000 A 
ATOM     37  C   UNL d   1      28.758  16.321 -25.091  0.00  0.00     0.000 A 
ATOM     38  C   UNL d   1      29.373  16.403 -24.549  0.00  0.00     0.002 A 
ENDBRANCH  31  32
ENDBRANCH   3  31
TORSDOF 8
ENDMDL
MODEL 2
REMARK VINA RESULT:       4.2      1.427      5.832
REMARK  8 active torsions:
REMARK  status: ('A' for Active; 'I' for Inactive)
REMARK    1  A    between atoms: C_8  and  N_1 
REMARK    2  A    between atoms: C_7  and  N_3 
REMARK    3  A    between atoms: C_11  and  C_7 
REMARK    4  A    between atoms: C_20  and  C_8 
REMARK    5  A    between atoms: C_9  and  C_13 
REMARK       I    between atoms: N_16  and  C_9 
REMARK    6  A    between atoms: C_24  and  N_16 
REMARK    7  A    between atoms: C_27  and  C_24 
REMARK    8  A    between atoms: C_25  and  C_27 
ROOT
ATOM      1  N   UNL d   1      33.232  19.455 -23.073  0.00  0.00    -0.226 N 
ATOM      2  C   UNL d   1      33.236  20.036 -22.486  0.00  0.00     0.342 A 
ATOM      3  N   UNL d   1      33.234  20.832 -22.695  0.00  0.00    -0.259 N 
ATOM      4  C   UNL d   1      33.228  19.666 -23.874  0.00  0.00     0.270 A 
ATOM      5  C   UNL d   1      33.226  20.468 -24.075  0.00  0.00     0.073 A 
ATOM      6  C   UNL d   1      33.230  21.048 -23.489  0.00  0.00     0.073 A 
ATOM      7  O   UNL d   1      33.241  19.814 -21.680  0.00  0.00    -0.245 OA
ATOM      8  O   UNL d   1      33.224  19.091 -24.454  0.00  0.00    -0.266 OA
ATOM      9  C   UNL d   1      33.221  20.679 -24.876  0.00  0.00     0.006 A 
ATOM     10  C   UNL d   1      33.228  21.845 -23.698  0.00  0.00     0.018 A 
ATOM     11  C   UNL d   1      33.220  21.485 -25.081  0.00  0.00     0.000 A 
ATOM     12  C   UNL d   1      33.223  22.065 -24.495  0.00  0.00     0.002 A 
ENDROOT
BRANCH   1  13
ATOM     13  C   UNL d   1      33.234  18.644 -22.862  0.00  0.00     0.087 C 
BRANCH  13  14
ATOM     14  C   UNL d   1      32.723  18.123 -23.230  0.00  0.00     0.018 A 
ATOM     15  C   UNL d   1      31.920  18.301 -23.282  0.00  0.00     0.002 A 
ATOM     16  C   UNL d   1      31.400  17.770 -23.657  0.00  0.00     0.005 A 
ATOM     17  C   UNL d   1      31.686  17.067 -23.978  0.00  0.00     0.058 A 
ATOM     18  C   UNL d   1      32.495  16.886 -23.928  0.00  0.00     0.005 A 
ATOM     19  C   UNL d   1      33.016  17.417 -23.552  0.00  0.00     0.002 A 
BRANCH  17  20
ATOM     20  C   UNL d   1      31.170  16.542 -24.350  0.00  0.00     0.279 C 
ATOM     21  O   UNL d   1      31.353  16.243 -25.095  0.00  0.00    -0.265 OA
ATOM     22  N   UNL d   1      30.473  16.315 -23.977  0.00  0.00    -0.206 NA
BRANCH  22  23
ATOM     23  C   UNL d   1      29.957  15.790 -24.349  0.00  0.00     0.102 C 
BRANCH  23  24
ATOM     24  C   UNL d   1      29.191  16.027 -24.538  0.00  0.00     0.021 C 
BRANCH  24  25
ATOM     25  C   UNL d   1      28.614  16.080 -23.946  0.00  0.00     0.002 A 
ATOM     26  C   UNL d   1      28.522  15.459 -23.404  0.00  0.00     0.000 A 
ATOM     27  C   UNL d   1      27.941  15.512 -22.808  0.00  0.00     0.000 A 
ATOM     28  C   UNL d   1      27.459  16.186 -22.761  0.00  0.00     0.000 A 
ATOM     29  C   UNL d   1      27.553  16.801 -23.300  0.00  0.00     0.000 A 
ATOM     30  C   UNL d   1      28.134  16.748 -23.896  0.00  0.00     0.000 A 
ENDBRANCH  24  25
ENDBRANCH  23  24
ENDBRANCH  22  23
ENDBRANCH  17  20
ENDBRANCH  13  14
ENDBRANCH   1  13
BRANCH   3  31
ATOM     31  C   UNL d   1      33.238  21.412 -22.109  0.00  0.00     0.084 C 
BRANCH  31  32
ATOM     32  C   UNL d   1      32.603  21.477 -21.588  0.00  0.00     0.018 A 
ATOM     33  C   UNL d   1      32.384  22.219 -21.289  0.00  0.00     0.001 A 
ATOM     34  C   UNL d   1      32.806  22.909 -21.515  0.00  0.00     0.000 C 
ATOM     35  C   UNL d   1      31.749  22.284 -20.769  0.00  0.00     0.000 A 
ATOM     36  C   UNL d   1      31.332  21.609 -20.545  0.00  0.00     0.000 A 
ATOM     37  C   UNL d   1      31.551  20.867 -20.844  0.00  0.00     0.000 A 
ATOM     38  C   UNL d   1      32.187  20.803 -21.365  0.00  0.00     0.002 A 
ENDBRANCH  31  32
ENDBRANCH   3  31
TORSDOF 8
ENDMDL
MODEL 3
REMARK VINA RESULT:       4.8      1.542      5.904
REMARK  8 active torsions:
REMARK  status: ('A' for Active; 'I' for Inactive)
REMARK    1  A    between atoms: C_8  and  N_1 
REMARK    2  A    between atoms: C_7  and  N_3 
REMARK    3  A    between atoms: C_11  and  C_7 
REMARK    4  A    between atoms: C_20  and  C_8 
REMARK    5  A    between atoms: C_9  and  C_13 
REMARK       I    between atoms: N_16  and  C_9 
REMARK    6  A    between atoms: C_24  and  N_16 
REMARK    7  A    between atoms: C_27  and  C_24 
REMARK    8  A    between atoms: C_25  and  C_27 
ROOT
ATOM      1  N   UNL d   1      33.240  20.355 -22.524  0.00  0.00    -0.226 N 
ATOM      2  C   UNL d   1      33.240  21.167 -22.378  0.00  0.00     0.342 A 
ATOM      3  N   UNL d   1      33.241  21.446 -21.603  0.00  0.00    -0.259 N 
ATOM      4  C   UNL d   1      33.240  19.814 -21.896  0.00  0.00     0.270 A 
ATOM      5  C   UNL d   1      33.240  20.103 -21.121  0.00  0.00     0.073 A 
ATOM      6  C   UNL d   1      33.240  20.915 -20.975  0.00  0.00     0.073 A 
ATOM      7  O   UNL d   1      33.241  21.705 -23.018  0.00  0.00    -0.245 OA
ATOM      8  O   UNL d   1      33.239  19.010 -22.041  0.00  0.00    -0.266 OA
ATOM      9  C   UNL d   1      33.239  19.563 -20.494  0.00  0.00     0.006 A 
ATOM     10  C   UNL d   1      33.240  21.194 -20.201  0.00  0.00     0.018 A 
ATOM     11  C   UNL d   1      33.239  19.850 -19.714  0.00  0.00     0.000 A 
ATOM     12  C   UNL d   1      33.240  20.662 -19.568  0.00  0.00     0.002 A 
ENDROOT
BRANCH   1  13
ATOM     13  C   UNL d   1      33.240  20.068 -23.312  0.00  0.00     0.087 C 
BRANCH  13  14
ATOM     14  C   UNL d   1      32.740  19.459 -23.527  0.00  0.00     0.018 A 
ATOM     15  C   UNL d   1      33.038  18.697 -23.625  0.00  0.00     0.002 A 
ATOM     16  C   UNL d   1      32.529  18.076 -23.844  0.00  0.00     0.005 A 
ATOM     17  C   UNL d   1      31.727  18.221 -23.963  0.00  0.00     0.058 A 
ATOM     18  C   UNL d   1      31.424  18.988 -23.865  0.00  0.00     0.005 A 
ATOM     19  C   UNL d   1      31.933  19.610 -23.646  0.00  0.00     0.002 A 
BRANCH  17  20
ATOM     20  C   UNL d   1      31.222  17.606 -24.180  0.00  0.00     0.279 C 
ATOM     21  O   UNL d   1      31.534  16.901 -24.471  0.00  0.00    -0.265 OA
ATOM     22  N   UNL d   1      30.408  17.695 -24.106  0.00  0.00    -0.206 NA
BRANCH  22  23
ATOM     23  C   UNL d   1      29.903  17.079 -24.323  0.00  0.00     0.102 C 
BRANCH  23  24
ATOM     24  C   UNL d   1      29.102  17.226 -24.448  0.00  0.00     0.021 C 
BRANCH  24  25
ATOM     25  C   UNL d   1      28.531  16.731 -24.108  0.00  0.00     0.002 A 
ATOM     26  C   UNL d   1      28.042  17.020 -23.504  0.00  0.00     0.000 A 
ATOM     27  C   UNL d   1      27.467  16.522 -23.162  0.00  0.00     0.000 A 
ATOM     28  C   UNL d   1      27.389  15.740 -23.427  0.00  0.00     0.000 A 
ATOM     29  C   UNL d   1      27.876  15.456 -24.027  0.00  0.00     0.000 A 
ATOM     30  C   UNL d   1      28.451  15.954 -24.369  0.00  0.00     0.000 A 
ENDBRANCH  24  25
ENDBRANCH  23  24
ENDBRANCH  22  23
ENDBRANCH  17  20
ENDBRANCH  13  14
ENDBRANCH   1  13
BRANCH   3  31
ATOM     31  C   UNL d   1      33.241  22.258 -21.458  0.00  0.00     0.084 C 
BRANCH  31  32
ATOM     32  C   UNL d   1      32.579  22.712 -21.646  0.00  0.00     0.018 A 
ATOM     33  C   UNL d   1      32.257  23.229 -21.084  0.00  0.00     0.001 A 
ATOM     34  C   UNL d   1      32.601  23.295 -20.320  0.00  0.00     0.000 C 
ATOM     35  C   UNL d   1      31.596  23.683 -21.272  0.00  0.00     0.000 A 
ATOM     36  C   UNL d   1      31.256  23.621 -22.020  0.00  0.00     0.000 A 
ATOM     37  C   UNL d   1      31.579  23.104 -22.582  0.00  0.00     0.000 A 
ATOM     38  C   UNL d   1      32.240  22.650 -22.393  0.00  0.00     0.002 A 
ENDBRANCH  31  32
ENDBRANCH   3  31
TORSDOF 8
ENDMDL
MODEL 4
REMARK VINA RESULT:       5.7      1.144      2.717
REMARK  8 active torsions:
REMARK  status: ('A' for Active; 'I' for Inactive)
REMARK    1  A    between atoms: C_8  and  N_1 
REMARK    2  A    between atoms: C_7  and  N_3 
REMARK    3  A    between atoms: C_11  and  C_7 
REMARK    4  A    between atoms: C_20  and  C_8 
REMARK    5  A    between atoms: C_9  and  C_13 
REMARK       I    between atoms: N_16  and  C_9 
REMARK    6  A    between atoms: C_24  and  N_16 
REMARK    7  A    between atoms: C_27  and  C_24 
REMARK    8  A    between atoms: C_25  and  C_27 
ROOT
ATOM      1  N   UNL d   1      30.237  17.587 -24.615  0.00  0.00    -0.226 N 
ATOM      2  C   UNL d   1      30.632  16.875 -24.486  0.00  0.00     0.342 A 
ATOM      3  N   UNL d   1      30.251  16.256 -24.099  0.00  0.00    -0.259 N 
ATOM      4  C   UNL d   1      29.456  17.687 -24.359  0.00  0.00     0.270 A 
ATOM      5  C   UNL d   1      29.079  17.061 -23.971  0.00  0.00     0.073 A 
ATOM      6  C   UNL d   1      29.475  16.349 -23.842  0.00  0.00     0.073 A 
ATOM      7  O   UNL d   1      31.421  16.782 -24.748  0.00  0.00    -0.245 OA
ATOM      8  O   UNL d   1      29.064  18.393 -24.487  0.00  0.00    -0.266 OA
ATOM      9  C   UNL d   1      28.298  17.161 -23.715  0.00  0.00     0.006 A 
ATOM     10  C   UNL d   1      29.094  15.730 -23.455  0.00  0.00     0.018 A 
ATOM     11  C   UNL d   1      27.918  16.533 -23.325  0.00  0.00     0.000 A 
ATOM     12  C   UNL d   1      28.314  15.821 -23.196  0.00  0.00     0.002 A 
ENDROOT
BRANCH   1  13
ATOM     13  C   UNL d   1      30.623  18.218 -25.009  0.00  0.00     0.087 C 
BRANCH  13  14
ATOM     14  C   UNL d   1      31.141  18.701 -24.601  0.00  0.00     0.018 A 
ATOM     15  C   UNL d   1      30.850  19.295 -24.111  0.00  0.00     0.002 A 
ATOM     16  C   UNL d   1      31.378  19.787 -23.694  0.00  0.00     0.005 A 
ATOM     17  C   UNL d   1      32.191  19.680 -23.772  0.00  0.00     0.058 A 
ATOM     18  C   UNL d   1      32.487  19.081 -24.265  0.00  0.00     0.005 A 
ATOM     19  C   UNL d   1      31.959  18.589 -24.681  0.00  0.00     0.002 A 
BRANCH  17  20
ATOM     20  C   UNL d   1      32.714  20.167 -23.359  0.00  0.00     0.279 C 
ATOM     21  O   UNL d   1      33.236  20.653 -23.771  0.00  0.00    -0.265 OA
ATOM     22  N   UNL d   1      32.715  20.168 -22.537  0.00  0.00    -0.206 NA
BRANCH  22  23
ATOM     23  C   UNL d   1      33.237  20.655 -22.124  0.00  0.00     0.102 C 
BRANCH  23  24
ATOM     24  C   UNL d   1      33.215  20.681 -21.301  0.00  0.00     0.021 C 
BRANCH  24  25
ATOM     25  C   UNL d   1      32.843  21.313 -20.915  0.00  0.00     0.002 A 
ATOM     26  C   UNL d   1      33.182  22.070 -20.944  0.00  0.00     0.000 A 
ATOM     27  C   UNL d   1      32.807  22.706 -20.555  0.00  0.00     0.000 A 
ATOM     28  C   UNL d   1      32.099  22.577 -20.143  0.00  0.00     0.000 A 
ATOM     29  C   UNL d   1      31.766  21.825 -20.116  0.00  0.00     0.000 A 
ATOM     30  C   UNL d   1      32.140  21.189 -20.505  0.00  0.00     0.000 A 
ENDBRANCH  24  25
ENDBRANCH  23  24
ENDBRANCH  22  23
ENDBRANCH  17  20
ENDBRANCH  13  14
ENDBRANCH   1  13
BRANCH   3  31
ATOM     31  C   UNL d   1      30.646  15.544 -23.970  0.00  0.00     0.084 C 
BRANCH  31  32
ATOM     32  C   UNL d   1      31.326  15.527 -23.504  0.00  0.00     0.018 A 
ATOM     33  C   UNL d   1      32.073  15.488 -23.860  0.00  0.00     0.001 A 
ATOM     34  C   UNL d   1      32.145  15.465 -24.697  0.00  0.00     0.000 C 
ATOM     35  C   UNL d   1      32.752  15.471 -23.394  0.00  0.00     0.000 A 
ATOM     36  C   UNL d   1      32.686  15.494 -22.573  0.00  0.00     0.000 A 
ATOM     37  C   UNL d   1      31.939  15.533 -22.217  0.00  0.00     0.000 A 
ATOM     38  C   UNL d   1      31.259  15.550 -22.684  0.00  0.00     0.002 A 
ENDBRANCH  31  32
ENDBRANCH   3  31
TORSDOF 8
ENDMDL
