MODEL 1
REMARK VINA RESULT:      -6.2      0.000      0.000
REMARK  5 active torsions:
REMARK  status: ('A' for Active; 'I' for Inactive)
REMARK    1  A    between atoms: C_6  and  C_1 
REMARK    2  A    between atoms: C_11  and  N_3 
REMARK    3  A    between atoms: C_16  and  C_11 
REMARK    4  A    between atoms: C_13  and  O_15 
REMARK    5  A    between atoms: O_15  and  C_16 
ROOT
ATOM      1  C   UNL d   1     -49.751  13.759  23.329  0.00  0.00     0.171 A 
ATOM      2  N   UNL d   1     -50.463  13.342  23.400  0.00  0.00    -0.225 NA
ATOM      3  N   UNL d   1     -49.125  13.215  23.388  0.00  0.00    -0.286 N 
ATOM      4  C   UNL d   1     -49.449  12.461  23.497  0.00  0.00     0.083 A 
ATOM      5  C   UNL d   1     -50.276  12.538  23.504  0.00  0.00     0.099 A 
ATOM      6  C   UNL d   1     -49.108  11.705  23.591  0.00  0.00     0.019 A 
ATOM      7  C   UNL d   1     -50.757  11.867  23.605  0.00  0.00     0.021 A 
ATOM      8  C   UNL d   1     -49.587  11.041  23.691  0.00  0.00     0.002 A 
ATOM      9  C   UNL d   1     -50.414  11.122  23.698  0.00  0.00     0.002 A 
ENDROOT
BRANCH   3  10
ATOM     10  C   UNL d   1     -48.375  13.553  23.326  0.00  0.00     0.108 C 
BRANCH  10  11
ATOM     11  C   UNL d   1     -47.708  13.068  23.288  0.00  0.00     0.142 C 
BRANCH  11  12
ATOM     12  O   UNL d   1     -46.959  13.389  23.423  0.00  0.00    -0.304 OA
BRANCH  12  13
ATOM     13  C   UNL d   1     -46.305  13.085  23.022  0.00  0.00     0.100 A 
ATOM     14  C   UNL d   1     -45.971  12.374  23.277  0.00  0.00     0.025 A 
ATOM     15  C   UNL d   1     -45.315  12.066  22.879  0.00  0.00     0.002 A 
ATOM     16  C   UNL d   1     -44.975  11.357  23.127  0.00  0.00     0.000 C 
ATOM     17  C   UNL d   1     -45.000  12.474  22.228  0.00  0.00     0.000 A 
ATOM     18  C   UNL d   1     -45.340  13.183  21.980  0.00  0.00     0.002 A 
ATOM     19  C   UNL d   1     -45.994  13.487  22.381  0.00  0.00     0.025 A 
ENDBRANCH  12  13
ENDBRANCH  11  12
ENDBRANCH  10  11
ENDBRANCH   3  10
BRANCH   1  20
ATOM     20  C   UNL d   1     -49.676  14.574  23.217  0.00  0.00     0.134 A 
ATOM     21  O   UNL d   1     -49.693  15.153  23.647  0.00  0.00    -0.302 OA
ATOM     22  C   UNL d   1     -49.607  15.811  23.372  0.00  0.00     0.123 A 
ATOM     23  C   UNL d   1     -49.502  15.898  22.659  0.00  0.00     0.029 A 
ATOM     24  C   UNL d   1     -49.485  15.319  22.233  0.00  0.00     0.030 A 
ENDBRANCH   1  20
TORSDOF 5
ENDMDL
MODEL 2
REMARK VINA RESULT:      -5.7      1.101      2.555
REMARK  5 active torsions:
REMARK  status: ('A' for Active; 'I' for Inactive)
REMARK    1  A    between atoms: C_6  and  C_1 
REMARK    2  A    between atoms: C_11  and  N_3 
REMARK    3  A    between atoms: C_16  and  C_11 
REMARK    4  A    between atoms: C_13  and  O_15 
REMARK    5  A    between atoms: O_15  and  C_16 
ROOT
ATOM      1  C   UNL d   1     -49.859  13.327  22.813  0.00  0.00     0.171 A 
ATOM      2  N   UNL d   1     -50.557  13.735  22.637  0.00  0.00    -0.225 NA
ATOM      3  N   UNL d   1     -49.360  13.839  23.240  0.00  0.00    -0.286 N 
ATOM      4  C   UNL d   1     -49.751  14.563  23.328  0.00  0.00     0.083 A 
ATOM      5  C   UNL d   1     -50.491  14.501  22.956  0.00  0.00     0.099 A 
ATOM      6  C   UNL d   1     -49.538  15.281  23.698  0.00  0.00     0.019 A 
ATOM      7  C   UNL d   1     -51.013  15.149  22.954  0.00  0.00     0.021 A 
ATOM      8  C   UNL d   1     -50.058  15.922  23.694  0.00  0.00     0.002 A 
ATOM      9  C   UNL d   1     -50.797  15.855  23.320  0.00  0.00     0.002 A 
ENDROOT
BRANCH   3  10
ATOM     10  C   UNL d   1     -48.637  13.505  23.456  0.00  0.00     0.108 C 
BRANCH  10  11
ATOM     11  C   UNL d   1     -47.935  13.906  23.289  0.00  0.00     0.142 C 
BRANCH  11  12
ATOM     12  O   UNL d   1     -47.226  13.647  23.623  0.00  0.00    -0.304 OA
BRANCH  12  13
ATOM     13  C   UNL d   1     -46.550  13.584  23.153  0.00  0.00     0.100 A 
ATOM     14  C   UNL d   1     -46.138  12.869  23.134  0.00  0.00     0.025 A 
ATOM     15  C   UNL d   1     -45.461  12.800  22.665  0.00  0.00     0.002 A 
ATOM     16  C   UNL d   1     -45.043  12.089  22.641  0.00  0.00     0.000 C 
ATOM     17  C   UNL d   1     -45.202  13.450  22.218  0.00  0.00     0.000 A 
ATOM     18  C   UNL d   1     -45.621  14.161  22.243  0.00  0.00     0.002 A 
ATOM     19  C   UNL d   1     -46.296  14.225  22.712  0.00  0.00     0.025 A 
ENDBRANCH  12  13
ENDBRANCH  11  12
ENDBRANCH  10  11
ENDBRANCH   3  10
BRANCH   1  20
ATOM     20  C   UNL d   1     -49.686  12.548  22.602  0.00  0.00     0.134 A 
ATOM     21  O   UNL d   1     -49.712  11.909  22.935  0.00  0.00    -0.302 OA
ATOM     22  C   UNL d   1     -49.519  11.311  22.589  0.00  0.00     0.123 A 
ATOM     23  C   UNL d   1     -49.297  11.345  21.899  0.00  0.00     0.029 A 
ATOM     24  C   UNL d   1     -49.272  11.982  21.568  0.00  0.00     0.030 A 
ENDBRANCH   1  20
TORSDOF 5
ENDMDL
MODEL 3
REMARK VINA RESULT:      -4.8      1.546      3.239
REMARK  5 active torsions:
REMARK  status: ('A' for Active; 'I' for Inactive)
REMARK    1  A    between atoms: C_6  and  C_1 
REMARK    2  A    between atoms: C_11  and  N_3 
REMARK    3  A    between atoms: C_16  and  C_11 
REMARK    4  A    between atoms: C_13  and  O_15 
REMARK    5  A    between atoms: O_15  and  C_16 
ROOT
ATOM      1  C   UNL d   1     -48.125  13.140  22.996  0.00  0.00     0.171 A 
ATOM      2  N   UNL d   1     -48.240  13.899  22.687  0.00  0.00    -0.225 NA
ATOM      3  N   UNL d   1     -47.313  13.044  23.153  0.00  0.00    -0.286 N 
ATOM      4  C   UNL d   1     -46.926  13.744  22.940  0.00  0.00     0.083 A 
ATOM      5  C   UNL d   1     -47.498  14.274  22.652  0.00  0.00     0.099 A 
ATOM      6  C   UNL d   1     -46.126  13.981  22.968  0.00  0.00     0.019 A 
ATOM      7  C   UNL d   1     -47.271  15.031  22.394  0.00  0.00     0.021 A 
ATOM      8  C   UNL d   1     -45.904  14.733  22.711  0.00  0.00     0.002 A 
ATOM      9  C   UNL d   1     -46.479  15.260  22.423  0.00  0.00     0.002 A 
ENDROOT
BRANCH   3  10
ATOM     10  C   UNL d   1     -47.113  12.307  23.466  0.00  0.00     0.108 C 
BRANCH  10  11
ATOM     11  C   UNL d   1     -46.335  12.038  23.417  0.00  0.00     0.142 C 
BRANCH  11  12
ATOM     12  O   UNL d   1     -46.184  11.231  23.338  0.00  0.00    -0.304 OA
BRANCH  12  13
ATOM     13  C   UNL d   1     -45.405  10.957  23.338  0.00  0.00     0.100 A 
ATOM     14  C   UNL d   1     -44.820  11.409  22.971  0.00  0.00     0.025 A 
ATOM     15  C   UNL d   1     -44.038  11.140  22.968  0.00  0.00     0.002 A 
ATOM     16  C   UNL d   1     -43.447  11.585  22.604  0.00  0.00     0.000 C 
ATOM     17  C   UNL d   1     -43.850  10.418  23.334  0.00  0.00     0.000 A 
ATOM     18  C   UNL d   1     -44.442   9.973  23.697  0.00  0.00     0.002 A 
ATOM     19  C   UNL d   1     -45.220  10.246  23.698  0.00  0.00     0.025 A 
ENDBRANCH  12  13
ENDBRANCH  11  12
ENDBRANCH  10  11
ENDBRANCH   3  10
BRANCH   1  20
ATOM     20  C   UNL d   1     -48.714  12.576  23.127  0.00  0.00     0.134 A 
ATOM     21  O   UNL d   1     -49.127  12.388  23.686  0.00  0.00    -0.302 OA
ATOM     22  C   UNL d   1     -49.604  11.855  23.622  0.00  0.00     0.123 A 
ATOM     23  C   UNL d   1     -49.673  11.501  22.992  0.00  0.00     0.029 A 
ATOM     24  C   UNL d   1     -49.260  11.690  22.435  0.00  0.00     0.030 A 
ENDBRANCH   1  20
TORSDOF 5
ENDMDL
MODEL 4
REMARK VINA RESULT:      -4.3      7.159      9.880
REMARK  5 active torsions:
REMARK  status: ('A' for Active; 'I' for Inactive)
REMARK    1  A    between atoms: C_6  and  C_1 
REMARK    2  A    between atoms: C_11  and  N_3 
REMARK    3  A    between atoms: C_16  and  C_11 
REMARK    4  A    between atoms: C_13  and  O_15 
REMARK    5  A    between atoms: O_15  and  C_16 
ROOT
ATOM      1  C   UNL d   1     -40.420  14.697  21.098  0.00  0.00     0.171 A 
ATOM      2  N   UNL d   1     -40.059  14.966  21.793  0.00  0.00    -0.225 NA
ATOM      3  N   UNL d   1     -39.907  14.855  20.462  0.00  0.00    -0.286 N 
ATOM      4  C   UNL d   1     -39.229  15.222  20.764  0.00  0.00     0.083 A 
ATOM      5  C   UNL d   1     -39.322  15.291  21.587  0.00  0.00     0.099 A 
ATOM      6  C   UNL d   1     -38.531  15.507  20.405  0.00  0.00     0.019 A 
ATOM      7  C   UNL d   1     -38.723  15.642  22.045  0.00  0.00     0.021 A 
ATOM      8  C   UNL d   1     -37.940  15.855  20.863  0.00  0.00     0.002 A 
ATOM      9  C   UNL d   1     -38.036  15.922  21.685  0.00  0.00     0.002 A 
ENDROOT
BRANCH   3  10
ATOM     10  C   UNL d   1     -40.195  14.615  19.727  0.00  0.00     0.108 C 
BRANCH  10  11
ATOM     11  C   UNL d   1     -39.667  14.439  19.117  0.00  0.00     0.142 C 
BRANCH  11  12
ATOM     12  O   UNL d   1     -39.925  14.005  18.464  0.00  0.00    -0.304 OA
BRANCH  12  13
ATOM     13  C   UNL d   1     -39.421  13.895  17.820  0.00  0.00     0.100 A 
ATOM     14  C   UNL d   1     -39.302  14.517  17.290  0.00  0.00     0.025 A 
ATOM     15  C   UNL d   1     -38.799  14.412  16.644  0.00  0.00     0.002 A 
ATOM     16  C   UNL d   1     -38.674  15.028  16.109  0.00  0.00     0.000 C 
ATOM     17  C   UNL d   1     -38.417  13.682  16.534  0.00  0.00     0.000 A 
ATOM     18  C   UNL d   1     -38.541  13.066  17.068  0.00  0.00     0.002 A 
ATOM     19  C   UNL d   1     -39.045  13.176  17.712  0.00  0.00     0.025 A 
ENDBRANCH  12  13
ENDBRANCH  11  12
ENDBRANCH  10  11
ENDBRANCH   3  10
BRANCH   1  20
ATOM     20  C   UNL d   1     -41.160  14.334  21.045  0.00  0.00     0.134 A 
ATOM     21  O   UNL d   1     -41.816  14.539  20.827  0.00  0.00    -0.302 OA
ATOM     22  C   UNL d   1     -42.366  14.079  20.850  0.00  0.00     0.123 A 
ATOM     23  C   UNL d   1     -42.266  13.402  21.093  0.00  0.00     0.029 A 
ATOM     24  C   UNL d   1     -41.611  13.200  21.309  0.00  0.00     0.030 A 
ENDBRANCH   1  20
TORSDOF 5
ENDMDL
MODEL 5
REMARK VINA RESULT:      -4.2      9.442     10.452
REMARK  5 active torsions:
REMARK  status: ('A' for Active; 'I' for Inactive)
REMARK    1  A    between atoms: C_6  and  C_1 
REMARK    2  A    between atoms: C_11  and  N_3 
REMARK    3  A    between atoms: C_16  and  C_11 
REMARK    4  A    between atoms: C_13  and  O_15 
REMARK    5  A    between atoms: O_15  and  C_16 
ROOT
ATOM      1  C   UNL d   1     -39.512  13.786  17.813  0.00  0.00     0.171 A 
ATOM      2  N   UNL d   1     -40.116  14.047  17.311  0.00  0.00    -0.225 NA
ATOM      3  N   UNL d   1     -39.514  14.267  18.492  0.00  0.00    -0.286 N 
ATOM      4  C   UNL d   1     -40.118  14.826  18.409  0.00  0.00     0.083 A 
ATOM      5  C   UNL d   1     -40.492  14.691  17.679  0.00  0.00     0.099 A 
ATOM      6  C   UNL d   1     -40.388  15.447  18.899  0.00  0.00     0.019 A 
ATOM      7  C   UNL d   1     -41.128  15.172  17.442  0.00  0.00     0.021 A 
ATOM      8  C   UNL d   1     -41.018  15.922  18.660  0.00  0.00     0.002 A 
ATOM      9  C   UNL d   1     -41.389  15.784  17.929  0.00  0.00     0.002 A 
ENDROOT
BRANCH   3  10
ATOM     10  C   UNL d   1     -38.936  14.070  19.048  0.00  0.00     0.108 C 
BRANCH  10  11
ATOM     11  C   UNL d   1     -39.015  14.325  19.829  0.00  0.00     0.142 C 
BRANCH  11  12
ATOM     12  O   UNL d   1     -38.412  14.175  20.372  0.00  0.00    -0.304 OA
BRANCH  12  13
ATOM     13  C   UNL d   1     -38.530  14.342  21.171  0.00  0.00     0.100 A 
ATOM     14  C   UNL d   1     -38.670  13.721  21.697  0.00  0.00     0.025 A 
ATOM     15  C   UNL d   1     -38.788  13.882  22.498  0.00  0.00     0.002 A 
ATOM     16  C   UNL d   1     -38.929  13.267  23.030  0.00  0.00     0.000 C 
ATOM     17  C   UNL d   1     -38.765  14.668  22.767  0.00  0.00     0.000 A 
ATOM     18  C   UNL d   1     -38.624  15.282  22.236  0.00  0.00     0.002 A 
ATOM     19  C   UNL d   1     -38.506  15.116  21.436  0.00  0.00     0.025 A 
ENDBRANCH  12  13
ENDBRANCH  11  12
ENDBRANCH  10  11
ENDBRANCH   3  10
BRANCH   1  20
ATOM     20  C   UNL d   1     -38.998  13.157  17.666  0.00  0.00     0.134 A 
ATOM     21  O   UNL d   1     -38.933  12.481  17.909  0.00  0.00    -0.302 OA
ATOM     22  C   UNL d   1     -38.409  12.057  17.664  0.00  0.00     0.123 A 
ATOM     23  C   UNL d   1     -37.939  12.305  17.169  0.00  0.00     0.029 A 
ATOM     24  C   UNL d   1     -38.006  12.978  16.928  0.00  0.00     0.030 A 
ENDBRANCH   1  20
TORSDOF 5
ENDMDL
MODEL 6
REMARK VINA RESULT:      -3.6      7.163      9.254
REMARK  5 active torsions:
REMARK  status: ('A' for Active; 'I' for Inactive)
REMARK    1  A    between atoms: C_6  and  C_1 
REMARK    2  A    between atoms: C_11  and  N_3 
REMARK    3  A    between atoms: C_16  and  C_11 
REMARK    4  A    between atoms: C_13  and  O_15 
REMARK    5  A    between atoms: O_15  and  C_16 
ROOT
ATOM      1  C   UNL d   1     -40.031  14.621  21.396  0.00  0.00     0.171 A 
ATOM      2  N   UNL d   1     -40.317  14.020  21.889  0.00  0.00    -0.225 NA
ATOM      3  N   UNL d   1     -40.578  14.730  20.778  0.00  0.00    -0.286 N 
ATOM      4  C   UNL d   1     -41.201  14.197  20.889  0.00  0.00     0.083 A 
ATOM      5  C   UNL d   1     -41.041  13.757  21.576  0.00  0.00     0.099 A 
ATOM      6  C   UNL d   1     -41.901  14.045  20.460  0.00  0.00     0.019 A 
ATOM      7  C   UNL d   1     -41.575  13.172  21.830  0.00  0.00     0.021 A 
ATOM      8  C   UNL d   1     -42.428  13.464  20.715  0.00  0.00     0.002 A 
ATOM      9  C   UNL d   1     -42.265  13.026  21.402  0.00  0.00     0.002 A 
ENDROOT
BRANCH   3  10
ATOM     10  C   UNL d   1     -40.366  15.317  20.238  0.00  0.00     0.108 C 
BRANCH  10  11
ATOM     11  C   UNL d   1     -40.526  15.212  19.435  0.00  0.00     0.142 C 
BRANCH  11  12
ATOM     12  O   UNL d   1     -40.293  15.788  18.892  0.00  0.00    -0.304 OA
BRANCH  12  13
ATOM     13  C   UNL d   1     -40.332  15.629  18.083  0.00  0.00     0.100 A 
ATOM     14  C   UNL d   1     -41.003  15.856  17.660  0.00  0.00     0.025 A 
ATOM     15  C   UNL d   1     -41.048  15.699  16.850  0.00  0.00     0.002 A 
ATOM     16  C   UNL d   1     -41.715  15.922  16.419  0.00  0.00     0.000 C 
ATOM     17  C   UNL d   1     -40.417  15.315  16.470  0.00  0.00     0.000 A 
ATOM     18  C   UNL d   1     -39.750  15.092  16.901  0.00  0.00     0.002 A 
ATOM     19  C   UNL d   1     -39.710  15.251  17.709  0.00  0.00     0.025 A 
ENDBRANCH  12  13
ENDBRANCH  11  12
ENDBRANCH  10  11
ENDBRANCH   3  10
BRANCH   1  20
ATOM     20  C   UNL d   1     -39.327  15.039  21.499  0.00  0.00     0.134 A 
ATOM     21  O   UNL d   1     -39.153  15.701  21.725  0.00  0.00    -0.302 OA
ATOM     22  C   UNL d   1     -38.465  15.906  21.753  0.00  0.00     0.123 A 
ATOM     23  C   UNL d   1     -37.940  15.447  21.554  0.00  0.00     0.029 A 
ATOM     24  C   UNL d   1     -38.115  14.787  21.330  0.00  0.00     0.030 A 
ENDBRANCH   1  20
TORSDOF 5
ENDMDL
