MODEL 1
REMARK VINA RESULT:      -2.3      0.000      0.000
REMARK  5 active torsions:
REMARK  status: ('A' for Active; 'I' for Inactive)
REMARK    1  A    between atoms: N_4  and  C_1 
REMARK    2  A    between atoms: S_3  and  C_9 
REMARK       I    between atoms: C_6  and  N_4 
REMARK    3  A    between atoms: C_11  and  C_5 
REMARK    4  A    between atoms: C_10  and  C_6 
REMARK    5  A    between atoms: O_25  and  C_22 
ROOT
ATOM      1  C   UNL d   1      33.207  21.126 -22.225  0.00  0.00     0.197 A 
ATOM      2  N   UNL d   1      33.160  21.305 -21.419  0.00  0.00    -0.221 NA
ATOM      3  C   UNL d   1      33.144  22.118 -21.335  0.00  0.00     0.090 A 
ATOM      4  S   UNL d   1      33.219  21.836 -22.629  0.00  0.00    -0.046 SA
ATOM      5  C   UNL d   1      33.179  22.448 -22.070  0.00  0.00     0.058 A 
ENDROOT
BRANCH   1   6
ATOM      6  N   UNL d   1      33.240  20.413 -22.637  0.00  0.00    -0.183 NA
ATOM      7  C   UNL d   1      32.686  19.820 -22.481  0.00  0.00     0.281 C 
ATOM      8  O   UNL d   1      32.107  19.946 -21.919  0.00  0.00    -0.265 OA
BRANCH   7   9
ATOM      9  C   UNL d   1      32.719  19.107 -22.893  0.00  0.00     0.058 A 
ATOM     10  C   UNL d   1      32.336  19.030 -23.616  0.00  0.00     0.005 A 
ATOM     11  C   UNL d   1      32.369  18.317 -24.028  0.00  0.00     0.011 A 
ATOM     12  C   UNL d   1      32.784  17.680 -23.717  0.00  0.00     0.084 A 
ATOM     13  C   UNL d   1      33.169  17.756 -22.992  0.00  0.00     0.011 A 
ATOM     14  C   UNL d   1      33.136  18.469 -22.580  0.00  0.00     0.005 A 
BRANCH  12  15
ATOM     15  S   UNL d   1      32.817  16.966 -24.129  0.00  0.00     0.191 S 
ATOM     16  O   UNL d   1      33.111  17.362 -24.790  0.00  0.00    -0.222 OA
ATOM     17  O   UNL d   1      32.524  16.571 -23.467  0.00  0.00    -0.222 OA
ATOM     18  C   UNL d   1      32.850  16.253 -24.541  0.00  0.00     0.145 C 
ENDBRANCH  12  15
ENDBRANCH   7   9
ENDBRANCH   1   6
BRANCH   3  19
ATOM     19  C   UNL d   1      33.098  22.498 -20.603  0.00  0.00     0.018 A 
ATOM     20  C   UNL d   1      32.964  23.323 -20.582  0.00  0.00     0.004 A 
ATOM     21  C   UNL d   1      32.918  23.702 -19.850  0.00  0.00     0.024 A 
ATOM     22  C   UNL d   1      33.004  23.277 -19.139  0.00  0.00     0.094 A 
ATOM     23  C   UNL d   1      33.136  22.463 -19.168  0.00  0.00     0.024 A 
ATOM     24  C   UNL d   1      33.182  22.078 -19.905  0.00  0.00     0.004 A 
BRANCH  22  25
ATOM     25  O   UNL d   1      32.957  23.666 -18.401  0.00  0.00    -0.328 OA
ATOM     26  C   UNL d   1      32.963  23.226 -17.695  0.00  0.00     0.181 C 
ENDBRANCH  22  25
ENDBRANCH   3  19
TORSDOF 5
ENDMDL
MODEL 2
REMARK VINA RESULT:      -0.4      1.148      1.796
REMARK  5 active torsions:
REMARK  status: ('A' for Active; 'I' for Inactive)
REMARK    1  A    between atoms: N_4  and  C_1 
REMARK    2  A    between atoms: S_3  and  C_9 
REMARK       I    between atoms: C_6  and  N_4 
REMARK    3  A    between atoms: C_11  and  C_5 
REMARK    4  A    between atoms: C_10  and  C_6 
REMARK    5  A    between atoms: O_25  and  C_22 
ROOT
ATOM      1  C   UNL d   1      32.863  21.736 -20.730  0.00  0.00     0.197 A 
ATOM      2  N   UNL d   1      33.101  21.788 -19.940  0.00  0.00    -0.221 NA
ATOM      3  C   UNL d   1      32.768  22.460 -19.613  0.00  0.00     0.090 A 
ATOM      4  S   UNL d   1      32.383  22.380 -20.880  0.00  0.00    -0.046 SA
ATOM      5  C   UNL d   1      32.328  22.826 -20.182  0.00  0.00     0.058 A 
ENDROOT
BRANCH   1   6
ATOM      6  N   UNL d   1      33.021  21.188 -21.325  0.00  0.00    -0.183 NA
ATOM      7  C   UNL d   1      32.437  20.655 -21.561  0.00  0.00     0.281 C 
ATOM      8  O   UNL d   1      31.703  20.674 -21.203  0.00  0.00    -0.265 OA
BRANCH   7   9
ATOM      9  C   UNL d   1      32.595  20.107 -22.156  0.00  0.00     0.058 A 
ATOM     10  C   UNL d   1      32.289  19.346 -22.109  0.00  0.00     0.005 A 
ATOM     11  C   UNL d   1      32.448  18.798 -22.703  0.00  0.00     0.011 A 
ATOM     12  C   UNL d   1      32.913  19.010 -23.346  0.00  0.00     0.084 A 
ATOM     13  C   UNL d   1      33.221  19.773 -23.396  0.00  0.00     0.011 A 
ATOM     14  C   UNL d   1      33.063  20.321 -22.801  0.00  0.00     0.005 A 
BRANCH  12  15
ATOM     15  S   UNL d   1      33.071  18.461 -23.941  0.00  0.00     0.191 S 
ATOM     16  O   UNL d   1      32.980  19.051 -24.509  0.00  0.00    -0.222 OA
ATOM     17  O   UNL d   1      33.162  17.870 -23.372  0.00  0.00    -0.222 OA
ATOM     18  C   UNL d   1      33.230  17.913 -24.536  0.00  0.00     0.145 C 
ENDBRANCH  12  15
ENDBRANCH   7   9
ENDBRANCH   1   6
BRANCH   3  19
ATOM     19  C   UNL d   1      32.886  22.691 -18.829  0.00  0.00     0.018 A 
ATOM     20  C   UNL d   1      32.837  22.115 -18.226  0.00  0.00     0.004 A 
ATOM     21  C   UNL d   1      32.955  22.346 -17.441  0.00  0.00     0.024 A 
ATOM     22  C   UNL d   1      33.122  23.139 -17.247  0.00  0.00     0.094 A 
ATOM     23  C   UNL d   1      33.169  23.701 -17.849  0.00  0.00     0.024 A 
ATOM     24  C   UNL d   1      33.050  23.471 -18.640  0.00  0.00     0.004 A 
BRANCH  22  25
ATOM     25  O   UNL d   1      33.241  23.366 -16.452  0.00  0.00    -0.328 OA
ATOM     26  C   UNL d   1      33.193  22.801 -15.844  0.00  0.00     0.181 C 
ENDBRANCH  22  25
ENDBRANCH   3  19
TORSDOF 5
ENDMDL
