MODEL 1
REMARK VINA RESULT:      40.0      0.000      0.000
REMARK  4 active torsions:
REMARK  status: ('A' for Active; 'I' for Inactive)
REMARK    1  A    between atoms: C_6  and  C_2 
REMARK    2  A    between atoms: O_7  and  C_6 
REMARK    3  A    between atoms: C_8  and  O_7 
REMARK    4  A    between atoms: O_14  and  C_9 
ROOT
ATOM      1  C   UNL d   1     -50.294  26.325  33.344  0.00  0.00     0.161 C 
ENDROOT
BRANCH   1   2
ATOM      2  C   UNL d   1     -50.869  25.750  33.343  0.00  0.00     0.188 A 
ATOM      3  N   UNL d   1     -50.503  25.039  33.350  0.00  0.00    -0.224 NA
ATOM      4  C   UNL d   1     -51.149  24.448  33.348  0.00  0.00     0.101 A 
ATOM      5  C   UNL d   1     -51.853  24.840  33.340  0.00  0.00     0.101 A 
ATOM      6  C   UNL d   1     -51.086  23.587  33.354  0.00  0.00     0.021 A 
ATOM      7  C   UNL d   1     -52.544  24.399  33.336  0.00  0.00     0.021 A 
ATOM      8  N   UNL d   1     -51.665  25.687  33.336  0.00  0.00    -0.224 NA
ATOM      9  C   UNL d   1     -52.555  23.581  33.341  0.00  0.00     0.002 A 
ATOM     10  C   UNL d   1     -51.851  23.188  33.350  0.00  0.00     0.002 A 
ENDBRANCH   1   2
BRANCH   1  11
ATOM     11  O   UNL d   1     -50.469  27.103  33.608  0.00  0.00    -0.302 OA
BRANCH  11  12
ATOM     12  C   UNL d   1     -49.899  27.558  34.016  0.00  0.00     0.100 A 
ATOM     13  C   UNL d   1     -49.549  28.207  33.641  0.00  0.00     0.027 A 
ATOM     14  C   UNL d   1     -48.987  28.669  34.021  0.00  0.00     0.026 A 
ATOM     15  C   UNL d   1     -48.781  28.462  34.798  0.00  0.00     0.094 A 
ATOM     16  C   UNL d   1     -49.130  27.814  35.173  0.00  0.00     0.026 A 
ATOM     17  C   UNL d   1     -49.698  27.348  34.788  0.00  0.00     0.027 A 
BRANCH  15  18
ATOM     18  O   UNL d   1     -48.211  28.918  35.205  0.00  0.00    -0.328 OA
ATOM     19  C   UNL d   1     -47.439  29.452  35.444  0.00  0.00     0.181 C 
ENDBRANCH  15  18
ENDBRANCH  11  12
ENDBRANCH   1  11
TORSDOF 4
ENDMDL
