MODEL 1
REMARK VINA RESULT:      10.4      0.000      0.000
REMARK  5 active torsions:
REMARK  status: ('A' for Active; 'I' for Inactive)
REMARK    1  A    between atoms: C_2  and  S_1 
REMARK    2  A    between atoms: N_4  and  S_1 
REMARK    3  A    between atoms: C_10  and  N_4 
REMARK    4  A    between atoms: C_14  and  C_5 
REMARK    5  A    between atoms: C_13  and  C_10 
ROOT
ATOM      1  S   UNL d   1      46.092 -17.650  44.016  0.00  0.00     0.285 S 
ATOM      2  O   UNL d   1      45.669 -17.437  43.353  0.00  0.00    -0.198 OA
ATOM      3  O   UNL d   1      46.523 -17.866  44.690  0.00  0.00    -0.198 OA
ENDROOT
BRANCH   1   4
ATOM      4  C   UNL d   1      46.268 -18.378  43.670  0.00  0.00     0.105 A 
ATOM      5  C   UNL d   1      46.344 -18.438  42.850  0.00  0.00     0.013 A 
ATOM      6  C   UNL d   1      46.520 -19.165  42.505  0.00  0.00     0.001 A 
ATOM      7  C   UNL d   1      46.619 -19.834  42.977  0.00  0.00     0.000 A 
ATOM      8  C   UNL d   1      46.543 -19.770  43.788  0.00  0.00     0.001 A 
ATOM      9  C   UNL d   1      46.367 -19.043  44.134  0.00  0.00     0.012 A 
ATOM     10  C   UNL d   1      46.291 -18.983  44.953  0.00  0.00     0.001 C 
BRANCH   6  11
ATOM     11  C   UNL d   1      46.596 -19.223  41.681  0.00  0.00     0.000 C 
ATOM     12  C   UNL d   1      46.628 -19.965  41.323  0.00  0.00     0.000 C 
ATOM     13  C   UNL d   1      46.641 -18.540  41.220  0.00  0.00     0.000 C 
ENDBRANCH   6  11
ENDBRANCH   1   4
BRANCH   1  14
ATOM     14  N   UNL d   1      45.916 -16.922  44.362  0.00  0.00    -0.155 NA
BRANCH  14  15
ATOM     15  C   UNL d   1      46.084 -16.223  43.958  0.00  0.00     0.131 C 
BRANCH  15  16
ATOM     16  C   UNL d   1      45.831 -15.499  44.264  0.00  0.00     0.101 A 
ATOM     17  N   UNL d   1      46.319 -14.837  44.215  0.00  0.00    -0.242 NA
ATOM     18  C   UNL d   1      46.066 -14.113  44.521  0.00  0.00     0.099 A 
ATOM     19  C   UNL d   1      45.325 -14.053  44.876  0.00  0.00     0.021 A 
ATOM     20  C   UNL d   1      44.832 -14.717  44.928  0.00  0.00     0.003 A 
ATOM     21  C   UNL d   1      45.085 -15.440  44.622  0.00  0.00     0.021 A 
ENDBRANCH  15  16
ENDBRANCH  14  15
ENDBRANCH   1  14
TORSDOF 5
ENDMDL
