MODEL 1
REMARK VINA RESULT:      -9.5      0.000      0.000
REMARK  3 active torsions:
REMARK  status: ('A' for Active; 'I' for Inactive)
REMARK    1  A    between atoms: C_3  and  C_1 
REMARK       I    between atoms: N_7  and  C_3 
REMARK    2  A    between atoms: C_11  and  N_7 
REMARK    3  A    between atoms: O_17  and  C_12 
ROOT
ATOM      1  C   UNL d   1      52.453  33.362  53.441  0.00  0.00     0.121 A 
ATOM      2  C   UNL d   1      52.888  32.759  53.132  0.00  0.00     0.305 A 
ATOM      3  C   UNL d   1      52.772  33.831  54.048  0.00  0.00     0.012 A 
ATOM      4  O   UNL d   1      53.650  32.615  53.425  0.00  0.00    -0.273 OA
ATOM      5  C   UNL d   1      53.528  33.681  54.332  0.00  0.00     0.023 A 
ATOM      6  C   UNL d   1      53.963  33.079  54.023  0.00  0.00     0.103 A 
ATOM      7  O   UNL d   1      52.570  32.294  52.530  0.00  0.00    -0.259 OA
ATOM      8  C   UNL d   1      53.844  34.150  54.937  0.00  0.00     0.002 A 
ATOM      9  C   UNL d   1      54.722  32.934  54.313  0.00  0.00     0.025 A 
ATOM     10  C   UNL d   1      55.043  33.400  54.918  0.00  0.00     0.002 A 
ATOM     11  C   UNL d   1      54.608  34.003  55.227  0.00  0.00     0.000 A 
ENDROOT
BRANCH   1  12
ATOM     12  C   UNL d   1      51.692  33.510  53.153  0.00  0.00     0.284 C 
ATOM     13  N   UNL d   1      51.521  34.193  52.725  0.00  0.00    -0.208 NA
ATOM     14  O   UNL d   1      51.069  32.983  53.281  0.00  0.00    -0.265 OA
BRANCH  13  15
ATOM     15  C   UNL d   1      50.779  34.316  52.456  0.00  0.00     0.085 A 
ATOM     16  C   UNL d   1      50.177  34.596  52.955  0.00  0.00     0.021 A 
ATOM     17  C   UNL d   1      49.420  34.724  52.692  0.00  0.00     0.026 A 
ATOM     18  C   UNL d   1      49.244  34.565  51.874  0.00  0.00     0.094 A 
ATOM     19  C   UNL d   1      49.857  34.280  51.365  0.00  0.00     0.026 A 
ATOM     20  C   UNL d   1      50.601  34.166  51.673  0.00  0.00     0.021 A 
BRANCH  18  21
ATOM     21  O   UNL d   1      48.482  34.687  51.581  0.00  0.00    -0.328 OA
ATOM     22  C   UNL d   1      48.382  34.867  50.782  0.00  0.00     0.181 C 
ENDBRANCH  18  21
ENDBRANCH  13  15
ENDBRANCH   1  12
TORSDOF 3
ENDMDL
MODEL 2
REMARK VINA RESULT:      -9.1      1.123      1.525
REMARK  3 active torsions:
REMARK  status: ('A' for Active; 'I' for Inactive)
REMARK    1  A    between atoms: C_3  and  C_1 
REMARK       I    between atoms: N_7  and  C_3 
REMARK    2  A    between atoms: C_11  and  N_7 
REMARK    3  A    between atoms: O_17  and  C_12 
ROOT
ATOM      1  C   UNL d   1      52.514  34.328  53.671  0.00  0.00     0.121 A 
ATOM      2  C   UNL d   1      52.837  34.945  54.075  0.00  0.00     0.305 A 
ATOM      3  C   UNL d   1      52.814  33.561  53.783  0.00  0.00     0.012 A 
ATOM      4  O   UNL d   1      53.466  34.806  54.596  0.00  0.00    -0.273 OA
ATOM      5  C   UNL d   1      53.438  33.432  54.303  0.00  0.00     0.023 A 
ATOM      6  C   UNL d   1      53.761  34.050  54.706  0.00  0.00     0.103 A 
ATOM      7  O   UNL d   1      52.539  35.706  53.963  0.00  0.00    -0.259 OA
ATOM      8  C   UNL d   1      53.735  32.668  54.412  0.00  0.00     0.002 A 
ATOM      9  C   UNL d   1      54.387  33.913  55.226  0.00  0.00     0.025 A 
ATOM     10  C   UNL d   1      54.688  33.150  55.340  0.00  0.00     0.002 A 
ATOM     11  C   UNL d   1      54.365  32.533  54.936  0.00  0.00     0.000 A 
ENDROOT
BRANCH   1  12
ATOM     12  C   UNL d   1      51.887  34.460  53.149  0.00  0.00     0.284 C 
ATOM     13  N   UNL d   1      51.139  34.145  53.290  0.00  0.00    -0.208 NA
ATOM     14  O   UNL d   1      51.980  34.912  52.465  0.00  0.00    -0.265 OA
BRANCH  13  15
ATOM     15  C   UNL d   1      50.546  34.286  52.772  0.00  0.00     0.085 A 
ATOM     16  C   UNL d   1      50.576  34.004  51.992  0.00  0.00     0.021 A 
ATOM     17  C   UNL d   1      49.980  34.141  51.458  0.00  0.00     0.026 A 
ATOM     18  C   UNL d   1      49.303  34.590  51.715  0.00  0.00     0.094 A 
ATOM     19  C   UNL d   1      49.272  34.877  52.510  0.00  0.00     0.026 A 
ATOM     20  C   UNL d   1      49.893  34.715  53.009  0.00  0.00     0.021 A 
BRANCH  18  21
ATOM     21  O   UNL d   1      48.683  34.744  51.191  0.00  0.00    -0.328 OA
ATOM     22  C   UNL d   1      48.046  35.201  51.446  0.00  0.00     0.181 C 
ENDBRANCH  18  21
ENDBRANCH  13  15
ENDBRANCH   1  12
TORSDOF 3
ENDMDL
MODEL 3
REMARK VINA RESULT:      -8.6      2.400      3.752
REMARK  3 active torsions:
REMARK  status: ('A' for Active; 'I' for Inactive)
REMARK    1  A    between atoms: C_3  and  C_1 
REMARK       I    between atoms: N_7  and  C_3 
REMARK    2  A    between atoms: C_11  and  N_7 
REMARK    3  A    between atoms: O_17  and  C_12 
ROOT
ATOM      1  C   UNL d   1      53.153  31.790  53.440  0.00  0.00     0.121 A 
ATOM      2  C   UNL d   1      52.815  31.519  52.761  0.00  0.00     0.305 A 
ATOM      3  C   UNL d   1      53.386  31.250  54.028  0.00  0.00     0.012 A 
ATOM      4  O   UNL d   1      52.705  30.704  52.659  0.00  0.00    -0.273 OA
ATOM      5  C   UNL d   1      53.273  30.444  53.917  0.00  0.00     0.023 A 
ATOM      6  C   UNL d   1      52.935  30.173  53.239  0.00  0.00     0.103 A 
ATOM      7  O   UNL d   1      52.584  32.056  52.180  0.00  0.00    -0.259 OA
ATOM      8  C   UNL d   1      53.506  29.908  54.504  0.00  0.00     0.002 A 
ATOM      9  C   UNL d   1      52.825  29.362  53.135  0.00  0.00     0.025 A 
ATOM     10  C   UNL d   1      53.056  28.822  53.718  0.00  0.00     0.002 A 
ATOM     11  C   UNL d   1      53.394  29.092  54.396  0.00  0.00     0.000 A 
ENDROOT
BRANCH   1  12
ATOM     12  C   UNL d   1      53.266  32.602  53.549  0.00  0.00     0.284 C 
ATOM     13  N   UNL d   1      52.769  33.042  54.037  0.00  0.00    -0.208 NA
ATOM     14  O   UNL d   1      53.879  33.008  53.175  0.00  0.00    -0.265 OA
BRANCH  13  15
ATOM     15  C   UNL d   1      52.896  33.825  54.128  0.00  0.00     0.085 A 
ATOM     16  C   UNL d   1      52.543  34.384  53.625  0.00  0.00     0.021 A 
ATOM     17  C   UNL d   1      52.665  35.182  53.709  0.00  0.00     0.026 A 
ATOM     18  C   UNL d   1      53.176  35.449  54.337  0.00  0.00     0.094 A 
ATOM     19  C   UNL d   1      53.536  34.880  54.849  0.00  0.00     0.026 A 
ATOM     20  C   UNL d   1      53.384  34.091  54.727  0.00  0.00     0.021 A 
BRANCH  18  21
ATOM     21  O   UNL d   1      53.317  36.255  54.443  0.00  0.00    -0.328 OA
ATOM     22  C   UNL d   1      52.947  36.649  55.066  0.00  0.00     0.181 C 
ENDBRANCH  18  21
ENDBRANCH  13  15
ENDBRANCH   1  12
TORSDOF 3
ENDMDL
MODEL 4
REMARK VINA RESULT:      -8.0      1.095      4.758
REMARK  3 active torsions:
REMARK  status: ('A' for Active; 'I' for Inactive)
REMARK    1  A    between atoms: C_3  and  C_1 
REMARK       I    between atoms: N_7  and  C_3 
REMARK    2  A    between atoms: C_11  and  N_7 
REMARK    3  A    between atoms: O_17  and  C_12 
ROOT
ATOM      1  C   UNL d   1      51.183  34.345  52.709  0.00  0.00     0.121 A 
ATOM      2  C   UNL d   1      51.108  34.128  51.937  0.00  0.00     0.305 A 
ATOM      3  C   UNL d   1      50.539  34.690  53.105  0.00  0.00     0.012 A 
ATOM      4  O   UNL d   1      50.387  34.253  51.548  0.00  0.00    -0.273 OA
ATOM      5  C   UNL d   1      49.828  34.810  52.711  0.00  0.00     0.023 A 
ATOM      6  C   UNL d   1      49.752  34.593  51.939  0.00  0.00     0.103 A 
ATOM      7  O   UNL d   1      51.748  33.786  51.546  0.00  0.00    -0.259 OA
ATOM      8  C   UNL d   1      49.187  35.154  53.106  0.00  0.00     0.002 A 
ATOM      9  C   UNL d   1      49.035  34.716  51.550  0.00  0.00     0.025 A 
ATOM     10  C   UNL d   1      48.391  35.059  51.941  0.00  0.00     0.002 A 
ATOM     11  C   UNL d   1      48.466  35.276  52.712  0.00  0.00     0.000 A 
ENDROOT
BRANCH   1  12
ATOM     12  C   UNL d   1      51.900  34.224  53.103  0.00  0.00     0.284 C 
ATOM     13  N   UNL d   1      51.966  33.672  53.711  0.00  0.00    -0.208 NA
ATOM     14  O   UNL d   1      52.580  34.648  52.906  0.00  0.00    -0.265 OA
BRANCH  13  15
ATOM     15  C   UNL d   1      52.669  33.571  54.078  0.00  0.00     0.085 A 
ATOM     16  C   UNL d   1      52.975  34.143  54.595  0.00  0.00     0.021 A 
ATOM     17  C   UNL d   1      53.687  34.050  54.973  0.00  0.00     0.026 A 
ATOM     18  C   UNL d   1      54.131  33.337  54.829  0.00  0.00     0.094 A 
ATOM     19  C   UNL d   1      53.819  32.753  54.302  0.00  0.00     0.026 A 
ATOM     20  C   UNL d   1      53.101  32.890  53.946  0.00  0.00     0.021 A 
BRANCH  18  21
ATOM     21  O   UNL d   1      54.859  33.218  55.201  0.00  0.00    -0.328 OA
ATOM     22  C   UNL d   1      55.416  33.826  55.197  0.00  0.00     0.181 C 
ENDBRANCH  18  21
ENDBRANCH  13  15
ENDBRANCH   1  12
TORSDOF 3
ENDMDL
MODEL 5
REMARK VINA RESULT:      -7.8      1.501      5.220
REMARK  3 active torsions:
REMARK  status: ('A' for Active; 'I' for Inactive)
REMARK    1  A    between atoms: C_3  and  C_1 
REMARK       I    between atoms: N_7  and  C_3 
REMARK    2  A    between atoms: C_11  and  N_7 
REMARK    3  A    between atoms: O_17  and  C_12 
ROOT
ATOM      1  C   UNL d   1      49.071  34.980  52.197  0.00  0.00     0.121 A 
ATOM      2  C   UNL d   1      48.628  34.926  51.527  0.00  0.00     0.305 A 
ATOM      3  C   UNL d   1      48.801  35.442  52.833  0.00  0.00     0.012 A 
ATOM      4  O   UNL d   1      47.908  35.334  51.482  0.00  0.00    -0.273 OA
ATOM      5  C   UNL d   1      48.086  35.843  52.779  0.00  0.00     0.023 A 
ATOM      6  C   UNL d   1      47.643  35.789  52.109  0.00  0.00     0.103 A 
ATOM      7  O   UNL d   1      48.896  34.467  50.897  0.00  0.00    -0.259 OA
ATOM      8  C   UNL d   1      47.820  36.302  53.414  0.00  0.00     0.002 A 
ATOM      9  C   UNL d   1      46.926  36.195  52.063  0.00  0.00     0.025 A 
ATOM     10  C   UNL d   1      46.654  36.656  52.694  0.00  0.00     0.002 A 
ATOM     11  C   UNL d   1      47.097  36.709  53.364  0.00  0.00     0.000 A 
ENDROOT
BRANCH   1  12
ATOM     12  C   UNL d   1      49.790  34.575  52.248  0.00  0.00     0.284 C 
ATOM     13  N   UNL d   1      50.207  34.532  52.958  0.00  0.00    -0.208 NA
ATOM     14  O   UNL d   1      50.123  34.197  51.594  0.00  0.00    -0.265 OA
BRANCH  13  15
ATOM     15  C   UNL d   1      50.901  34.135  52.985  0.00  0.00     0.085 A 
ATOM     16  C   UNL d   1      51.621  34.508  52.809  0.00  0.00     0.021 A 
ATOM     17  C   UNL d   1      52.331  34.115  52.833  0.00  0.00     0.026 A 
ATOM     18  C   UNL d   1      52.329  33.290  53.049  0.00  0.00     0.094 A 
ATOM     19  C   UNL d   1      51.594  32.910  53.228  0.00  0.00     0.026 A 
ATOM     20  C   UNL d   1      50.909  33.345  53.190  0.00  0.00     0.021 A 
BRANCH  18  21
ATOM     21  O   UNL d   1      53.037  32.867  53.081  0.00  0.00    -0.328 OA
ATOM     22  C   UNL d   1      53.472  32.866  53.782  0.00  0.00     0.181 C 
ENDBRANCH  18  21
ENDBRANCH  13  15
ENDBRANCH   1  12
TORSDOF 3
ENDMDL
MODEL 6
REMARK VINA RESULT:      -7.0      2.397      4.398
REMARK  3 active torsions:
REMARK  status: ('A' for Active; 'I' for Inactive)
REMARK    1  A    between atoms: C_3  and  C_1 
REMARK       I    between atoms: N_7  and  C_3 
REMARK    2  A    between atoms: C_11  and  N_7 
REMARK    3  A    between atoms: O_17  and  C_12 
ROOT
ATOM      1  C   UNL d   1      52.757  32.934  53.585  0.00  0.00     0.121 A 
ATOM      2  C   UNL d   1      52.521  33.297  52.906  0.00  0.00     0.305 A 
ATOM      3  C   UNL d   1      53.008  33.392  54.231  0.00  0.00     0.012 A 
ATOM      4  O   UNL d   1      52.533  34.124  52.861  0.00  0.00    -0.273 OA
ATOM      5  C   UNL d   1      53.016  34.212  54.178  0.00  0.00     0.023 A 
ATOM      6  C   UNL d   1      52.781  34.575  53.499  0.00  0.00     0.103 A 
ATOM      7  O   UNL d   1      52.272  32.841  52.266  0.00  0.00    -0.259 OA
ATOM      8  C   UNL d   1      53.267  34.667  54.823  0.00  0.00     0.002 A 
ATOM      9  C   UNL d   1      52.792  35.399  53.453  0.00  0.00     0.025 A 
ATOM     10  C   UNL d   1      53.041  35.859  54.095  0.00  0.00     0.002 A 
ATOM     11  C   UNL d   1      53.277  35.496  54.774  0.00  0.00     0.000 A 
ENDROOT
BRANCH   1  12
ATOM     12  C   UNL d   1      52.747  32.109  53.635  0.00  0.00     0.284 C 
ATOM     13  N   UNL d   1      53.402  31.689  53.907  0.00  0.00    -0.208 NA
ATOM     14  O   UNL d   1      52.084  31.668  53.417  0.00  0.00    -0.265 OA
BRANCH  13  15
ATOM     15  C   UNL d   1      53.372  30.891  53.948  0.00  0.00     0.085 A 
ATOM     16  C   UNL d   1      53.474  30.418  53.274  0.00  0.00     0.021 A 
ATOM     17  C   UNL d   1      53.445  29.607  53.305  0.00  0.00     0.026 A 
ATOM     18  C   UNL d   1      53.303  29.236  54.059  0.00  0.00     0.094 A 
ATOM     19  C   UNL d   1      53.199  29.719  54.746  0.00  0.00     0.026 A 
ATOM     20  C   UNL d   1      53.237  30.527  54.667  0.00  0.00     0.021 A 
BRANCH  18  21
ATOM     21  O   UNL d   1      53.269  28.413  54.117  0.00  0.00    -0.328 OA
ATOM     22  C   UNL d   1      53.562  28.046  54.795  0.00  0.00     0.181 C 
ENDBRANCH  18  21
ENDBRANCH  13  15
ENDBRANCH   1  12
TORSDOF 3
ENDMDL
