MODEL 1
REMARK VINA RESULT:      -2.7      0.000      0.000
REMARK  7 active torsions:
REMARK  status: ('A' for Active; 'I' for Inactive)
REMARK    1  A    between atoms: O_9  and  N_1 
REMARK    2  A    between atoms: C_8  and  O_11 
REMARK    3  A    between atoms: C_15  and  O_9 
REMARK    4  A    between atoms: O_11  and  C_16 
REMARK    5  A    between atoms: C_18  and  C_15 
REMARK    6  A    between atoms: C_16  and  C_17 
REMARK    7  A    between atoms: C_17  and  C_18 
ROOT
ATOM      1  N   UNL d   1      32.561  17.682 -23.546  0.00  0.00    -0.139 N 
ATOM      2  C   UNL d   1      31.995  17.800 -24.146  0.00  0.00     0.287 A 
ATOM      3  C   UNL d   1      32.639  16.865 -23.422  0.00  0.00     0.287 A 
ATOM      4  C   UNL d   1      31.727  17.055 -24.388  0.00  0.00     0.063 A 
ATOM      5  C   UNL d   1      32.123  16.480 -23.943  0.00  0.00     0.063 A 
ATOM      6  O   UNL d   1      33.128  16.464 -22.889  0.00  0.00    -0.265 OA
ATOM      7  O   UNL d   1      31.723  18.502 -24.468  0.00  0.00    -0.265 OA
ATOM      8  C   UNL d   1      31.964  15.678 -24.069  0.00  0.00     0.005 A 
ATOM      9  C   UNL d   1      31.173  16.827 -24.958  0.00  0.00     0.005 A 
ATOM     10  C   UNL d   1      31.412  15.453 -24.636  0.00  0.00     0.000 A 
ATOM     11  C   UNL d   1      31.016  16.028 -25.081  0.00  0.00     0.000 A 
ENDROOT
BRANCH   1  12
ATOM     12  O   UNL d   1      32.972  18.274 -23.147  0.00  0.00    -0.221 OA
BRANCH  12  13
ATOM     13  C   UNL d   1      33.174  18.644 -22.435  0.00  0.00     0.148 C 
BRANCH  13  14
ATOM     14  C   UNL d   1      33.108  19.463 -22.373  0.00  0.00     0.031 C 
BRANCH  14  15
ATOM     15  C   UNL d   1      33.176  19.825 -21.637  0.00  0.00     0.029 C 
BRANCH  15  16
ATOM     16  C   UNL d   1      32.960  20.614 -21.548  0.00  0.00     0.126 C 
BRANCH  16  17
ATOM     17  O   UNL d   1      32.615  20.864 -20.841  0.00  0.00    -0.271 OA
BRANCH  17  18
ATOM     18  C   UNL d   1      32.406  21.654 -20.748  0.00  0.00     0.300 C 
ATOM     19  O   UNL d   1      31.626  21.892 -20.876  0.00  0.00    -0.259 OA
ATOM     20  C   UNL d   1      32.974  22.206 -20.527  0.00  0.00     0.074 C 
ENDBRANCH  17  18
ENDBRANCH  16  17
ENDBRANCH  15  16
ENDBRANCH  14  15
ENDBRANCH  13  14
ENDBRANCH  12  13
ENDBRANCH   1  12
TORSDOF 7
ENDMDL
MODEL 2
REMARK VINA RESULT:      -1.1      1.478      2.217
REMARK  7 active torsions:
REMARK  status: ('A' for Active; 'I' for Inactive)
REMARK    1  A    between atoms: O_9  and  N_1 
REMARK    2  A    between atoms: C_8  and  O_11 
REMARK    3  A    between atoms: C_15  and  O_9 
REMARK    4  A    between atoms: O_11  and  C_16 
REMARK    5  A    between atoms: C_18  and  C_15 
REMARK    6  A    between atoms: C_16  and  C_17 
REMARK    7  A    between atoms: C_17  and  C_18 
ROOT
ATOM      1  N   UNL d   1      33.219  18.854 -22.505  0.00  0.00    -0.139 N 
ATOM      2  C   UNL d   1      33.195  18.092 -22.168  0.00  0.00     0.287 A 
ATOM      3  C   UNL d   1      33.220  18.771 -23.330  0.00  0.00     0.287 A 
ATOM      4  C   UNL d   1      33.181  17.543 -22.789  0.00  0.00     0.063 A 
ATOM      5  C   UNL d   1      33.197  17.961 -23.504  0.00  0.00     0.063 A 
ATOM      6  O   UNL d   1      33.241  19.358 -23.912  0.00  0.00    -0.265 OA
ATOM      7  O   UNL d   1      33.184  17.877 -21.378  0.00  0.00    -0.265 OA
ATOM      8  C   UNL d   1      33.187  17.551 -24.222  0.00  0.00     0.005 A 
ATOM      9  C   UNL d   1      33.156  16.717 -22.794  0.00  0.00     0.005 A 
ATOM     10  C   UNL d   1      33.163  16.729 -24.224  0.00  0.00     0.000 A 
ATOM     11  C   UNL d   1      33.147  16.311 -23.510  0.00  0.00     0.000 A 
ENDROOT
BRANCH   1  12
ATOM     12  O   UNL d   1      33.239  19.565 -22.089  0.00  0.00    -0.221 OA
BRANCH  12  13
ATOM     13  C   UNL d   1      32.841  20.223 -21.786  0.00  0.00     0.148 C 
BRANCH  13  14
ATOM     14  C   UNL d   1      33.161  20.628 -21.143  0.00  0.00     0.031 C 
BRANCH  14  15
ATOM     15  C   UNL d   1      32.726  21.223 -20.777  0.00  0.00     0.029 C 
BRANCH  15  16
ATOM     16  C   UNL d   1      33.107  21.905 -20.515  0.00  0.00     0.126 C 
BRANCH  16  17
ATOM     17  O   UNL d   1      32.989  22.165 -19.741  0.00  0.00    -0.271 OA
BRANCH  17  18
ATOM     18  C   UNL d   1      33.007  22.970 -19.576  0.00  0.00     0.300 C 
ATOM     19  O   UNL d   1      33.179  23.511 -20.174  0.00  0.00    -0.259 OA
ATOM     20  C   UNL d   1      32.853  23.236 -18.812  0.00  0.00     0.074 C 
ENDBRANCH  17  18
ENDBRANCH  16  17
ENDBRANCH  15  16
ENDBRANCH  14  15
ENDBRANCH  13  14
ENDBRANCH  12  13
ENDBRANCH   1  12
TORSDOF 7
ENDMDL
MODEL 3
REMARK VINA RESULT:      -0.5      2.179      6.357
REMARK  7 active torsions:
REMARK  status: ('A' for Active; 'I' for Inactive)
REMARK    1  A    between atoms: O_9  and  N_1 
REMARK    2  A    between atoms: C_8  and  O_11 
REMARK    3  A    between atoms: C_15  and  O_9 
REMARK    4  A    between atoms: O_11  and  C_16 
REMARK    5  A    between atoms: C_18  and  C_15 
REMARK    6  A    between atoms: C_16  and  C_17 
REMARK    7  A    between atoms: C_17  and  C_18 
ROOT
ATOM      1  N   UNL d   1      32.944  22.073 -20.513  0.00  0.00    -0.139 N 
ATOM      2  C   UNL d   1      33.035  21.730 -19.759  0.00  0.00     0.287 A 
ATOM      3  C   UNL d   1      32.730  22.868 -20.410  0.00  0.00     0.287 A 
ATOM      4  C   UNL d   1      32.876  22.316 -19.195  0.00  0.00     0.063 A 
ATOM      5  C   UNL d   1      32.688  23.016 -19.596  0.00  0.00     0.063 A 
ATOM      6  O   UNL d   1      32.576  23.445 -20.982  0.00  0.00    -0.265 OA
ATOM      7  O   UNL d   1      33.241  20.962 -19.563  0.00  0.00    -0.265 OA
ATOM      8  C   UNL d   1      32.503  23.699 -19.168  0.00  0.00     0.005 A 
ATOM      9  C   UNL d   1      32.878  22.300 -18.369  0.00  0.00     0.005 A 
ATOM     10  C   UNL d   1      32.506  23.682 -18.345  0.00  0.00     0.000 A 
ATOM     11  C   UNL d   1      32.694  22.982 -17.945  0.00  0.00     0.000 A 
ENDROOT
BRANCH   1  12
ATOM     12  O   UNL d   1      33.049  21.689 -21.234  0.00  0.00    -0.221 OA
BRANCH  12  13
ATOM     13  C   UNL d   1      32.748  21.462 -21.970  0.00  0.00     0.148 C 
BRANCH  13  14
ATOM     14  C   UNL d   1      33.241  21.076 -22.506  0.00  0.00     0.031 C 
BRANCH  14  15
ATOM     15  C   UNL d   1      32.932  20.790 -23.213  0.00  0.00     0.029 C 
BRANCH  15  16
ATOM     16  C   UNL d   1      32.889  19.978 -23.342  0.00  0.00     0.126 C 
BRANCH  16  17
ATOM     17  O   UNL d   1      32.791  19.692 -24.109  0.00  0.00    -0.271 OA
BRANCH  17  18
ATOM     18  C   UNL d   1      32.670  18.888 -24.231  0.00  0.00     0.300 C 
ATOM     19  O   UNL d   1      33.020  18.336 -23.727  0.00  0.00    -0.259 OA
ATOM     20  C   UNL d   1      32.201  18.634 -24.857  0.00  0.00     0.074 C 
ENDBRANCH  17  18
ENDBRANCH  16  17
ENDBRANCH  15  16
ENDBRANCH  14  15
ENDBRANCH  13  14
ENDBRANCH  12  13
ENDBRANCH   1  12
TORSDOF 7
ENDMDL
MODEL 4
REMARK VINA RESULT:      -0.3      2.479      3.516
REMARK  7 active torsions:
REMARK  status: ('A' for Active; 'I' for Inactive)
REMARK    1  A    between atoms: O_9  and  N_1 
REMARK    2  A    between atoms: C_8  and  O_11 
REMARK    3  A    between atoms: C_15  and  O_9 
REMARK    4  A    between atoms: O_11  and  C_16 
REMARK    5  A    between atoms: C_18  and  C_15 
REMARK    6  A    between atoms: C_16  and  C_17 
REMARK    7  A    between atoms: C_17  and  C_18 
ROOT
ATOM      1  N   UNL d   1      29.647  16.920 -24.445  0.00  0.00    -0.139 N 
ATOM      2  C   UNL d   1      28.956  17.345 -24.254  0.00  0.00     0.287 A 
ATOM      3  C   UNL d   1      29.553  16.141 -24.175  0.00  0.00     0.287 A 
ATOM      4  C   UNL d   1      28.440  16.825 -23.868  0.00  0.00     0.063 A 
ATOM      5  C   UNL d   1      28.807  16.084 -23.819  0.00  0.00     0.063 A 
ATOM      6  O   UNL d   1      30.078  15.504 -24.229  0.00  0.00    -0.265 OA
ATOM      7  O   UNL d   1      28.777  18.131 -24.401  0.00  0.00    -0.265 OA
ATOM      8  C   UNL d   1      28.416  15.453 -23.457  0.00  0.00     0.005 A 
ATOM      9  C   UNL d   1      27.683  16.932 -23.554  0.00  0.00     0.005 A 
ATOM     10  C   UNL d   1      27.662  15.561 -23.145  0.00  0.00     0.000 A 
ATOM     11  C   UNL d   1      27.295  16.302 -23.194  0.00  0.00     0.000 A 
ENDROOT
BRANCH   1  12
ATOM     12  O   UNL d   1      30.308  17.222 -24.834  0.00  0.00    -0.221 OA
BRANCH  12  13
ATOM     13  C   UNL d   1      31.129  17.302 -24.883  0.00  0.00     0.148 C 
BRANCH  13  14
ATOM     14  C   UNL d   1      31.451  18.033 -25.088  0.00  0.00     0.031 C 
BRANCH  14  15
ATOM     15  C   UNL d   1      32.246  18.186 -24.936  0.00  0.00     0.029 C 
BRANCH  15  16
ATOM     16  C   UNL d   1      32.495  18.331 -24.165  0.00  0.00     0.126 C 
BRANCH  16  17
ATOM     17  O   UNL d   1      32.962  18.992 -24.006  0.00  0.00    -0.271 OA
BRANCH  17  18
ATOM     18  C   UNL d   1      32.989  19.296 -23.242  0.00  0.00     0.300 C 
ATOM     19  O   UNL d   1      32.763  20.077 -23.100  0.00  0.00    -0.259 OA
ATOM     20  C   UNL d   1      33.241  18.820 -22.620  0.00  0.00     0.074 C 
ENDBRANCH  17  18
ENDBRANCH  16  17
ENDBRANCH  15  16
ENDBRANCH  14  15
ENDBRANCH  13  14
ENDBRANCH  12  13
ENDBRANCH   1  12
TORSDOF 7
ENDMDL
MODEL 5
REMARK VINA RESULT:       0.1      3.406      5.114
REMARK  7 active torsions:
REMARK  status: ('A' for Active; 'I' for Inactive)
REMARK    1  A    between atoms: O_9  and  N_1 
REMARK    2  A    between atoms: C_8  and  O_11 
REMARK    3  A    between atoms: C_15  and  O_9 
REMARK    4  A    between atoms: O_11  and  C_16 
REMARK    5  A    between atoms: C_18  and  C_15 
REMARK    6  A    between atoms: C_16  and  C_17 
REMARK    7  A    between atoms: C_17  and  C_18 
ROOT
ATOM      1  N   UNL d   1      32.842  22.018 -20.844  0.00  0.00    -0.139 N 
ATOM      2  C   UNL d   1      32.961  21.201 -20.735  0.00  0.00     0.287 A 
ATOM      3  C   UNL d   1      32.639  22.146 -21.638  0.00  0.00     0.287 A 
ATOM      4  C   UNL d   1      32.829  20.829 -21.464  0.00  0.00     0.063 A 
ATOM      5  C   UNL d   1      32.631  21.410 -22.019  0.00  0.00     0.063 A 
ATOM      6  O   UNL d   1      32.466  22.857 -22.024  0.00  0.00    -0.265 OA
ATOM      7  O   UNL d   1      33.169  20.796 -20.055  0.00  0.00    -0.265 OA
ATOM      8  C   UNL d   1      32.468  21.196 -22.801  0.00  0.00     0.005 A 
ATOM      9  C   UNL d   1      32.865  20.035 -21.691  0.00  0.00     0.005 A 
ATOM     10  C   UNL d   1      32.504  20.405 -23.026  0.00  0.00     0.000 A 
ATOM     11  C   UNL d   1      32.703  19.824 -22.470  0.00  0.00     0.000 A 
ENDROOT
BRANCH   1  12
ATOM     12  O   UNL d   1      32.915  22.598 -20.263  0.00  0.00    -0.221 OA
BRANCH  12  13
ATOM     13  C   UNL d   1      33.232  22.846 -19.541  0.00  0.00     0.148 C 
BRANCH  13  14
ATOM     14  C   UNL d   1      32.836  23.421 -19.103  0.00  0.00     0.031 C 
BRANCH  14  15
ATOM     15  C   UNL d   1      33.167  23.702 -18.403  0.00  0.00     0.029 C 
BRANCH  15  16
ATOM     16  C   UNL d   1      32.768  23.596 -17.691  0.00  0.00     0.126 C 
BRANCH  16  17
ATOM     17  O   UNL d   1      33.183  23.336 -17.027  0.00  0.00    -0.271 OA
BRANCH  17  18
ATOM     18  C   UNL d   1      32.799  22.880 -16.461  0.00  0.00     0.300 C 
ATOM     19  O   UNL d   1      31.978  22.917 -16.388  0.00  0.00    -0.259 OA
ATOM     20  C   UNL d   1      33.235  22.386 -15.968  0.00  0.00     0.074 C 
ENDBRANCH  17  18
ENDBRANCH  16  17
ENDBRANCH  15  16
ENDBRANCH  14  15
ENDBRANCH  13  14
ENDBRANCH  12  13
ENDBRANCH   1  12
TORSDOF 7
ENDMDL
