MODEL 1
REMARK VINA RESULT:     104.9      0.000      0.000
REMARK  3 active torsions:
REMARK  status: ('A' for Active; 'I' for Inactive)
REMARK    1  A    between atoms: C_6  and  C_1 
REMARK    2  A    between atoms: N_7  and  C_2 
REMARK    3  A    between atoms: C_9  and  C_5 
REMARK       I    between atoms: N_8  and  C_6 
ROOT
ATOM      1  C   UNL d   1      58.122  48.043  50.566  0.00  0.00     0.106 A 
ATOM      2  C   UNL d   1      59.345  48.692  50.882  0.00  0.00     0.180 A 
ATOM      3  N   UNL d   1      58.836  49.256  50.605  0.00  0.00    -0.222 NA
ATOM      4  S   UNL d   1      58.951  47.981  50.868  0.00  0.00    -0.044 SA
ATOM      5  C   UNL d   1      58.136  48.903  50.421  0.00  0.00     0.094 A 
ENDROOT
BRANCH   1   6
ATOM      6  C   UNL d   1      57.636  47.376  50.511  0.00  0.00     0.272 C 
ATOM      7  N   UNL d   1      57.872  46.656  50.859  0.00  0.00    -0.272 N 
ATOM      8  C   UNL d   1      58.428  46.211  51.294  0.00  0.00     0.083 A 
ATOM      9  C   UNL d   1      57.174  46.306  50.594  0.00  0.00     0.083 A 
ATOM     10  C   UNL d   1      58.282  45.416  51.461  0.00  0.00     0.019 A 
ATOM     11  C   UNL d   1      57.577  45.056  51.195  0.00  0.00     0.003 A 
ATOM     12  C   UNL d   1      57.026  45.500  50.763  0.00  0.00     0.019 A 
ATOM     13  O   UNL d   1      56.913  47.414  50.112  0.00  0.00    -0.266 OA
ENDBRANCH   1   6
BRANCH   5  14
ATOM     14  C   UNL d   1      57.425  49.174  50.123  0.00  0.00     0.018 A 
ATOM     15  C   UNL d   1      56.770  49.199  50.582  0.00  0.00     0.002 A 
ATOM     16  C   UNL d   1      56.083  49.462  50.291  0.00  0.00     0.000 A 
ATOM     17  C   UNL d   1      56.035  49.706  49.531  0.00  0.00     0.000 A 
ATOM     18  C   UNL d   1      56.683  49.688  49.054  0.00  0.00     0.000 A 
ATOM     19  C   UNL d   1      57.375  49.419  49.359  0.00  0.00     0.002 A 
ENDBRANCH   5  14
BRANCH   2  20
ATOM     20  N   UNL d   1      60.043  49.022  51.070  0.00  0.00    -0.280 N 
ATOM     21  C   UNL d   1      60.231  49.178  51.863  0.00  0.00     0.109 A 
ATOM     22  C   UNL d   1      60.952  49.519  52.057  0.00  0.00     0.142 A 
ATOM     23  O   UNL d   1      61.494  49.707  51.461  0.00  0.00    -0.300 OA
ATOM     24  C   UNL d   1      61.312  49.553  50.663  0.00  0.00     0.142 A 
ATOM     25  C   UNL d   1      60.586  49.210  50.468  0.00  0.00     0.109 A 
ENDBRANCH   2  20
TORSDOF 3
ENDMDL
