MODEL 1
REMARK VINA RESULT:      -2.9      0.000      0.000
REMARK  4 active torsions:
REMARK  status: ('A' for Active; 'I' for Inactive)
REMARK    1  A    between atoms: C_2  and  S_1 
REMARK    2  A    between atoms: N_3  and  S_1 
REMARK    3  A    between atoms: C_4  and  C_6 
REMARK       I    between atoms: N_7  and  C_4 
REMARK    4  A    between atoms: C_14  and  N_7 
ROOT
ATOM      1  C   UNL d   1      31.478  16.570 -23.934  0.00  0.00     0.104 A 
ATOM      2  C   UNL d   1      31.696  17.252 -23.529  0.00  0.00     0.018 A 
ATOM      3  C   UNL d   1      32.482  17.508 -23.549  0.00  0.00     0.059 A 
ATOM      4  C   UNL d   1      32.037  16.142 -24.360  0.00  0.00     0.012 A 
ATOM      5  C   UNL d   1      33.045  17.081 -23.974  0.00  0.00     0.005 A 
ATOM      6  C   UNL d   1      32.822  16.397 -24.379  0.00  0.00     0.001 A 
ATOM      7  C   UNL d   1      31.818  15.460 -24.765  0.00  0.00     0.001 C 
ENDROOT
BRANCH   3   8
ATOM      8  C   UNL d   1      32.710  18.189 -23.146  0.00  0.00     0.279 C 
ATOM      9  N   UNL d   1      32.408  18.919 -23.371  0.00  0.00    -0.208 NA
ATOM     10  O   UNL d   1      33.239  18.136 -22.519  0.00  0.00    -0.265 OA
BRANCH   9  11
ATOM     11  C   UNL d   1      32.633  19.604 -22.971  0.00  0.00     0.087 A 
ATOM     12  C   UNL d   1      32.473  19.674 -22.171  0.00  0.00     0.045 A 
ATOM     13  C   UNL d   1      32.696  20.361 -21.763  0.00  0.00     0.121 A 
ATOM     14  O   UNL d   1      32.614  20.594 -20.969  0.00  0.00    -0.299 OA
ATOM     15  C   UNL d   1      33.078  20.968 -22.170  0.00  0.00     0.119 A 
ATOM     16  C   UNL d   1      32.946  21.342 -20.895  0.00  0.00     0.304 A 
ATOM     17  O   UNL d   1      33.238  21.584 -21.635  0.00  0.00    -0.300 OA
ATOM     18  C   UNL d   1      33.241  20.896 -22.986  0.00  0.00     0.028 A 
ATOM     19  C   UNL d   1      33.016  20.211 -23.386  0.00  0.00     0.021 A 
ENDBRANCH   9  11
ENDBRANCH   3   8
BRANCH   1  20
ATOM     20  S   UNL d   1      30.699  16.317 -23.915  0.00  0.00     0.271 S 
ATOM     21  O   UNL d   1      30.846  15.923 -23.202  0.00  0.00    -0.200 OA
ATOM     22  O   UNL d   1      30.531  16.770 -24.735  0.00  0.00    -0.200 OA
BRANCH  20  23
ATOM     23  N   UNL d   1      29.903  16.091 -23.948  0.00  0.00    -0.229 N 
ATOM     24  C   UNL d   1      29.532  15.571 -23.422  0.00  0.00     0.092 A 
ATOM     25  C   UNL d   1      28.744  15.504 -23.660  0.00  0.00     0.021 A 
ATOM     26  C   UNL d   1      28.637  15.982 -24.329  0.00  0.00     0.021 A 
ATOM     27  C   UNL d   1      29.351  16.338 -24.500  0.00  0.00     0.092 A 
ENDBRANCH  20  23
ENDBRANCH   1  20
TORSDOF 4
ENDMDL
MODEL 2
REMARK VINA RESULT:      -2.7      1.453      2.483
REMARK  4 active torsions:
REMARK  status: ('A' for Active; 'I' for Inactive)
REMARK    1  A    between atoms: C_2  and  S_1 
REMARK    2  A    between atoms: N_3  and  S_1 
REMARK    3  A    between atoms: C_4  and  C_6 
REMARK       I    between atoms: N_7  and  C_4 
REMARK    4  A    between atoms: C_14  and  N_7 
ROOT
ATOM      1  C   UNL d   1      32.573  18.347 -23.641  0.00  0.00     0.104 A 
ATOM      2  C   UNL d   1      32.573  18.792 -22.949  0.00  0.00     0.018 A 
ATOM      3  C   UNL d   1      32.908  19.547 -22.948  0.00  0.00     0.059 A 
ATOM      4  C   UNL d   1      32.903  18.649 -24.331  0.00  0.00     0.012 A 
ATOM      5  C   UNL d   1      33.241  19.854 -23.638  0.00  0.00     0.005 A 
ATOM      6  C   UNL d   1      33.238  19.404 -24.330  0.00  0.00     0.001 A 
ATOM      7  C   UNL d   1      32.902  18.203 -25.023  0.00  0.00     0.001 C 
ENDROOT
BRANCH   3   8
ATOM      8  C   UNL d   1      32.914  20.000 -22.260  0.00  0.00     0.279 C 
ATOM      9  N   UNL d   1      32.932  20.820 -22.309  0.00  0.00    -0.208 NA
ATOM     10  O   UNL d   1      32.901  19.630 -21.526  0.00  0.00    -0.265 OA
BRANCH   9  11
ATOM     11  C   UNL d   1      32.938  21.279 -21.624  0.00  0.00     0.087 A 
ATOM     12  C   UNL d   1      32.736  22.071 -21.669  0.00  0.00     0.045 A 
ATOM     13  C   UNL d   1      32.740  22.538 -20.984  0.00  0.00     0.121 A 
ATOM     14  O   UNL d   1      32.566  23.341 -20.850  0.00  0.00    -0.299 OA
ATOM     15  C   UNL d   1      32.947  22.197 -20.262  0.00  0.00     0.119 A 
ATOM     16  C   UNL d   1      32.669  23.486 -20.048  0.00  0.00     0.304 A 
ATOM     17  O   UNL d   1      32.905  22.782 -19.672  0.00  0.00    -0.300 OA
ATOM     18  C   UNL d   1      33.153  21.389 -20.216  0.00  0.00     0.028 A 
ATOM     19  C   UNL d   1      33.147  20.930 -20.901  0.00  0.00     0.021 A 
ENDBRANCH   9  11
ENDBRANCH   3   8
BRANCH   1  20
ATOM     20  S   UNL d   1      32.241  17.598 -23.643  0.00  0.00     0.271 S 
ATOM     21  O   UNL d   1      31.640  17.865 -24.145  0.00  0.00    -0.200 OA
ATOM     22  O   UNL d   1      32.932  17.290 -23.065  0.00  0.00    -0.200 OA
BRANCH  20  23
ATOM     23  N   UNL d   1      31.951  16.823 -23.607  0.00  0.00    -0.229 N 
ATOM     24  C   UNL d   1      31.152  16.609 -23.644  0.00  0.00     0.092 A 
ATOM     25  C   UNL d   1      31.116  15.786 -23.588  0.00  0.00     0.021 A 
ATOM     26  C   UNL d   1      31.891  15.500 -23.518  0.00  0.00     0.021 A 
ATOM     27  C   UNL d   1      32.397  16.140 -23.530  0.00  0.00     0.092 A 
ENDBRANCH  20  23
ENDBRANCH   1  20
TORSDOF 4
ENDMDL
MODEL 3
REMARK VINA RESULT:      -0.3      1.924      5.482
REMARK  4 active torsions:
REMARK  status: ('A' for Active; 'I' for Inactive)
REMARK    1  A    between atoms: C_2  and  S_1 
REMARK    2  A    between atoms: N_3  and  S_1 
REMARK    3  A    between atoms: C_4  and  C_6 
REMARK       I    between atoms: N_7  and  C_4 
REMARK    4  A    between atoms: C_14  and  N_7 
ROOT
ATOM      1  C   UNL d   1      32.858  21.510 -22.650  0.00  0.00     0.104 A 
ATOM      2  C   UNL d   1      32.834  20.699 -22.788  0.00  0.00     0.018 A 
ATOM      3  C   UNL d   1      32.958  20.409 -23.552  0.00  0.00     0.059 A 
ATOM      4  C   UNL d   1      33.006  22.033 -23.267  0.00  0.00     0.012 A 
ATOM      5  C   UNL d   1      33.107  20.931 -24.174  0.00  0.00     0.005 A 
ATOM      6  C   UNL d   1      33.130  21.743 -24.030  0.00  0.00     0.001 A 
ATOM      7  C   UNL d   1      33.030  22.844 -23.128  0.00  0.00     0.001 C 
ENDROOT
BRANCH   3   8
ATOM      8  C   UNL d   1      32.936  19.599 -23.700  0.00  0.00     0.279 C 
ATOM      9  N   UNL d   1      32.609  19.090 -23.145  0.00  0.00    -0.208 NA
ATOM     10  O   UNL d   1      33.240  19.303 -24.404  0.00  0.00    -0.265 OA
BRANCH   9  11
ATOM     11  C   UNL d   1      32.584  18.278 -23.288  0.00  0.00     0.087 A 
ATOM     12  C   UNL d   1      31.922  17.952 -23.644  0.00  0.00     0.045 A 
ATOM     13  C   UNL d   1      31.890  17.137 -23.790  0.00  0.00     0.121 A 
ATOM     14  O   UNL d   1      31.310  16.651 -24.135  0.00  0.00    -0.299 OA
ATOM     15  C   UNL d   1      32.529  16.661 -23.574  0.00  0.00     0.119 A 
ATOM     16  C   UNL d   1      31.597  15.880 -24.128  0.00  0.00     0.304 A 
ATOM     17  O   UNL d   1      32.353  15.875 -23.782  0.00  0.00    -0.300 OA
ATOM     18  C   UNL d   1      33.203  16.993 -23.211  0.00  0.00     0.028 A 
ATOM     19  C   UNL d   1      33.229  17.805 -23.068  0.00  0.00     0.021 A 
ENDBRANCH   9  11
ENDBRANCH   3   8
BRANCH   1  20
ATOM     20  S   UNL d   1      32.735  21.797 -21.893  0.00  0.00     0.271 S 
ATOM     21  O   UNL d   1      32.332  22.448 -22.206  0.00  0.00    -0.200 OA
ATOM     22  O   UNL d   1      33.199  21.048 -21.532  0.00  0.00    -0.200 OA
BRANCH  20  23
ATOM     23  N   UNL d   1      32.641  22.038 -21.106  0.00  0.00    -0.229 N 
ATOM     24  C   UNL d   1      33.226  22.001 -20.522  0.00  0.00     0.092 A 
ATOM     25  C   UNL d   1      32.895  22.296 -19.825  0.00  0.00     0.021 A 
ATOM     26  C   UNL d   1      32.111  22.512 -19.986  0.00  0.00     0.021 A 
ATOM     27  C   UNL d   1      31.962  22.352 -20.772  0.00  0.00     0.092 A 
ENDBRANCH  20  23
ENDBRANCH   1  20
TORSDOF 4
ENDMDL
MODEL 4
REMARK VINA RESULT:      -0.2      2.497      5.900
REMARK  4 active torsions:
REMARK  status: ('A' for Active; 'I' for Inactive)
REMARK    1  A    between atoms: C_2  and  S_1 
REMARK    2  A    between atoms: N_3  and  S_1 
REMARK    3  A    between atoms: C_4  and  C_6 
REMARK       I    between atoms: N_7  and  C_4 
REMARK    4  A    between atoms: C_14  and  N_7 
ROOT
ATOM      1  C   UNL d   1      32.979  21.959 -21.866  0.00  0.00     0.104 A 
ATOM      2  C   UNL d   1      32.972  21.136 -21.874  0.00  0.00     0.018 A 
ATOM      3  C   UNL d   1      33.100  20.730 -22.582  0.00  0.00     0.059 A 
ATOM      4  C   UNL d   1      33.113  22.380 -22.560  0.00  0.00     0.012 A 
ATOM      5  C   UNL d   1      33.235  21.149 -23.280  0.00  0.00     0.005 A 
ATOM      6  C   UNL d   1      33.241  21.974 -23.269  0.00  0.00     0.001 A 
ATOM      7  C   UNL d   1      33.120  23.203 -22.553  0.00  0.00     0.001 C 
ENDROOT
BRANCH   3   8
ATOM      8  C   UNL d   1      33.095  19.907 -22.599  0.00  0.00     0.279 C 
ATOM      9  N   UNL d   1      33.155  19.511 -23.315  0.00  0.00    -0.208 NA
ATOM     10  O   UNL d   1      33.030  19.483 -21.897  0.00  0.00    -0.265 OA
BRANCH   9  11
ATOM     11  C   UNL d   1      33.151  18.687 -23.339  0.00  0.00     0.087 A 
ATOM     12  C   UNL d   1      33.085  18.305 -24.060  0.00  0.00     0.045 A 
ATOM     13  C   UNL d   1      33.079  17.477 -24.091  0.00  0.00     0.121 A 
ATOM     14  O   UNL d   1      33.021  16.938 -24.722  0.00  0.00    -0.299 OA
ATOM     15  C   UNL d   1      33.141  17.045 -23.390  0.00  0.00     0.119 A 
ATOM     16  C   UNL d   1      33.047  16.180 -24.404  0.00  0.00     0.304 A 
ATOM     17  O   UNL d   1      33.122  16.235 -23.578  0.00  0.00    -0.300 OA
ATOM     18  C   UNL d   1      33.208  17.434 -22.655  0.00  0.00     0.028 A 
ATOM     19  C   UNL d   1      33.213  18.259 -22.632  0.00  0.00     0.021 A 
ENDBRANCH   9  11
ENDBRANCH   3   8
BRANCH   1  20
ATOM     20  S   UNL d   1      32.852  22.360 -21.164  0.00  0.00     0.271 S 
ATOM     21  O   UNL d   1      32.532  22.996 -21.586  0.00  0.00    -0.200 OA
ATOM     22  O   UNL d   1      33.221  21.629 -20.679  0.00  0.00    -0.200 OA
BRANCH  20  23
ATOM     23  N   UNL d   1      32.748  22.718 -20.424  0.00  0.00    -0.229 N 
ATOM     24  C   UNL d   1      33.155  22.514 -19.733  0.00  0.00     0.092 A 
ATOM     25  C   UNL d   1      32.880  23.008 -19.132  0.00  0.00     0.021 A 
ATOM     26  C   UNL d   1      32.307  23.512 -19.457  0.00  0.00     0.021 A 
ATOM     27  C   UNL d   1      32.231  23.329 -20.248  0.00  0.00     0.092 A 
ENDBRANCH  20  23
ENDBRANCH   1  20
TORSDOF 4
ENDMDL
