MODEL 1
REMARK VINA RESULT:      58.6      0.000      0.000
REMARK  3 active torsions:
REMARK  status: ('A' for Active; 'I' for Inactive)
REMARK    1  A    between atoms: C_5  and  N_1 
REMARK    2  A    between atoms: C_8  and  C_2 
REMARK    3  A    between atoms: C_7  and  C_5 
ROOT
ATOM      1  N   UNL d   1      58.157  49.638  50.700  0.00  0.00    -0.287 N 
ATOM      2  C   UNL d   1      58.187  49.673  51.527  0.00  0.00     0.187 A 
ATOM      3  N   UNL d   1      58.987  49.704  51.764  0.00  0.00    -0.224 NA
ATOM      4  C   UNL d   1      58.941  49.647  50.412  0.00  0.00     0.083 A 
ATOM      5  C   UNL d   1      59.446  49.688  51.069  0.00  0.00     0.099 A 
ATOM      6  C   UNL d   1      59.265  49.624  49.644  0.00  0.00     0.019 A 
ATOM      7  C   UNL d   1      60.277  49.706  50.962  0.00  0.00     0.021 A 
ATOM      8  C   UNL d   1      60.082  49.642  49.536  0.00  0.00     0.002 A 
ATOM      9  C   UNL d   1      60.587  49.683  50.194  0.00  0.00     0.002 A 
ENDROOT
BRANCH   1  10
ATOM     10  C   UNL d   1      57.396  49.604  50.385  0.00  0.00     0.082 C 
BRANCH  10  11
ATOM     11  C   UNL d   1      57.131  48.920  50.020  0.00  0.00     0.018 A 
ATOM     12  C   UNL d   1      56.728  48.962  49.310  0.00  0.00     0.001 A 
ATOM     13  C   UNL d   1      56.462  48.276  48.943  0.00  0.00     0.000 A 
ATOM     14  C   UNL d   1      56.591  49.699  48.965  0.00  0.00     0.000 C 
ATOM     15  C   UNL d   1      56.601  47.541  49.291  0.00  0.00     0.000 A 
ATOM     16  C   UNL d   1      57.007  47.497  50.007  0.00  0.00     0.000 A 
ATOM     17  C   UNL d   1      57.272  48.187  50.371  0.00  0.00     0.002 A 
ATOM     18  C   UNL d   1      57.148  46.763  50.358  0.00  0.00     0.000 C 
ENDBRANCH  10  11
ENDBRANCH   1  10
BRANCH   2  19
ATOM     19  C   UNL d   1      57.876  49.696  52.285  0.00  0.00     0.230 C 
ATOM     20  O   UNL d   1      58.378  49.708  52.939  0.00  0.00    -0.283 OA
ATOM     21  C   UNL d   1      57.062  49.707  52.397  0.00  0.00     0.049 C 
ENDBRANCH   2  19
TORSDOF 3
ENDMDL
