MODEL 1
REMARK VINA RESULT:      -3.6      0.000      0.000
REMARK  3 active torsions:
REMARK  status: ('A' for Active; 'I' for Inactive)
REMARK    1  A    between atoms: C_6  and  N_1 
REMARK       I    between atoms: C_2  and  N_4 
REMARK    2  A    between atoms: C_5  and  C_2 
REMARK    3  A    between atoms: N_4  and  C_12 
ROOT
ATOM      1  C   UNL d   1      32.999  19.026 -22.791  0.00  0.00     0.067 A 
ATOM      2  C   UNL d   1      33.038  19.733 -23.220  0.00  0.00     0.019 A 
ATOM      3  C   UNL d   1      33.040  19.050 -21.969  0.00  0.00     0.019 A 
ATOM      4  C   UNL d   1      33.159  20.480 -22.008  0.00  0.00     0.085 A 
ATOM      5  C   UNL d   1      33.119  19.773 -21.580  0.00  0.00     0.021 A 
ATOM      6  C   UNL d   1      33.117  20.449 -22.834  0.00  0.00     0.021 A 
ENDROOT
BRANCH   4   7
ATOM      7  N   UNL d   1      33.237  21.195 -21.623  0.00  0.00    -0.208 NA
ATOM      8  C   UNL d   1      32.590  21.533 -21.244  0.00  0.00     0.279 C 
ATOM      9  O   UNL d   1      31.861  21.148 -21.255  0.00  0.00    -0.265 OA
BRANCH   8  10
ATOM     10  C   UNL d   1      32.668  22.249 -20.858  0.00  0.00     0.060 A 
ATOM     11  C   UNL d   1      32.908  22.265 -20.064  0.00  0.00     0.034 A 
ATOM     12  C   UNL d   1      32.990  22.997 -19.665  0.00  0.00     0.140 A 
ATOM     13  F   UNL d   1      33.227  23.017 -18.877  0.00  0.00    -0.204 F 
ATOM     14  C   UNL d   1      32.828  23.702 -20.076  0.00  0.00     0.030 A 
ATOM     15  C   UNL d   1      32.589  23.677 -20.872  0.00  0.00     0.003 A 
ATOM     16  C   UNL d   1      32.511  22.952 -21.258  0.00  0.00     0.005 A 
ENDBRANCH   8  10
ENDBRANCH   4   7
BRANCH   1  17
ATOM     17  N   UNL d   1      32.920  18.311 -23.176  0.00  0.00    -0.273 N 
ATOM     18  C   UNL d   1      32.504  18.180 -23.882  0.00  0.00     0.265 A 
ATOM     19  O   UNL d   1      32.092  18.749 -24.325  0.00  0.00    -0.267 OA
ATOM     20  C   UNL d   1      32.566  17.380 -24.076  0.00  0.00     0.063 A 
ATOM     21  C   UNL d   1      33.020  17.015 -23.492  0.00  0.00     0.024 A 
ATOM     22  C   UNL d   1      33.237  17.583 -22.941  0.00  0.00     0.083 A 
ENDBRANCH   1  17
TORSDOF 3
ENDMDL
MODEL 2
REMARK VINA RESULT:      -3.5      1.881      4.990
REMARK  3 active torsions:
REMARK  status: ('A' for Active; 'I' for Inactive)
REMARK    1  A    between atoms: C_6  and  N_1 
REMARK       I    between atoms: C_2  and  N_4 
REMARK    2  A    between atoms: C_5  and  C_2 
REMARK    3  A    between atoms: N_4  and  C_12 
ROOT
ATOM      1  C   UNL d   1      32.926  21.516 -21.209  0.00  0.00     0.067 A 
ATOM      2  C   UNL d   1      33.134  21.554 -22.010  0.00  0.00     0.019 A 
ATOM      3  C   UNL d   1      32.824  20.781 -20.854  0.00  0.00     0.019 A 
ATOM      4  C   UNL d   1      33.136  20.128 -22.093  0.00  0.00     0.085 A 
ATOM      5  C   UNL d   1      32.928  20.090 -21.293  0.00  0.00     0.021 A 
ATOM      6  C   UNL d   1      33.238  20.870 -22.445  0.00  0.00     0.021 A 
ENDROOT
BRANCH   4   7
ATOM      7  N   UNL d   1      33.240  19.445 -22.527  0.00  0.00    -0.208 NA
ATOM      8  C   UNL d   1      32.625  19.153 -22.991  0.00  0.00     0.279 C 
ATOM      9  O   UNL d   1      31.905  19.553 -23.015  0.00  0.00    -0.265 OA
BRANCH   8  10
ATOM     10  C   UNL d   1      32.729  18.470 -23.426  0.00  0.00     0.060 A 
ATOM     11  C   UNL d   1      32.711  17.733 -23.046  0.00  0.00     0.034 A 
ATOM     12  C   UNL d   1      32.816  17.029 -23.488  0.00  0.00     0.140 A 
ATOM     13  F   UNL d   1      32.799  16.296 -23.115  0.00  0.00    -0.204 F 
ATOM     14  C   UNL d   1      32.939  17.082 -24.309  0.00  0.00     0.030 A 
ATOM     15  C   UNL d   1      32.956  17.825 -24.682  0.00  0.00     0.003 A 
ATOM     16  C   UNL d   1      32.851  18.513 -24.239  0.00  0.00     0.005 A 
ENDBRANCH   8  10
ENDBRANCH   4   7
BRANCH   1  17
ATOM     17  N   UNL d   1      32.822  22.199 -20.774  0.00  0.00    -0.273 N 
ATOM     18  C   UNL d   1      32.272  22.799 -20.933  0.00  0.00     0.265 A 
ATOM     19  O   UNL d   1      31.728  22.817 -21.560  0.00  0.00    -0.267 OA
ATOM     20  C   UNL d   1      32.354  23.386 -20.358  0.00  0.00     0.063 A 
ATOM     21  C   UNL d   1      32.954  23.150 -19.843  0.00  0.00     0.024 A 
ATOM     22  C   UNL d   1      33.241  22.424 -20.098  0.00  0.00     0.083 A 
ENDBRANCH   1  17
TORSDOF 3
ENDMDL
MODEL 3
REMARK VINA RESULT:      -3.4      0.967      1.467
REMARK  3 active torsions:
REMARK  status: ('A' for Active; 'I' for Inactive)
REMARK    1  A    between atoms: C_6  and  N_1 
REMARK       I    between atoms: C_2  and  N_4 
REMARK    2  A    between atoms: C_5  and  C_2 
REMARK    3  A    between atoms: N_4  and  C_12 
ROOT
ATOM      1  C   UNL d   1      32.769  18.234 -23.354  0.00  0.00     0.067 A 
ATOM      2  C   UNL d   1      33.081  18.181 -22.589  0.00  0.00     0.019 A 
ATOM      3  C   UNL d   1      32.616  18.975 -23.676  0.00  0.00     0.019 A 
ATOM      4  C   UNL d   1      33.085  19.605 -22.475  0.00  0.00     0.085 A 
ATOM      5  C   UNL d   1      32.773  19.657 -23.239  0.00  0.00     0.021 A 
ATOM      6  C   UNL d   1      33.237  18.856 -22.156  0.00  0.00     0.021 A 
ENDROOT
BRANCH   4   7
ATOM      7  N   UNL d   1      33.240  20.279 -22.042  0.00  0.00    -0.208 NA
ATOM      8  C   UNL d   1      32.628  20.676 -21.662  0.00  0.00     0.279 C 
ATOM      9  O   UNL d   1      31.857  20.390 -21.718  0.00  0.00    -0.265 OA
BRANCH   8  10
ATOM     10  C   UNL d   1      32.784  21.351 -21.229  0.00  0.00     0.060 A 
ATOM     11  C   UNL d   1      32.640  22.097 -21.563  0.00  0.00     0.034 A 
ATOM     12  C   UNL d   1      32.798  22.792 -21.122  0.00  0.00     0.140 A 
ATOM     13  F   UNL d   1      32.657  23.533 -21.450  0.00  0.00    -0.204 F 
ATOM     14  C   UNL d   1      33.099  22.721 -20.350  0.00  0.00     0.030 A 
ATOM     15  C   UNL d   1      33.240  21.970 -20.023  0.00  0.00     0.003 A 
ATOM     16  C   UNL d   1      33.082  21.290 -20.464  0.00  0.00     0.005 A 
ENDBRANCH   8  10
ENDBRANCH   4   7
BRANCH   1  17
ATOM     17  N   UNL d   1      32.614  17.559 -23.786  0.00  0.00    -0.273 N 
ATOM     18  C   UNL d   1      31.862  17.255 -23.963  0.00  0.00     0.265 A 
ATOM     19  O   UNL d   1      31.132  17.579 -23.734  0.00  0.00    -0.267 OA
ATOM     20  C   UNL d   1      31.958  16.568 -24.410  0.00  0.00     0.063 A 
ATOM     21  C   UNL d   1      32.767  16.446 -24.511  0.00  0.00     0.024 A 
ATOM     22  C   UNL d   1      33.169  17.051 -24.130  0.00  0.00     0.083 A 
ENDBRANCH   1  17
TORSDOF 3
ENDMDL
MODEL 4
REMARK VINA RESULT:      -1.6      1.491      2.289
REMARK  3 active torsions:
REMARK  status: ('A' for Active; 'I' for Inactive)
REMARK    1  A    between atoms: C_6  and  N_1 
REMARK       I    between atoms: C_2  and  N_4 
REMARK    2  A    between atoms: C_5  and  C_2 
REMARK    3  A    between atoms: N_4  and  C_12 
ROOT
ATOM      1  C   UNL d   1      32.312  17.435 -24.007  0.00  0.00     0.067 A 
ATOM      2  C   UNL d   1      32.606  18.100 -24.404  0.00  0.00     0.019 A 
ATOM      3  C   UNL d   1      32.266  17.444 -23.185  0.00  0.00     0.019 A 
ATOM      4  C   UNL d   1      32.804  18.774 -23.160  0.00  0.00     0.085 A 
ATOM      5  C   UNL d   1      32.511  18.109 -22.764  0.00  0.00     0.021 A 
ATOM      6  C   UNL d   1      32.848  18.759 -23.986  0.00  0.00     0.021 A 
ENDROOT
BRANCH   4   7
ATOM      7  N   UNL d   1      33.046  19.432 -22.743  0.00  0.00    -0.208 NA
ATOM      8  C   UNL d   1      32.507  20.026 -22.558  0.00  0.00     0.279 C 
ATOM      9  O   UNL d   1      31.721  19.953 -22.796  0.00  0.00    -0.265 OA
BRANCH   8  10
ATOM     10  C   UNL d   1      32.749  20.685 -22.141  0.00  0.00     0.060 A 
ATOM     11  C   UNL d   1      32.746  21.429 -22.508  0.00  0.00     0.034 A 
ATOM     12  C   UNL d   1      32.993  22.108 -22.084  0.00  0.00     0.140 A 
ATOM     13  F   UNL d   1      32.992  22.847 -22.445  0.00  0.00    -0.204 F 
ATOM     14  C   UNL d   1      33.241  22.023 -21.295  0.00  0.00     0.030 A 
ATOM     15  C   UNL d   1      33.241  21.273 -20.935  0.00  0.00     0.003 A 
ATOM     16  C   UNL d   1      32.996  20.610 -21.359  0.00  0.00     0.005 A 
ENDBRANCH   8  10
ENDBRANCH   4   7
BRANCH   1  17
ATOM     17  N   UNL d   1      32.070  16.776 -24.424  0.00  0.00    -0.273 N 
ATOM     18  C   UNL d   1      31.297  16.617 -24.677  0.00  0.00     0.265 A 
ATOM     19  O   UNL d   1      30.629  17.094 -24.555  0.00  0.00    -0.267 OA
ATOM     20  C   UNL d   1      31.298  15.894 -25.077  0.00  0.00     0.063 A 
ATOM     21  C   UNL d   1      32.071  15.607 -25.072  0.00  0.00     0.024 A 
ATOM     22  C   UNL d   1      32.544  16.145 -24.673  0.00  0.00     0.083 A 
ENDBRANCH   1  17
TORSDOF 3
ENDMDL
MODEL 5
REMARK VINA RESULT:      -1.2      2.859      5.353
REMARK  3 active torsions:
REMARK  status: ('A' for Active; 'I' for Inactive)
REMARK    1  A    between atoms: C_6  and  N_1 
REMARK       I    between atoms: C_2  and  N_4 
REMARK    2  A    between atoms: C_5  and  C_2 
REMARK    3  A    between atoms: N_4  and  C_12 
ROOT
ATOM      1  C   UNL d   1      32.751  23.068 -18.850  0.00  0.00     0.067 A 
ATOM      2  C   UNL d   1      32.739  23.688 -19.399  0.00  0.00     0.019 A 
ATOM      3  C   UNL d   1      32.928  22.306 -19.106  0.00  0.00     0.019 A 
ATOM      4  C   UNL d   1      33.079  22.784 -20.451  0.00  0.00     0.085 A 
ATOM      5  C   UNL d   1      33.091  22.165 -19.903  0.00  0.00     0.021 A 
ATOM      6  C   UNL d   1      32.901  23.548 -20.187  0.00  0.00     0.021 A 
ENDROOT
BRANCH   4   7
ATOM      7  N   UNL d   1      33.241  22.644 -21.239  0.00  0.00    -0.208 NA
ATOM      8  C   UNL d   1      32.626  22.592 -21.783  0.00  0.00     0.279 C 
ATOM      9  O   UNL d   1      31.847  22.681 -21.531  0.00  0.00    -0.265 OA
BRANCH   8  10
ATOM     10  C   UNL d   1      32.788  22.452 -22.572  0.00  0.00     0.060 A 
ATOM     11  C   UNL d   1      32.748  23.075 -23.117  0.00  0.00     0.034 A 
ATOM     12  C   UNL d   1      32.913  22.937 -23.927  0.00  0.00     0.140 A 
ATOM     13  F   UNL d   1      32.875  23.553 -24.471  0.00  0.00    -0.204 F 
ATOM     14  C   UNL d   1      33.116  22.168 -24.172  0.00  0.00     0.030 A 
ATOM     15  C   UNL d   1      33.153  21.549 -23.618  0.00  0.00     0.003 A 
ATOM     16  C   UNL d   1      32.989  21.694 -22.823  0.00  0.00     0.005 A 
ENDBRANCH   8  10
ENDBRANCH   4   7
BRANCH   1  17
ATOM     17  N   UNL d   1      32.590  23.208 -18.062  0.00  0.00    -0.273 N 
ATOM     18  C   UNL d   1      31.835  23.270 -17.722  0.00  0.00     0.265 A 
ATOM     19  O   UNL d   1      31.108  23.202 -18.118  0.00  0.00    -0.267 OA
ATOM     20  C   UNL d   1      31.925  23.413 -16.914  0.00  0.00     0.063 A 
ATOM     21  C   UNL d   1      32.733  23.439 -16.753  0.00  0.00     0.024 A 
ATOM     22  C   UNL d   1      33.140  23.314 -17.454  0.00  0.00     0.083 A 
ENDBRANCH   1  17
TORSDOF 3
ENDMDL
