MODEL 1
REMARK VINA RESULT:      -6.7      0.000      0.000
REMARK  4 active torsions:
REMARK  status: ('A' for Active; 'I' for Inactive)
REMARK    1  A    between atoms: C_13  and  N_3 
REMARK    2  A    between atoms: C_11  and  C_6 
REMARK    3  A    between atoms: O_22  and  C_11 
REMARK    4  A    between atoms: C_21  and  C_13 
ROOT
ATOM      1  C   UNL d   1     -39.425  14.921  18.871  0.00  0.00     0.155 A 
ATOM      2  C   UNL d   1     -40.149  15.291  18.998  0.00  0.00     0.091 A 
ATOM      3  N   UNL d   1     -39.149  14.806  18.106  0.00  0.00    -0.274 N 
ATOM      4  N   UNL d   1     -38.975  14.666  19.514  0.00  0.00    -0.210 NA
ATOM      5  N   UNL d   1     -39.978  15.153  20.407  0.00  0.00    -0.258 N 
ATOM      6  C   UNL d   1     -40.317  15.427  17.584  0.00  0.00     0.100 A 
ATOM      7  C   UNL d   1     -39.250  14.780  20.288  0.00  0.00     0.152 A 
ATOM      8  C   UNL d   1     -39.591  15.057  17.466  0.00  0.00     0.175 A 
ATOM      9  C   UNL d   1     -40.435  15.411  19.765  0.00  0.00     0.269 A 
ATOM     10  C   UNL d   1     -40.603  15.548  18.351  0.00  0.00     0.016 A 
ATOM     11  C   UNL d   1     -38.804  14.527  20.927  0.00  0.00     0.035 A 
ATOM     12  C   UNL d   1     -40.260  15.271  21.181  0.00  0.00     0.084 A 
ATOM     13  N   UNL d   1     -39.313  14.940  16.692  0.00  0.00    -0.128 N 
ATOM     14  O   UNL d   1     -41.160  15.781  19.891  0.00  0.00    -0.266 OA
ATOM     15  C   UNL d   1     -39.804  15.012  21.819  0.00  0.00     0.019 A 
ATOM     16  C   UNL d   1     -39.076  14.641  21.692  0.00  0.00     0.005 A 
ATOM     17  C   UNL d   1     -38.077  14.157  20.793  0.00  0.00     0.003 C 
ENDROOT
BRANCH   3  18
ATOM     18  C   UNL d   1     -38.424  14.436  17.984  0.00  0.00     0.084 C 
BRANCH  18  19
ATOM     19  C   UNL d   1     -38.396  13.677  17.653  0.00  0.00     0.037 A 
ATOM     20  C   UNL d   1     -38.795  13.063  18.015  0.00  0.00     0.100 A 
ATOM     21  N   UNL d   1     -38.771  12.306  17.690  0.00  0.00    -0.242 NA
ATOM     22  C   UNL d   1     -38.343  12.177  17.000  0.00  0.00     0.099 A 
ATOM     23  C   UNL d   1     -37.940  12.798  16.633  0.00  0.00     0.021 A 
ATOM     24  C   UNL d   1     -37.970  13.549  16.965  0.00  0.00     0.005 A 
ENDBRANCH  18  19
ENDBRANCH   3  18
BRANCH   6  25
ATOM     25  C   UNL d   1     -40.766  15.682  16.941  0.00  0.00     0.299 C 
ATOM     26  O   UNL d   1     -40.395  15.913  16.233  0.00  0.00    -0.259 OA
BRANCH  25  27
ATOM     27  O   UNL d   1     -41.585  15.709  16.996  0.00  0.00    -0.296 OA
ATOM     28  C   UNL d   1     -42.041  15.920  16.340  0.00  0.00     0.185 C 
ENDBRANCH  25  27
ENDBRANCH   6  25
TORSDOF 4
ENDMDL
MODEL 2
REMARK VINA RESULT:      -6.3      8.636     10.159
REMARK  4 active torsions:
REMARK  status: ('A' for Active; 'I' for Inactive)
REMARK    1  A    between atoms: C_13  and  N_3 
REMARK    2  A    between atoms: C_11  and  C_6 
REMARK    3  A    between atoms: O_22  and  C_11 
REMARK    4  A    between atoms: C_21  and  C_13 
ROOT
ATOM      1  C   UNL d   1     -48.398  13.899  23.138  0.00  0.00     0.155 A 
ATOM      2  C   UNL d   1     -48.107  14.576  22.771  0.00  0.00     0.091 A 
ATOM      3  N   UNL d   1     -47.889  13.283  23.330  0.00  0.00    -0.274 N 
ATOM      4  N   UNL d   1     -49.202  13.839  23.313  0.00  0.00    -0.210 NA
ATOM      5  N   UNL d   1     -49.419  15.135  22.753  0.00  0.00    -0.258 N 
ATOM      6  C   UNL d   1     -46.793  14.012  22.791  0.00  0.00     0.100 A 
ATOM      7  C   UNL d   1     -49.719  14.458  23.121  0.00  0.00     0.152 A 
ATOM      8  C   UNL d   1     -47.092  13.338  23.158  0.00  0.00     0.175 A 
ATOM      9  C   UNL d   1     -48.612  15.202  22.574  0.00  0.00     0.269 A 
ATOM     10  C   UNL d   1     -47.298  14.638  22.594  0.00  0.00     0.016 A 
ATOM     11  C   UNL d   1     -50.518  14.399  23.295  0.00  0.00     0.035 A 
ATOM     12  C   UNL d   1     -49.933  15.760  22.557  0.00  0.00     0.084 A 
ATOM     13  N   UNL d   1     -46.577  12.716  23.352  0.00  0.00    -0.128 N 
ATOM     14  O   UNL d   1     -48.321  15.878  22.207  0.00  0.00    -0.266 OA
ATOM     15  C   UNL d   1     -50.736  15.692  22.736  0.00  0.00     0.019 A 
ATOM     16  C   UNL d   1     -51.028  15.012  23.105  0.00  0.00     0.005 A 
ATOM     17  C   UNL d   1     -50.803  13.716  23.663  0.00  0.00     0.003 C 
ENDROOT
BRANCH   3  18
ATOM     18  C   UNL d   1     -48.184  12.608  23.697  0.00  0.00     0.084 C 
BRANCH  18  19
ATOM     19  C   UNL d   1     -48.142  11.876  23.312  0.00  0.00     0.037 A 
ATOM     20  C   UNL d   1     -48.545  11.764  22.610  0.00  0.00     0.100 A 
ATOM     21  N   UNL d   1     -48.508  11.038  22.223  0.00  0.00    -0.242 NA
ATOM     22  C   UNL d   1     -48.061  10.429  22.550  0.00  0.00     0.099 A 
ATOM     23  C   UNL d   1     -47.654  10.542  23.260  0.00  0.00     0.021 A 
ATOM     24  C   UNL d   1     -47.698  11.270  23.638  0.00  0.00     0.005 A 
ENDBRANCH  18  19
ENDBRANCH   3  18
BRANCH   6  25
ATOM     25  C   UNL d   1     -45.989  14.071  22.616  0.00  0.00     0.299 C 
ATOM     26  O   UNL d   1     -45.484  14.519  23.103  0.00  0.00    -0.259 OA
BRANCH  25  27
ATOM     27  O   UNL d   1     -45.682  13.687  21.959  0.00  0.00    -0.296 OA
ATOM     28  C   UNL d   1     -44.866  13.592  21.874  0.00  0.00     0.185 C 
ENDBRANCH  25  27
ENDBRANCH   6  25
TORSDOF 4
ENDMDL
MODEL 3
REMARK VINA RESULT:      -6.0      8.536     10.114
REMARK  4 active torsions:
REMARK  status: ('A' for Active; 'I' for Inactive)
REMARK    1  A    between atoms: C_13  and  N_3 
REMARK    2  A    between atoms: C_11  and  C_6 
REMARK    3  A    between atoms: O_22  and  C_11 
REMARK    4  A    between atoms: C_21  and  C_13 
ROOT
ATOM      1  C   UNL d   1     -47.620  12.740  22.499  0.00  0.00     0.155 A 
ATOM      2  C   UNL d   1     -47.699  11.999  22.849  0.00  0.00     0.091 A 
ATOM      3  N   UNL d   1     -48.288  13.166  22.279  0.00  0.00    -0.274 N 
ATOM      4  N   UNL d   1     -46.869  13.056  22.368  0.00  0.00    -0.210 NA
ATOM      5  N   UNL d   1     -46.281  11.886  22.938  0.00  0.00    -0.258 N 
ATOM      6  C   UNL d   1     -49.121  12.117  22.757  0.00  0.00     0.100 A 
ATOM      7  C   UNL d   1     -46.193  12.630  22.587  0.00  0.00     0.152 A 
ATOM      8  C   UNL d   1     -49.034  12.857  22.407  0.00  0.00     0.175 A 
ATOM      9  C   UNL d   1     -47.032  11.563  23.073  0.00  0.00     0.269 A 
ATOM     10  C   UNL d   1     -48.455  11.680  22.981  0.00  0.00     0.016 A 
ATOM     11  C   UNL d   1     -45.446  12.942  22.458  0.00  0.00     0.035 A 
ATOM     12  C   UNL d   1     -45.605  11.453  23.161  0.00  0.00     0.084 A 
ATOM     13  N   UNL d   1     -49.710  13.286  22.186  0.00  0.00    -0.128 N 
ATOM     14  O   UNL d   1     -47.111  10.822  23.423  0.00  0.00    -0.266 OA
ATOM     15  C   UNL d   1     -44.858  11.776  23.027  0.00  0.00     0.019 A 
ATOM     16  C   UNL d   1     -44.778  12.520  22.675  0.00  0.00     0.005 A 
ATOM     17  C   UNL d   1     -45.375  13.687  22.105  0.00  0.00     0.003 C 
ENDROOT
BRANCH   3  18
ATOM     18  C   UNL d   1     -48.205  13.906  21.930  0.00  0.00     0.084 C 
BRANCH  18  19
ATOM     19  C   UNL d   1     -48.570  14.568  22.269  0.00  0.00     0.037 A 
ATOM     20  C   UNL d   1     -48.265  14.890  22.954  0.00  0.00     0.100 A 
ATOM     21  N   UNL d   1     -48.623  15.549  23.297  0.00  0.00    -0.242 NA
ATOM     22  C   UNL d   1     -49.289  15.876  22.940  0.00  0.00     0.099 A 
ATOM     23  C   UNL d   1     -49.597  15.550  22.247  0.00  0.00     0.021 A 
ATOM     24  C   UNL d   1     -49.232  14.893  21.914  0.00  0.00     0.005 A 
ENDBRANCH  18  19
ENDBRANCH   3  18
BRANCH   6  25
ATOM     25  C   UNL d   1     -49.872  11.802  22.887  0.00  0.00     0.299 C 
ATOM     26  O   UNL d   1     -50.265  11.384  22.284  0.00  0.00    -0.259 OA
BRANCH  25  27
ATOM     27  O   UNL d   1     -50.239  11.899  23.616  0.00  0.00    -0.296 OA
ATOM     28  C   UNL d   1     -51.059  11.827  23.686  0.00  0.00     0.185 C 
ENDBRANCH  25  27
ENDBRANCH   6  25
TORSDOF 4
ENDMDL
MODEL 4
REMARK VINA RESULT:      -5.3      8.850     10.522
REMARK  4 active torsions:
REMARK  status: ('A' for Active; 'I' for Inactive)
REMARK    1  A    between atoms: C_13  and  N_3 
REMARK    2  A    between atoms: C_11  and  C_6 
REMARK    3  A    between atoms: O_22  and  C_11 
REMARK    4  A    between atoms: C_21  and  C_13 
ROOT
ATOM      1  C   UNL d   1     -48.434  13.036  23.342  0.00  0.00     0.155 A 
ATOM      2  C   UNL d   1     -48.136  12.272  23.282  0.00  0.00     0.091 A 
ATOM      3  N   UNL d   1     -47.928  13.681  23.283  0.00  0.00    -0.274 N 
ATOM      4  N   UNL d   1     -49.242  13.155  23.461  0.00  0.00    -0.210 NA
ATOM      5  N   UNL d   1     -49.448  11.742  23.460  0.00  0.00    -0.258 N 
ATOM      6  C   UNL d   1     -46.821  12.807  23.104  0.00  0.00     0.100 A 
ATOM      7  C   UNL d   1     -49.755  12.507  23.520  0.00  0.00     0.152 A 
ATOM      8  C   UNL d   1     -47.127  13.568  23.165  0.00  0.00     0.175 A 
ATOM      9  C   UNL d   1     -48.637  11.615  23.340  0.00  0.00     0.269 A 
ATOM     10  C   UNL d   1     -47.323  12.150  23.162  0.00  0.00     0.016 A 
ATOM     11  C   UNL d   1     -50.557  12.624  23.639  0.00  0.00     0.035 A 
ATOM     12  C   UNL d   1     -49.958  11.086  23.519  0.00  0.00     0.084 A 
ATOM     13  N   UNL d   1     -46.615  14.220  23.105  0.00  0.00    -0.128 N 
ATOM     14  O   UNL d   1     -48.339  10.851  23.280  0.00  0.00    -0.266 OA
ATOM     15  C   UNL d   1     -50.765  11.214  23.638  0.00  0.00     0.019 A 
ATOM     16  C   UNL d   1     -51.064  11.983  23.698  0.00  0.00     0.005 A 
ATOM     17  C   UNL d   1     -50.850  13.396  23.698  0.00  0.00     0.003 C 
ENDROOT
BRANCH   3  18
ATOM     18  C   UNL d   1     -48.230  14.445  23.343  0.00  0.00     0.084 C 
BRANCH  18  19
ATOM     19  C   UNL d   1     -48.333  14.905  22.662  0.00  0.00     0.037 A 
ATOM     20  C   UNL d   1     -47.755  15.439  22.444  0.00  0.00     0.100 A 
ATOM     21  N   UNL d   1     -47.852  15.900  21.767  0.00  0.00    -0.242 NA
ATOM     22  C   UNL d   1     -48.535  15.815  21.316  0.00  0.00     0.099 A 
ATOM     23  C   UNL d   1     -49.119  15.274  21.537  0.00  0.00     0.021 A 
ATOM     24  C   UNL d   1     -49.013  14.820  22.213  0.00  0.00     0.005 A 
ENDBRANCH  18  19
ENDBRANCH   3  18
BRANCH   6  25
ATOM     25  C   UNL d   1     -46.014  12.688  22.985  0.00  0.00     0.299 C 
ATOM     26  O   UNL d   1     -45.518  12.491  23.624  0.00  0.00    -0.259 OA
BRANCH  25  27
ATOM     27  O   UNL d   1     -45.693  12.765  22.233  0.00  0.00    -0.296 OA
ATOM     28  C   UNL d   1     -44.886  12.643  22.108  0.00  0.00     0.185 C 
ENDBRANCH  25  27
ENDBRANCH   6  25
TORSDOF 4
ENDMDL
MODEL 5
REMARK VINA RESULT:      -4.8      8.167      9.854
REMARK  4 active torsions:
REMARK  status: ('A' for Active; 'I' for Inactive)
REMARK    1  A    between atoms: C_13  and  N_3 
REMARK    2  A    between atoms: C_11  and  C_6 
REMARK    3  A    between atoms: O_22  and  C_11 
REMARK    4  A    between atoms: C_21  and  C_13 
ROOT
ATOM      1  C   UNL d   1     -47.341  12.945  23.160  0.00  0.00     0.155 A 
ATOM      2  C   UNL d   1     -46.530  13.017  23.037  0.00  0.00     0.091 A 
ATOM      3  N   UNL d   1     -47.662  12.221  23.380  0.00  0.00    -0.274 N 
ATOM      4  N   UNL d   1     -47.832  13.602  23.064  0.00  0.00    -0.210 NA
ATOM      5  N   UNL d   1     -46.696  14.397  22.720  0.00  0.00    -0.258 N 
ATOM      6  C   UNL d   1     -46.368  11.632  23.354  0.00  0.00     0.100 A 
ATOM      7  C   UNL d   1     -47.512  14.333  22.843  0.00  0.00     0.152 A 
ATOM      8  C   UNL d   1     -47.179  11.568  23.476  0.00  0.00     0.175 A 
ATOM      9  C   UNL d   1     -46.197  13.742  22.816  0.00  0.00     0.269 A 
ATOM     10  C   UNL d   1     -46.035  12.357  23.133  0.00  0.00     0.016 A 
ATOM     11  C   UNL d   1     -47.998  14.986  22.747  0.00  0.00     0.035 A 
ATOM     12  C   UNL d   1     -46.368  15.130  22.498  0.00  0.00     0.084 A 
ATOM     13  N   UNL d   1     -47.503  10.836  23.698  0.00  0.00    -0.128 N 
ATOM     14  O   UNL d   1     -45.387  13.813  22.692  0.00  0.00    -0.266 OA
ATOM     15  C   UNL d   1     -46.867  15.781  22.404  0.00  0.00     0.019 A 
ATOM     16  C   UNL d   1     -47.681  15.710  22.528  0.00  0.00     0.005 A 
ATOM     17  C   UNL d   1     -48.812  14.906  22.873  0.00  0.00     0.003 C 
ENDROOT
BRANCH   3  18
ATOM     18  C   UNL d   1     -48.473  12.154  23.502  0.00  0.00     0.084 C 
BRANCH  18  19
ATOM     19  C   UNL d   1     -48.974  11.974  22.868  0.00  0.00     0.037 A 
ATOM     20  C   UNL d   1     -48.660  11.679  22.175  0.00  0.00     0.100 A 
ATOM     21  N   UNL d   1     -49.154  11.499  21.540  0.00  0.00    -0.242 NA
ATOM     22  C   UNL d   1     -49.964  11.618  21.614  0.00  0.00     0.099 A 
ATOM     23  C   UNL d   1     -50.283  11.916  22.316  0.00  0.00     0.021 A 
ATOM     24  C   UNL d   1     -49.781  12.093  22.942  0.00  0.00     0.005 A 
ENDBRANCH  18  19
ENDBRANCH   3  18
BRANCH   6  25
ATOM     25  C   UNL d   1     -45.878  10.976  23.451  0.00  0.00     0.299 C 
ATOM     26  O   UNL d   1     -46.196  10.207  23.444  0.00  0.00    -0.259 OA
BRANCH  25  27
ATOM     27  O   UNL d   1     -45.069  11.077  23.555  0.00  0.00    -0.296 OA
ATOM     28  C   UNL d   1     -44.561  10.426  23.546  0.00  0.00     0.185 C 
ENDBRANCH  25  27
ENDBRANCH   6  25
TORSDOF 4
ENDMDL
MODEL 6
REMARK VINA RESULT:      -4.7      8.792     10.317
REMARK  4 active torsions:
REMARK  status: ('A' for Active; 'I' for Inactive)
REMARK    1  A    between atoms: C_13  and  N_3 
REMARK    2  A    between atoms: C_11  and  C_6 
REMARK    3  A    between atoms: O_22  and  C_11 
REMARK    4  A    between atoms: C_21  and  C_13 
ROOT
ATOM      1  C   UNL d   1     -48.695  13.530  22.676  0.00  0.00     0.155 A 
ATOM      2  C   UNL d   1     -49.223  13.018  23.046  0.00  0.00     0.091 A 
ATOM      3  N   UNL d   1     -47.973  13.250  22.402  0.00  0.00    -0.274 N 
ATOM      4  N   UNL d   1     -48.891  14.326  22.581  0.00  0.00    -0.210 NA
ATOM      5  N   UNL d   1     -50.144  14.092  23.226  0.00  0.00    -0.258 N 
ATOM      6  C   UNL d   1     -48.297  11.944  22.863  0.00  0.00     0.100 A 
ATOM      7  C   UNL d   1     -49.618  14.612  22.856  0.00  0.00     0.152 A 
ATOM      8  C   UNL d   1     -47.774  12.462  22.494  0.00  0.00     0.175 A 
ATOM      9  C   UNL d   1     -49.953  13.291  23.325  0.00  0.00     0.269 A 
ATOM     10  C   UNL d   1     -49.027  12.217  23.142  0.00  0.00     0.016 A 
ATOM     11  C   UNL d   1     -49.814  15.403  22.762  0.00  0.00     0.035 A 
ATOM     12  C   UNL d   1     -50.876  14.374  23.505  0.00  0.00     0.084 A 
ATOM     13  N   UNL d   1     -47.044  12.178  22.218  0.00  0.00    -0.128 N 
ATOM     14  O   UNL d   1     -50.481  12.779  23.694  0.00  0.00    -0.266 OA
ATOM     15  C   UNL d   1     -51.064  15.171  23.406  0.00  0.00     0.019 A 
ATOM     16  C   UNL d   1     -50.533  15.686  23.035  0.00  0.00     0.005 A 
ATOM     17  C   UNL d   1     -49.278  15.911  22.390  0.00  0.00     0.003 C 
ENDROOT
BRANCH   3  18
ATOM     18  C   UNL d   1     -47.447  13.764  22.034  0.00  0.00     0.084 C 
BRANCH  18  19
ATOM     19  C   UNL d   1     -46.673  13.841  22.319  0.00  0.00     0.037 A 
ATOM     20  C   UNL d   1     -46.064  13.443  21.949  0.00  0.00     0.100 A 
ATOM     21  N   UNL d   1     -45.292  13.515  22.227  0.00  0.00    -0.242 NA
ATOM     22  C   UNL d   1     -45.143  13.992  22.881  0.00  0.00     0.099 A 
ATOM     23  C   UNL d   1     -45.759  14.395  23.256  0.00  0.00     0.021 A 
ATOM     24  C   UNL d   1     -46.525  14.316  22.970  0.00  0.00     0.005 A 
ENDBRANCH  18  19
ENDBRANCH   3  18
BRANCH   6  25
ATOM     25  C   UNL d   1     -48.101  11.148  22.957  0.00  0.00     0.299 C 
ATOM     26  O   UNL d   1     -48.256  10.601  22.351  0.00  0.00    -0.259 OA
BRANCH  25  27
ATOM     27  O   UNL d   1     -47.749  10.891  23.653  0.00  0.00    -0.296 OA
ATOM     28  C   UNL d   1     -47.197  10.277  23.642  0.00  0.00     0.185 C 
ENDBRANCH  25  27
ENDBRANCH   6  25
TORSDOF 4
ENDMDL
MODEL 7
REMARK VINA RESULT:      -3.9      8.602      9.971
REMARK  4 active torsions:
REMARK  status: ('A' for Active; 'I' for Inactive)
REMARK    1  A    between atoms: C_13  and  N_3 
REMARK    2  A    between atoms: C_11  and  C_6 
REMARK    3  A    between atoms: O_22  and  C_11 
REMARK    4  A    between atoms: C_21  and  C_13 
ROOT
ATOM      1  C   UNL d   1     -48.075  13.715  22.092  0.00  0.00     0.155 A 
ATOM      2  C   UNL d   1     -48.012  14.511  22.294  0.00  0.00     0.091 A 
ATOM      3  N   UNL d   1     -48.815  13.370  22.000  0.00  0.00    -0.274 N 
ATOM      4  N   UNL d   1     -47.393  13.263  21.982  0.00  0.00    -0.210 NA
ATOM      5  N   UNL d   1     -46.590  14.408  22.276  0.00  0.00    -0.258 N 
ATOM      6  C   UNL d   1     -49.439  14.610  22.310  0.00  0.00     0.100 A 
ATOM      7  C   UNL d   1     -46.645  13.608  22.073  0.00  0.00     0.152 A 
ATOM      8  C   UNL d   1     -49.493  13.814  22.109  0.00  0.00     0.175 A 
ATOM      9  C   UNL d   1     -47.271  14.867  22.388  0.00  0.00     0.269 A 
ATOM     10  C   UNL d   1     -48.698  14.967  22.405  0.00  0.00     0.016 A 
ATOM     11  C   UNL d   1     -45.967  13.160  21.964  0.00  0.00     0.035 A 
ATOM     12  C   UNL d   1     -45.841  14.760  22.369  0.00  0.00     0.084 A 
ATOM     13  N   UNL d   1     -50.242  13.466  22.016  0.00  0.00    -0.128 N 
ATOM     14  O   UNL d   1     -47.209  15.663  22.590  0.00  0.00    -0.266 OA
ATOM     15  C   UNL d   1     -45.164  14.301  22.257  0.00  0.00     0.019 A 
ATOM     16  C   UNL d   1     -45.227  13.501  22.054  0.00  0.00     0.005 A 
ATOM     17  C   UNL d   1     -46.038  12.362  21.761  0.00  0.00     0.003 C 
ENDROOT
BRANCH   3  18
ATOM     18  C   UNL d   1     -48.873  12.575  21.799  0.00  0.00     0.084 C 
BRANCH  18  19
ATOM     19  C   UNL d   1     -49.107  12.019  22.367  0.00  0.00     0.037 A 
ATOM     20  C   UNL d   1     -49.629  11.425  22.161  0.00  0.00     0.100 A 
ATOM     21  N   UNL d   1     -49.865  10.869  22.722  0.00  0.00    -0.242 NA
ATOM     22  C   UNL d   1     -49.570  10.920  23.488  0.00  0.00     0.099 A 
ATOM     23  C   UNL d   1     -49.042  11.521  23.696  0.00  0.00     0.021 A 
ATOM     24  C   UNL d   1     -48.813  12.070  23.129  0.00  0.00     0.005 A 
ENDBRANCH  18  19
ENDBRANCH   3  18
BRANCH   6  25
ATOM     25  C   UNL d   1     -50.121  15.061  22.421  0.00  0.00     0.299 C 
ATOM     26  O   UNL d   1     -50.501  15.415  21.771  0.00  0.00    -0.259 OA
BRANCH  25  27
ATOM     27  O   UNL d   1     -50.429  15.163  23.175  0.00  0.00    -0.296 OA
ATOM     28  C   UNL d   1     -50.437  15.911  23.526  0.00  0.00     0.185 C 
ENDBRANCH  25  27
ENDBRANCH   6  25
TORSDOF 4
ENDMDL
MODEL 8
REMARK VINA RESULT:      -3.7      8.794     10.502
REMARK  4 active torsions:
REMARK  status: ('A' for Active; 'I' for Inactive)
REMARK    1  A    between atoms: C_13  and  N_3 
REMARK    2  A    between atoms: C_11  and  C_6 
REMARK    3  A    between atoms: O_22  and  C_11 
REMARK    4  A    between atoms: C_21  and  C_13 
ROOT
ATOM      1  C   UNL d   1     -48.364  13.429  22.689  0.00  0.00     0.155 A 
ATOM      2  C   UNL d   1     -47.640  13.182  22.991  0.00  0.00     0.091 A 
ATOM      3  N   UNL d   1     -48.440  14.180  22.363  0.00  0.00    -0.274 N 
ATOM      4  N   UNL d   1     -49.015  12.922  22.713  0.00  0.00    -0.210 NA
ATOM      5  N   UNL d   1     -48.211  11.924  23.343  0.00  0.00    -0.258 N 
ATOM      6  C   UNL d   1     -47.071  14.445  22.638  0.00  0.00     0.100 A 
ATOM      7  C   UNL d   1     -48.942  12.165  23.041  0.00  0.00     0.152 A 
ATOM      8  C   UNL d   1     -47.798  14.685  22.337  0.00  0.00     0.175 A 
ATOM      9  C   UNL d   1     -47.553  12.428  23.322  0.00  0.00     0.269 A 
ATOM     10  C   UNL d   1     -46.984  13.691  22.968  0.00  0.00     0.016 A 
ATOM     11  C   UNL d   1     -49.588  11.660  23.065  0.00  0.00     0.035 A 
ATOM     12  C   UNL d   1     -48.131  11.164  23.673  0.00  0.00     0.084 A 
ATOM     13  N   UNL d   1     -47.875  15.444  22.008  0.00  0.00    -0.128 N 
ATOM     14  O   UNL d   1     -46.828  12.181  23.624  0.00  0.00    -0.266 OA
ATOM     15  C   UNL d   1     -48.787  10.663  23.693  0.00  0.00     0.019 A 
ATOM     16  C   UNL d   1     -49.515  10.911  23.390  0.00  0.00     0.005 A 
ATOM     17  C   UNL d   1     -50.313  11.916  22.760  0.00  0.00     0.003 C 
ENDROOT
BRANCH   3  18
ATOM     18  C   UNL d   1     -49.167  14.423  22.062  0.00  0.00     0.084 C 
BRANCH  18  19
ATOM     19  C   UNL d   1     -49.652  14.926  22.506  0.00  0.00     0.037 A 
ATOM     20  C   UNL d   1     -50.366  15.175  22.198  0.00  0.00     0.100 A 
ATOM     21  N   UNL d   1     -50.854  15.676  22.635  0.00  0.00    -0.242 NA
ATOM     22  C   UNL d   1     -50.613  15.920  23.383  0.00  0.00     0.099 A 
ATOM     23  C   UNL d   1     -49.891  15.668  23.695  0.00  0.00     0.021 A 
ATOM     24  C   UNL d   1     -49.412  15.169  23.251  0.00  0.00     0.005 A 
ENDBRANCH  18  19
ENDBRANCH   3  18
BRANCH   6  25
ATOM     25  C   UNL d   1     -46.421  14.952  22.613  0.00  0.00     0.299 C 
ATOM     26  O   UNL d   1     -46.523  15.762  22.452  0.00  0.00    -0.259 OA
BRANCH  25  27
ATOM     27  O   UNL d   1     -45.665  14.660  22.749  0.00  0.00    -0.296 OA
ATOM     28  C   UNL d   1     -45.057  14.803  22.208  0.00  0.00     0.185 C 
ENDBRANCH  25  27
ENDBRANCH   6  25
TORSDOF 4
ENDMDL
