MODEL 1
REMARK VINA RESULT:     104.0      0.000      0.000
REMARK  7 active torsions:
REMARK  status: ('A' for Active; 'I' for Inactive)
REMARK    1  A    between atoms: C_14  and  C_4 
REMARK    2  A    between atoms: N_17  and  C_5 
REMARK    3  A    between atoms: C_13  and  C_8 
REMARK    4  A    between atoms: N_11  and  C_18 
REMARK    5  A    between atoms: C_20  and  N_17 
REMARK    6  A    between atoms: C_18  and  C_19 
REMARK    7  A    between atoms: C_19  and  C_20 
ROOT
ATOM      1  C   UNL d   1      60.322  47.407  50.559  0.00  0.00     0.168 A 
ATOM      2  N   UNL d   1      59.619  47.746  50.863  0.00  0.00    -0.184 N 
ATOM      3  N   UNL d   1      60.936  47.890  50.322  0.00  0.00    -0.231 NA
ATOM      4  C   UNL d   1      60.393  46.604  50.501  0.00  0.00     0.057 A 
ATOM      5  C   UNL d   1      59.570  48.549  50.912  0.00  0.00     0.217 A 
ATOM      6  N   UNL d   1      59.090  46.462  51.037  0.00  0.00    -0.160 NA
ATOM      7  C   UNL d   1      60.179  49.044  50.677  0.00  0.00     0.067 A 
ATOM      8  C   UNL d   1      60.872  48.710  50.377  0.00  0.00     0.064 A 
ATOM      9  C   UNL d   1      59.782  46.128  50.738  0.00  0.00     0.124 A 
ENDROOT
BRANCH   5  10
ATOM     10  N   UNL d   1      58.854  48.894  51.221  0.00  0.00    -0.380 NA
BRANCH  10  11
ATOM     11  C   UNL d   1      58.130  49.174  51.564  0.00  0.00     0.164 C 
BRANCH  11  12
ATOM     12  C   UNL d   1      57.631  49.685  51.121  0.00  0.00     0.054 C 
BRANCH  12  13
ATOM     13  C   UNL d   1      56.811  49.501  51.032  0.00  0.00     0.084 C 
BRANCH  13  14
ATOM     14  N   UNL d   1      56.521  49.220  50.280  0.00  0.00    -0.285 N 
ATOM     15  C   UNL d   1      56.279  48.431  50.110  0.00  0.00     0.183 A 
ATOM     16  N   UNL d   1      56.034  48.405  49.298  0.00  0.00    -0.222 NA
ATOM     17  C   UNL d   1      56.128  49.181  48.972  0.00  0.00     0.120 A 
ATOM     18  C   UNL d   1      56.429  49.686  49.579  0.00  0.00     0.102 A 
ENDBRANCH  13  14
ENDBRANCH  12  13
ENDBRANCH  11  12
ENDBRANCH  10  11
ENDBRANCH   5  10
BRANCH   8  19
ATOM     19  C   UNL d   1      61.516  49.211  50.128  0.00  0.00     0.036 C 
ATOM     20  C   UNL d   1      61.536  49.511  49.328  0.00  0.00     0.006 C 
ATOM     21  C   UNL d   1      62.149  49.706  49.877  0.00  0.00     0.006 C 
ATOM     22  C   UNL d   1      62.134  49.408  50.678  0.00  0.00     0.006 C 
ENDBRANCH   8  19
BRANCH   4  23
ATOM     23  C   UNL d   1      61.086  46.270  50.202  0.00  0.00     0.004 A 
ATOM     24  C   UNL d   1      61.076  45.930  49.474  0.00  0.00     0.000 A 
ATOM     25  C   UNL d   1      61.768  45.596  49.175  0.00  0.00     0.000 A 
ATOM     26  C   UNL d   1      62.449  45.612  49.613  0.00  0.00     0.000 A 
ATOM     27  C   UNL d   1      62.451  45.959  50.352  0.00  0.00     0.000 A 
ATOM     28  C   UNL d   1      61.759  46.293  50.651  0.00  0.00     0.000 A 
ENDBRANCH   4  23
TORSDOF 7
ENDMDL
MODEL 2
REMARK VINA RESULT:     106.2      1.098      2.963
REMARK  7 active torsions:
REMARK  status: ('A' for Active; 'I' for Inactive)
REMARK    1  A    between atoms: C_14  and  C_4 
REMARK    2  A    between atoms: N_17  and  C_5 
REMARK    3  A    between atoms: C_13  and  C_8 
REMARK    4  A    between atoms: N_11  and  C_18 
REMARK    5  A    between atoms: C_20  and  N_17 
REMARK    6  A    between atoms: C_18  and  C_19 
REMARK    7  A    between atoms: C_19  and  C_20 
ROOT
ATOM      1  C   UNL d   1      59.757  48.337  51.016  0.00  0.00     0.168 A 
ATOM      2  N   UNL d   1      59.010  48.134  50.696  0.00  0.00    -0.184 N 
ATOM      3  N   UNL d   1      60.307  47.752  51.165  0.00  0.00    -0.231 NA
ATOM      4  C   UNL d   1      59.933  49.110  51.177  0.00  0.00     0.057 A 
ATOM      5  C   UNL d   1      58.856  47.358  50.543  0.00  0.00     0.217 A 
ATOM      6  N   UNL d   1      58.650  49.486  50.713  0.00  0.00    -0.160 NA
ATOM      7  C   UNL d   1      59.400  46.763  50.689  0.00  0.00     0.067 A 
ATOM      8  C   UNL d   1      60.136  46.963  51.004  0.00  0.00     0.064 A 
ATOM      9  C   UNL d   1      59.385  49.686  51.028  0.00  0.00     0.124 A 
ENDROOT
BRANCH   5  10
ATOM     10  N   UNL d   1      58.096  47.151  50.217  0.00  0.00    -0.380 NA
BRANCH  10  11
ATOM     11  C   UNL d   1      57.375  46.902  49.845  0.00  0.00     0.164 C 
BRANCH  11  12
ATOM     12  C   UNL d   1      56.637  47.153  50.159  0.00  0.00     0.054 C 
BRANCH  12  13
ATOM     13  C   UNL d   1      56.069  47.525  49.655  0.00  0.00     0.084 C 
BRANCH  13  14
ATOM     14  N   UNL d   1      56.060  48.375  49.586  0.00  0.00    -0.285 N 
ATOM     15  C   UNL d   1      56.071  48.811  48.864  0.00  0.00     0.183 A 
ATOM     16  N   UNL d   1      56.057  49.636  49.060  0.00  0.00    -0.222 NA
ATOM     17  C   UNL d   1      56.038  49.705  49.904  0.00  0.00     0.120 A 
ATOM     18  C   UNL d   1      56.040  48.925  50.230  0.00  0.00     0.102 A 
ENDBRANCH  13  14
ENDBRANCH  12  13
ENDBRANCH  11  12
ENDBRANCH  10  11
ENDBRANCH   5  10
BRANCH   8  19
ATOM     19  C   UNL d   1      60.714  46.355  51.161  0.00  0.00     0.036 C 
ATOM     20  C   UNL d   1      61.130  46.347  51.908  0.00  0.00     0.006 C 
ATOM     21  C   UNL d   1      61.285  45.757  51.321  0.00  0.00     0.006 C 
ATOM     22  C   UNL d   1      60.871  45.761  50.573  0.00  0.00     0.006 C 
ENDBRANCH   8  19
BRANCH   4  23
ATOM     23  C   UNL d   1      60.669  49.310  51.493  0.00  0.00     0.004 A 
ATOM     24  C   UNL d   1      60.738  49.431  52.283  0.00  0.00     0.000 A 
ATOM     25  C   UNL d   1      61.473  49.631  52.599  0.00  0.00     0.000 A 
ATOM     26  C   UNL d   1      62.117  49.703  52.113  0.00  0.00     0.000 A 
ATOM     27  C   UNL d   1      62.040  49.578  51.311  0.00  0.00     0.000 A 
ATOM     28  C   UNL d   1      61.304  49.378  50.995  0.00  0.00     0.000 A 
ENDBRANCH   4  23
TORSDOF 7
ENDMDL
MODEL 3
REMARK VINA RESULT:     106.4      1.317      2.613
REMARK  7 active torsions:
REMARK  status: ('A' for Active; 'I' for Inactive)
REMARK    1  A    between atoms: C_14  and  C_4 
REMARK    2  A    between atoms: N_17  and  C_5 
REMARK    3  A    between atoms: C_13  and  C_8 
REMARK    4  A    between atoms: N_11  and  C_18 
REMARK    5  A    between atoms: C_20  and  N_17 
REMARK    6  A    between atoms: C_18  and  C_19 
REMARK    7  A    between atoms: C_19  and  C_20 
ROOT
ATOM      1  C   UNL d   1      61.451  46.871  50.115  0.00  0.00     0.168 A 
ATOM      2  N   UNL d   1      61.292  47.672  50.304  0.00  0.00    -0.184 N 
ATOM      3  N   UNL d   1      61.263  46.283  50.650  0.00  0.00    -0.231 NA
ATOM      4  C   UNL d   1      61.789  46.681  49.406  0.00  0.00     0.057 A 
ATOM      5  C   UNL d   1      60.955  47.839  51.017  0.00  0.00     0.217 A 
ATOM      6  N   UNL d   1      61.818  48.055  49.065  0.00  0.00    -0.160 NA
ATOM      7  C   UNL d   1      60.762  47.257  51.561  0.00  0.00     0.067 A 
ATOM      8  C   UNL d   1      60.918  46.469  51.375  0.00  0.00     0.064 A 
ATOM      9  C   UNL d   1      61.974  47.266  48.879  0.00  0.00     0.124 A 
ENDROOT
BRANCH   5  10
ATOM     10  N   UNL d   1      60.793  48.653  51.209  0.00  0.00    -0.380 NA
BRANCH  10  11
ATOM     11  C   UNL d   1      60.563  49.453  51.376  0.00  0.00     0.164 C 
BRANCH  11  12
ATOM     12  C   UNL d   1      59.782  49.707  51.197  0.00  0.00     0.054 C 
BRANCH  12  13
ATOM     13  C   UNL d   1      59.388  49.407  50.512  0.00  0.00     0.084 C 
BRANCH  13  14
ATOM     14  N   UNL d   1      58.543  49.496  50.439  0.00  0.00    -0.285 N 
ATOM     15  C   UNL d   1      58.125  49.669  49.728  0.00  0.00     0.183 A 
ATOM     16  N   UNL d   1      57.298  49.707  49.916  0.00  0.00    -0.222 NA
ATOM     17  C   UNL d   1      57.211  49.557  50.745  0.00  0.00     0.120 A 
ATOM     18  C   UNL d   1      57.981  49.426  51.069  0.00  0.00     0.102 A 
ENDBRANCH  13  14
ENDBRANCH  12  13
ENDBRANCH  11  12
ENDBRANCH  10  11
ENDBRANCH   5  10
BRANCH   8  19
ATOM     19  C   UNL d   1      60.724  45.851  51.931  0.00  0.00     0.036 C 
ATOM     20  C   UNL d   1      60.259  45.180  51.676  0.00  0.00     0.006 C 
ATOM     21  C   UNL d   1      60.529  45.239  52.476  0.00  0.00     0.006 C 
ATOM     22  C   UNL d   1      60.993  45.908  52.735  0.00  0.00     0.006 C 
ENDBRANCH   8  19
BRANCH   4  23
ATOM     23  C   UNL d   1      61.946  45.892  49.220  0.00  0.00     0.004 A 
ATOM     24  C   UNL d   1      61.333  45.392  49.084  0.00  0.00     0.000 A 
ATOM     25  C   UNL d   1      61.490  44.603  48.898  0.00  0.00     0.000 A 
ATOM     26  C   UNL d   1      62.254  44.340  48.855  0.00  0.00     0.000 A 
ATOM     27  C   UNL d   1      62.872  44.855  48.994  0.00  0.00     0.000 A 
ATOM     28  C   UNL d   1      62.715  45.643  49.180  0.00  0.00     0.000 A 
ENDBRANCH   4  23
TORSDOF 7
ENDMDL
