MODEL 1
REMARK VINA RESULT:      42.2      0.000      0.000
REMARK  5 active torsions:
REMARK  status: ('A' for Active; 'I' for Inactive)
REMARK    1  A    between atoms: N_10  and  C_2 
REMARK    2  A    between atoms: C_14  and  C_3 
REMARK    3  A    between atoms: C_5  and  S_13 
REMARK       I    between atoms: C_12  and  N_10 
REMARK    4  A    between atoms: C_16  and  C_12 
REMARK    5  A    between atoms: S_13  and  C_16 
ROOT
ATOM      1  N   UNL d   1     -50.468  25.948  33.487  0.00  0.00    -0.051 NA
ATOM      2  C   UNL d   1     -50.516  26.768  33.464  0.00  0.00     0.760 A 
ATOM      3  C   UNL d   1     -51.224  25.651  33.391  0.00  0.00     0.147 A 
ATOM      4  N   UNL d   1     -51.295  26.976  33.356  0.00  0.00    -0.019 NA
ATOM      5  S   UNL d   1     -51.735  26.283  33.311  0.00  0.00     0.052 SA
ENDROOT
BRANCH   2   6
ATOM      6  N   UNL d   1     -49.875  27.303  33.540  0.00  0.00    -0.018 NA
ATOM      7  C   UNL d   1     -49.641  27.566  34.278  0.00  0.00     0.302 C 
ATOM      8  O   UNL d   1     -50.037  27.303  34.947  0.00  0.00    -0.264 OA
BRANCH   7   9
ATOM      9  C   UNL d   1     -49.009  28.092  34.353  0.00  0.00     0.100 C 
BRANCH   9  10
ATOM     10  S   UNL d   1     -48.697  28.253  35.102  0.00  0.00    -0.054 SA
BRANCH  10  11
ATOM     11  C   UNL d   1     -48.271  28.948  35.234  0.00  0.00     0.164 A 
ATOM     12  S   UNL d   1     -47.638  29.032  35.746  0.00  0.00    -0.039 SA
ATOM     13  C   UNL d   1     -47.381  29.821  35.703  0.00  0.00     0.134 A 
ATOM     14  C   UNL d   1     -46.752  30.152  36.130  0.00  0.00     0.030 C 
ATOM     15  N   UNL d   1     -47.862  30.217  35.161  0.00  0.00    -0.140 NA
ATOM     16  N   UNL d   1     -48.414  29.678  34.869  0.00  0.00    -0.134 NA
ENDBRANCH  10  11
ENDBRANCH   9  10
ENDBRANCH   7   9
ENDBRANCH   2   6
BRANCH   3  17
ATOM     17  C   UNL d   1     -51.470  24.863  33.374  0.00  0.00     0.026 A 
ATOM     18  C   UNL d   1     -52.273  24.682  33.406  0.00  0.00     0.002 A 
ATOM     19  C   UNL d   1     -52.518  23.890  33.388  0.00  0.00     0.000 A 
ATOM     20  C   UNL d   1     -51.969  23.285  33.340  0.00  0.00     0.000 A 
ATOM     21  C   UNL d   1     -51.167  23.466  33.308  0.00  0.00     0.000 A 
ATOM     22  C   UNL d   1     -50.913  24.260  33.325  0.00  0.00     0.002 A 
ENDBRANCH   3  17
TORSDOF 5
ENDMDL
