MODEL 1
REMARK VINA RESULT:      -7.5      0.000      0.000
REMARK  6 active torsions:
REMARK  status: ('A' for Active; 'I' for Inactive)
REMARK    1  A    between atoms: C_4  and  N_1 
REMARK    2  A    between atoms: N_6  and  C_2 
REMARK    3  A    between atoms: S_10  and  C_7 
REMARK    4  A    between atoms: C_12  and  C_9 
REMARK    5  A    between atoms: C_11  and  S_10 
REMARK    6  A    between atoms: O_24  and  C_20 
ROOT
ATOM      1  N   UNL d   1      51.389  33.767  52.708  0.00  0.00    -0.240 N 
ATOM      2  C   UNL d   1      51.393  34.159  51.992  0.00  0.00     0.268 A 
ATOM      3  C   UNL d   1      50.699  33.946  53.134  0.00  0.00     0.273 A 
ATOM      4  C   UNL d   1      50.264  34.472  52.653  0.00  0.00     0.091 A 
ATOM      5  C   UNL d   1      50.695  34.597  51.959  0.00  0.00     0.072 A 
ATOM      6  O   UNL d   1      51.736  34.284  51.394  0.00  0.00    -0.267 OA
ATOM      7  O   UNL d   1      50.466  33.676  53.875  0.00  0.00    -0.266 OA
ENDROOT
BRANCH   1   8
ATOM      8  C   UNL d   1      51.997  33.259  52.968  0.00  0.00     0.092 A 
ATOM      9  C   UNL d   1      52.645  33.605  53.325  0.00  0.00     0.145 A 
ATOM     10  C   UNL d   1      53.265  33.117  53.592  0.00  0.00     0.049 A 
ATOM     11  C   UNL d   1      53.217  32.300  53.493  0.00  0.00     0.096 A 
ATOM     12  C   UNL d   1      52.539  31.951  53.121  0.00  0.00     0.026 A 
ATOM     13  C   UNL d   1      51.933  32.445  52.861  0.00  0.00     0.021 A 
BRANCH   9  14
ATOM     14  N   UNL d   1      52.681  34.424  53.418  0.00  0.00    -0.112 N 
ATOM     15  O   UNL d   1      52.738  34.749  53.030  0.00  0.00    -0.532 OA
ATOM     16  O   UNL d   1      52.630  34.808  54.148  0.00  0.00    -0.532 OA
ENDBRANCH   9  14
BRANCH  11  17
ATOM     17  O   UNL d   1      53.846  31.836  53.767  0.00  0.00    -0.328 OA
ATOM     18  C   UNL d   1      53.885  31.036  53.602  0.00  0.00     0.181 C 
ENDBRANCH  11  17
ENDBRANCH   1   8
BRANCH   4  19
ATOM     19  S   UNL d   1      49.543  34.760  52.915  0.00  0.00    -0.082 SA
BRANCH  19  20
ATOM     20  C   UNL d   1      48.944  34.950  52.357  0.00  0.00     0.035 A 
ATOM     21  C   UNL d   1      48.363  35.485  52.546  0.00  0.00     0.070 A 
ATOM     22  C   UNL d   1      47.779  35.673  52.008  0.00  0.00     0.007 A 
ATOM     23  C   UNL d   1      47.785  35.308  51.257  0.00  0.00     0.000 A 
ATOM     24  C   UNL d   1      48.376  34.761  51.058  0.00  0.00     0.001 A 
ATOM     25  C   UNL d   1      48.954  34.595  51.633  0.00  0.00     0.007 A 
BRANCH  21  26
ATOM     26  C   UNL d   1      48.342  35.854  53.282  0.00  0.00     0.211 C 
ATOM     27  O   UNL d   1      48.751  36.548  53.427  0.00  0.00    -0.644 OA
ATOM     28  O   UNL d   1      47.892  35.522  53.908  0.00  0.00    -0.644 OA
ENDBRANCH  21  26
ENDBRANCH  19  20
ENDBRANCH   4  19
TORSDOF 6
ENDMDL
MODEL 2
REMARK VINA RESULT:      -7.2      1.339      4.961
REMARK  6 active torsions:
REMARK  status: ('A' for Active; 'I' for Inactive)
REMARK    1  A    between atoms: C_4  and  N_1 
REMARK    2  A    between atoms: N_6  and  C_2 
REMARK    3  A    between atoms: S_10  and  C_7 
REMARK    4  A    between atoms: C_12  and  C_9 
REMARK    5  A    between atoms: C_11  and  S_10 
REMARK    6  A    between atoms: O_24  and  C_20 
ROOT
ATOM      1  N   UNL d   1      51.340  34.305  53.100  0.00  0.00    -0.240 N 
ATOM      2  C   UNL d   1      51.972  34.822  53.085  0.00  0.00     0.268 A 
ATOM      3  C   UNL d   1      51.564  33.580  53.434  0.00  0.00     0.273 A 
ATOM      4  C   UNL d   1      52.373  33.660  53.631  0.00  0.00     0.091 A 
ATOM      5  C   UNL d   1      52.613  34.420  53.415  0.00  0.00     0.072 A 
ATOM      6  O   UNL d   1      52.204  35.460  52.912  0.00  0.00    -0.267 OA
ATOM      7  O   UNL d   1      51.110  32.906  53.557  0.00  0.00    -0.266 OA
ENDROOT
BRANCH   1   8
ATOM      8  C   UNL d   1      50.578  34.490  52.816  0.00  0.00     0.092 A 
ATOM      9  C   UNL d   1      50.429  34.348  52.026  0.00  0.00     0.145 A 
ATOM     10  C   UNL d   1      49.674  34.525  51.720  0.00  0.00     0.049 A 
ATOM     11  C   UNL d   1      49.094  34.838  52.215  0.00  0.00     0.096 A 
ATOM     12  C   UNL d   1      49.259  34.981  53.035  0.00  0.00     0.026 A 
ATOM     13  C   UNL d   1      50.009  34.802  53.324  0.00  0.00     0.021 A 
BRANCH   9  14
ATOM     14  N   UNL d   1      51.019  34.035  51.540  0.00  0.00    -0.112 N 
ATOM     15  O   UNL d   1      51.192  33.558  51.581  0.00  0.00    -0.532 OA
ATOM     16  O   UNL d   1      51.393  34.459  50.938  0.00  0.00    -0.532 OA
ENDBRANCH   9  14
BRANCH  11  17
ATOM     17  O   UNL d   1      48.352  35.005  51.889  0.00  0.00    -0.328 OA
ATOM     18  C   UNL d   1      47.954  35.696  52.073  0.00  0.00     0.181 C 
ENDBRANCH  11  17
ENDBRANCH   1   8
BRANCH   4  19
ATOM     19  S   UNL d   1      52.769  33.032  53.977  0.00  0.00    -0.082 SA
BRANCH  19  20
ATOM     20  C   UNL d   1      53.472  33.176  54.416  0.00  0.00     0.035 A 
ATOM     21  C   UNL d   1      54.090  32.652  54.384  0.00  0.00     0.070 A 
ATOM     22  C   UNL d   1      54.774  32.786  54.808  0.00  0.00     0.007 A 
ATOM     23  C   UNL d   1      54.831  33.474  55.279  0.00  0.00     0.000 A 
ATOM     24  C   UNL d   1      54.203  34.014  55.316  0.00  0.00     0.001 A 
ATOM     25  C   UNL d   1      53.523  33.842  54.869  0.00  0.00     0.007 A 
BRANCH  21  26
ATOM     26  C   UNL d   1      54.050  31.968  53.926  0.00  0.00     0.211 C 
ATOM     27  O   UNL d   1      54.355  31.941  53.167  0.00  0.00    -0.644 OA
ATOM     28  O   UNL d   1      53.691  31.274  54.233  0.00  0.00    -0.644 OA
ENDBRANCH  21  26
ENDBRANCH  19  20
ENDBRANCH   4  19
TORSDOF 6
ENDMDL
MODEL 3
REMARK VINA RESULT:      -6.9      1.364      4.836
REMARK  6 active torsions:
REMARK  status: ('A' for Active; 'I' for Inactive)
REMARK    1  A    between atoms: C_4  and  N_1 
REMARK    2  A    between atoms: N_6  and  C_2 
REMARK    3  A    between atoms: S_10  and  C_7 
REMARK    4  A    between atoms: C_12  and  C_9 
REMARK    5  A    between atoms: C_11  and  S_10 
REMARK    6  A    between atoms: O_24  and  C_20 
ROOT
ATOM      1  N   UNL d   1      50.826  34.148  53.183  0.00  0.00    -0.240 N 
ATOM      2  C   UNL d   1      50.879  33.349  53.346  0.00  0.00     0.268 A 
ATOM      3  C   UNL d   1      51.542  34.530  53.354  0.00  0.00     0.273 A 
ATOM      4  C   UNL d   1      52.057  33.933  53.634  0.00  0.00     0.091 A 
ATOM      5  C   UNL d   1      51.644  33.218  53.625  0.00  0.00     0.072 A 
ATOM      6  O   UNL d   1      50.555  32.729  53.349  0.00  0.00    -0.267 OA
ATOM      7  O   UNL d   1      51.735  35.325  53.275  0.00  0.00    -0.266 OA
ENDROOT
BRANCH   1   8
ATOM      8  C   UNL d   1      50.141  34.520  52.887  0.00  0.00     0.092 A 
ATOM      9  C   UNL d   1      50.013  34.481  52.081  0.00  0.00     0.145 A 
ATOM     10  C   UNL d   1      49.335  34.845  51.762  0.00  0.00     0.049 A 
ATOM     11  C   UNL d   1      48.808  35.237  52.259  0.00  0.00     0.096 A 
ATOM     12  C   UNL d   1      48.949  35.273  53.096  0.00  0.00     0.026 A 
ATOM     13  C   UNL d   1      49.624  34.908  53.397  0.00  0.00     0.021 A 
BRANCH   9  14
ATOM     14  N   UNL d   1      50.549  34.084  51.593  0.00  0.00    -0.112 N 
ATOM     15  O   UNL d   1      50.598  33.578  51.584  0.00  0.00    -0.532 OA
ATOM     16  O   UNL d   1      51.063  34.464  51.070  0.00  0.00    -0.532 OA
ENDBRANCH   9  14
BRANCH  11  17
ATOM     17  O   UNL d   1      48.141  35.592  51.920  0.00  0.00    -0.328 OA
ATOM     18  C   UNL d   1      47.617  36.029  52.371  0.00  0.00     0.181 C 
ENDBRANCH  11  17
ENDBRANCH   1   8
BRANCH   4  19
ATOM     19  S   UNL d   1      52.821  34.128  53.854  0.00  0.00    -0.082 SA
BRANCH  19  20
ATOM     20  C   UNL d   1      53.416  33.534  53.859  0.00  0.00     0.035 A 
ATOM     21  C   UNL d   1      54.030  33.573  54.389  0.00  0.00     0.070 A 
ATOM     22  C   UNL d   1      54.610  32.999  54.398  0.00  0.00     0.007 A 
ATOM     23  C   UNL d   1      54.566  32.369  53.853  0.00  0.00     0.000 A 
ATOM     24  C   UNL d   1      53.942  32.324  53.308  0.00  0.00     0.001 A 
ATOM     25  C   UNL d   1      53.370  32.927  53.330  0.00  0.00     0.007 A 
BRANCH  21  26
ATOM     26  C   UNL d   1      54.089  34.188  54.935  0.00  0.00     0.211 C 
ATOM     27  O   UNL d   1      53.762  34.133  55.682  0.00  0.00    -0.644 OA
ATOM     28  O   UNL d   1      54.492  34.895  54.730  0.00  0.00    -0.644 OA
ENDBRANCH  21  26
ENDBRANCH  19  20
ENDBRANCH   4  19
TORSDOF 6
ENDMDL
MODEL 4
REMARK VINA RESULT:      -6.5      2.327      3.948
REMARK  6 active torsions:
REMARK  status: ('A' for Active; 'I' for Inactive)
REMARK    1  A    between atoms: C_4  and  N_1 
REMARK    2  A    between atoms: N_6  and  C_2 
REMARK    3  A    between atoms: S_10  and  C_7 
REMARK    4  A    between atoms: C_12  and  C_9 
REMARK    5  A    between atoms: C_11  and  S_10 
REMARK    6  A    between atoms: O_24  and  C_20 
ROOT
ATOM      1  N   UNL d   1      53.352  31.452  53.733  0.00  0.00    -0.240 N 
ATOM      2  C   UNL d   1      54.032  31.875  53.569  0.00  0.00     0.268 A 
ATOM      3  C   UNL d   1      52.681  31.927  53.626  0.00  0.00     0.273 A 
ATOM      4  C   UNL d   1      52.966  32.674  53.385  0.00  0.00     0.091 A 
ATOM      5  C   UNL d   1      53.790  32.633  53.353  0.00  0.00     0.072 A 
ATOM      6  O   UNL d   1      54.731  31.870  53.534  0.00  0.00    -0.267 OA
ATOM      7  O   UNL d   1      51.888  31.730  53.727  0.00  0.00    -0.266 OA
ENDROOT
BRANCH   1   8
ATOM      8  C   UNL d   1      53.345  30.654  53.974  0.00  0.00     0.092 A 
ATOM      9  C   UNL d   1      53.326  30.086  53.388  0.00  0.00     0.145 A 
ATOM     10  C   UNL d   1      53.318  29.282  53.605  0.00  0.00     0.049 A 
ATOM     11  C   UNL d   1      53.328  29.072  54.402  0.00  0.00     0.096 A 
ATOM     12  C   UNL d   1      53.347  29.670  55.005  0.00  0.00     0.026 A 
ATOM     13  C   UNL d   1      53.355  30.461  54.775  0.00  0.00     0.021 A 
BRANCH   9  14
ATOM     14  N   UNL d   1      53.316  30.309  52.593  0.00  0.00    -0.112 N 
ATOM     15  O   UNL d   1      53.707  30.540  52.361  0.00  0.00    -0.532 OA
ATOM     16  O   UNL d   1      52.675  30.185  52.087  0.00  0.00    -0.532 OA
ENDBRANCH   9  14
BRANCH  11  17
ATOM     17  O   UNL d   1      53.320  28.267  54.594  0.00  0.00    -0.328 OA
ATOM     18  C   UNL d   1      53.469  28.011  55.356  0.00  0.00     0.181 C 
ENDBRANCH  11  17
ENDBRANCH   1   8
BRANCH   4  19
ATOM     19  S   UNL d   1      52.436  33.280  53.230  0.00  0.00    -0.082 SA
BRANCH  19  20
ATOM     20  C   UNL d   1      52.564  34.040  53.566  0.00  0.00     0.035 A 
ATOM     21  C   UNL d   1      52.124  34.676  53.320  0.00  0.00     0.070 A 
ATOM     22  C   UNL d   1      52.244  35.416  53.643  0.00  0.00     0.007 A 
ATOM     23  C   UNL d   1      52.827  35.511  54.233  0.00  0.00     0.000 A 
ATOM     24  C   UNL d   1      53.280  34.865  54.489  0.00  0.00     0.001 A 
ATOM     25  C   UNL d   1      53.128  34.128  54.136  0.00  0.00     0.007 A 
BRANCH  21  26
ATOM     26  C   UNL d   1      51.545  34.599  52.739  0.00  0.00     0.211 C 
ATOM     27  O   UNL d   1      51.734  34.573  51.944  0.00  0.00    -0.644 OA
ATOM     28  O   UNL d   1      50.735  34.546  52.955  0.00  0.00    -0.644 OA
ENDBRANCH  21  26
ENDBRANCH  19  20
ENDBRANCH   4  19
TORSDOF 6
ENDMDL
MODEL 5
REMARK VINA RESULT:      -6.4      1.337      2.104
REMARK  6 active torsions:
REMARK  status: ('A' for Active; 'I' for Inactive)
REMARK    1  A    between atoms: C_4  and  N_1 
REMARK    2  A    between atoms: N_6  and  C_2 
REMARK    3  A    between atoms: S_10  and  C_7 
REMARK    4  A    between atoms: C_12  and  C_9 
REMARK    5  A    between atoms: C_11  and  S_10 
REMARK    6  A    between atoms: O_24  and  C_20 
ROOT
ATOM      1  N   UNL d   1      51.772  33.568  53.378  0.00  0.00    -0.240 N 
ATOM      2  C   UNL d   1      51.150  33.089  53.604  0.00  0.00     0.268 A 
ATOM      3  C   UNL d   1      51.517  34.139  52.833  0.00  0.00     0.273 A 
ATOM      4  C   UNL d   1      50.700  34.000  52.722  0.00  0.00     0.091 A 
ATOM      5  C   UNL d   1      50.485  33.358  53.196  0.00  0.00     0.072 A 
ATOM      6  O   UNL d   1      50.939  32.548  53.995  0.00  0.00    -0.267 OA
ATOM      7  O   UNL d   1      51.953  34.729  52.462  0.00  0.00    -0.266 OA
ENDROOT
BRANCH   1   8
ATOM      8  C   UNL d   1      52.552  33.486  53.661  0.00  0.00     0.092 A 
ATOM      9  C   UNL d   1      53.025  32.927  53.299  0.00  0.00     0.145 A 
ATOM     10  C   UNL d   1      53.808  32.828  53.565  0.00  0.00     0.049 A 
ATOM     11  C   UNL d   1      54.092  33.291  54.184  0.00  0.00     0.096 A 
ATOM     12  C   UNL d   1      53.593  33.870  54.554  0.00  0.00     0.026 A 
ATOM     13  C   UNL d   1      52.821  33.957  54.281  0.00  0.00     0.021 A 
BRANCH   9  14
ATOM     14  N   UNL d   1      52.727  32.469  52.679  0.00  0.00    -0.112 N 
ATOM     15  O   UNL d   1      52.588  32.662  52.229  0.00  0.00    -0.532 OA
ATOM     16  O   UNL d   1      52.623  31.650  52.720  0.00  0.00    -0.532 OA
ENDBRANCH   9  14
BRANCH  11  17
ATOM     17  O   UNL d   1      54.874  33.175  54.431  0.00  0.00    -0.328 OA
ATOM     18  C   UNL d   1      55.193  33.608  55.047  0.00  0.00     0.181 C 
ENDBRANCH  11  17
ENDBRANCH   1   8
BRANCH   4  19
ATOM     19  S   UNL d   1      50.274  34.476  52.209  0.00  0.00    -0.082 SA
BRANCH  19  20
ATOM     20  C   UNL d   1      49.574  34.855  52.479  0.00  0.00     0.035 A 
ATOM     21  C   UNL d   1      48.931  34.927  51.989  0.00  0.00     0.070 A 
ATOM     22  C   UNL d   1      48.249  35.294  52.246  0.00  0.00     0.007 A 
ATOM     23  C   UNL d   1      48.220  35.598  53.023  0.00  0.00     0.000 A 
ATOM     24  C   UNL d   1      48.874  35.528  53.529  0.00  0.00     0.001 A 
ATOM     25  C   UNL d   1      49.550  35.147  53.231  0.00  0.00     0.007 A 
BRANCH  21  26
ATOM     26  C   UNL d   1      48.943  34.633  51.219  0.00  0.00     0.211 C 
ATOM     27  O   UNL d   1      48.404  34.072  50.964  0.00  0.00    -0.644 OA
ATOM     28  O   UNL d   1      49.518  34.906  50.672  0.00  0.00    -0.644 OA
ENDBRANCH  21  26
ENDBRANCH  19  20
ENDBRANCH   4  19
TORSDOF 6
ENDMDL
MODEL 6
REMARK VINA RESULT:      -6.2      3.473      5.283
REMARK  6 active torsions:
REMARK  status: ('A' for Active; 'I' for Inactive)
REMARK    1  A    between atoms: C_4  and  N_1 
REMARK    2  A    between atoms: N_6  and  C_2 
REMARK    3  A    between atoms: S_10  and  C_7 
REMARK    4  A    between atoms: C_12  and  C_9 
REMARK    5  A    between atoms: C_11  and  S_10 
REMARK    6  A    between atoms: O_24  and  C_20 
ROOT
ATOM      1  N   UNL d   1      53.814  32.986  53.982  0.00  0.00    -0.240 N 
ATOM      2  C   UNL d   1      54.430  32.734  53.508  0.00  0.00     0.268 A 
ATOM      3  C   UNL d   1      53.402  32.337  54.294  0.00  0.00     0.273 A 
ATOM      4  C   UNL d   1      53.787  31.657  53.995  0.00  0.00     0.091 A 
ATOM      5  C   UNL d   1      54.412  31.910  53.517  0.00  0.00     0.072 A 
ATOM      6  O   UNL d   1      54.966  32.918  53.098  0.00  0.00    -0.267 OA
ATOM      7  O   UNL d   1      52.749  32.331  54.795  0.00  0.00    -0.266 OA
ENDROOT
BRANCH   1   8
ATOM      8  C   UNL d   1      53.631  33.786  54.127  0.00  0.00     0.092 A 
ATOM      9  C   UNL d   1      54.015  34.151  54.749  0.00  0.00     0.145 A 
ATOM     10  C   UNL d   1      53.849  34.951  54.912  0.00  0.00     0.049 A 
ATOM     11  C   UNL d   1      53.304  35.359  54.448  0.00  0.00     0.096 A 
ATOM     12  C   UNL d   1      52.910  34.972  53.804  0.00  0.00     0.026 A 
ATOM     13  C   UNL d   1      53.084  34.181  53.654  0.00  0.00     0.021 A 
BRANCH   9  14
ATOM     14  N   UNL d   1      54.559  33.730  55.206  0.00  0.00    -0.112 N 
ATOM     15  O   UNL d   1      54.430  33.345  55.513  0.00  0.00    -0.532 OA
ATOM     16  O   UNL d   1      55.370  33.886  55.217  0.00  0.00    -0.532 OA
ENDBRANCH   9  14
BRANCH  11  17
ATOM     17  O   UNL d   1      53.155  36.153  54.630  0.00  0.00    -0.328 OA
ATOM     18  C   UNL d   1      52.428  36.394  54.916  0.00  0.00     0.181 C 
ENDBRANCH  11  17
ENDBRANCH   1   8
BRANCH   4  19
ATOM     19  S   UNL d   1      53.513  30.913  54.201  0.00  0.00    -0.082 SA
BRANCH  19  20
ATOM     20  C   UNL d   1      53.232  30.394  53.602  0.00  0.00     0.035 A 
ATOM     21  C   UNL d   1      53.141  29.603  53.755  0.00  0.00     0.070 A 
ATOM     22  C   UNL d   1      52.868  29.094  53.178  0.00  0.00     0.007 A 
ATOM     23  C   UNL d   1      52.683  29.399  52.423  0.00  0.00     0.000 A 
ATOM     24  C   UNL d   1      52.774  30.207  52.260  0.00  0.00     0.001 A 
ATOM     25  C   UNL d   1      53.054  30.693  52.874  0.00  0.00     0.007 A 
BRANCH  21  26
ATOM     26  C   UNL d   1      53.319  29.284  54.494  0.00  0.00     0.211 C 
ATOM     27  O   UNL d   1      52.778  29.292  55.108  0.00  0.00    -0.644 OA
ATOM     28  O   UNL d   1      54.072  28.941  54.635  0.00  0.00    -0.644 OA
ENDBRANCH  21  26
ENDBRANCH  19  20
ENDBRANCH   4  19
TORSDOF 6
ENDMDL
