MODEL 1
REMARK VINA RESULT:      -2.0      0.000      0.000
REMARK  3 active torsions:
REMARK  status: ('A' for Active; 'I' for Inactive)
REMARK    1  A    between atoms: C_8  and  N_2 
REMARK    2  A    between atoms: C_12  and  C_8 
REMARK    3  A    between atoms: N_11  and  C_12 
ROOT
ATOM      1  C   UNL d   1      33.171  20.890 -22.256  0.00  0.00     0.166 A 
ATOM      2  N   UNL d   1      33.162  20.373 -22.902  0.00  0.00    -0.288 N 
ATOM      3  C   UNL d   1      33.200  21.665 -22.539  0.00  0.00     0.117 A 
ATOM      4  N   UNL d   1      33.155  20.738 -21.446  0.00  0.00    -0.225 NA
ATOM      5  N   UNL d   1      33.215  22.291 -22.008  0.00  0.00    -0.241 NA
ATOM      6  C   UNL d   1      33.210  21.629 -23.364  0.00  0.00     0.037 A 
ATOM      7  C   UNL d   1      33.186  20.842 -23.575  0.00  0.00     0.067 A 
ATOM      8  C   UNL d   1      33.169  21.359 -20.914  0.00  0.00     0.101 A 
ATOM      9  C   UNL d   1      33.199  22.135 -21.195  0.00  0.00     0.099 A 
ATOM     10  C   UNL d   1      33.238  22.248 -23.933  0.00  0.00     0.003 A 
ATOM     11  C   UNL d   1      33.189  20.639 -24.386  0.00  0.00     0.018 A 
ATOM     12  C   UNL d   1      33.154  21.202 -20.101  0.00  0.00     0.021 A 
ATOM     13  C   UNL d   1      33.210  22.671 -20.661  0.00  0.00     0.021 A 
ATOM     14  C   UNL d   1      33.241  22.045 -24.720  0.00  0.00     0.000 A 
ATOM     15  C   UNL d   1      33.216  21.257 -24.874  0.00  0.00     0.002 A 
ATOM     16  C   UNL d   1      33.198  22.601 -19.853  0.00  0.00     0.002 A 
ATOM     17  C   UNL d   1      33.168  21.821 -19.574  0.00  0.00     0.002 A 
ENDROOT
BRANCH   2  18
ATOM     18  C   UNL d   1      33.141  19.629 -23.257  0.00  0.00     0.101 C 
BRANCH  18  19
ATOM     19  C   UNL d   1      32.635  19.192 -22.796  0.00  0.00     0.100 C 
BRANCH  19  20
ATOM     20  N   UNL d   1      32.657  18.433 -23.118  0.00  0.00    -0.298 N 
ATOM     21  C   UNL d   1      33.219  17.890 -22.856  0.00  0.00     0.107 A 
ATOM     22  C   UNL d   1      33.240  17.131 -23.179  0.00  0.00     0.142 A 
ATOM     23  O   UNL d   1      32.699  16.912 -23.767  0.00  0.00    -0.300 OA
ATOM     24  C   UNL d   1      32.137  17.456 -24.029  0.00  0.00     0.142 A 
ATOM     25  C   UNL d   1      32.116  18.218 -23.704  0.00  0.00     0.107 A 
ENDBRANCH  19  20
ENDBRANCH  18  19
ENDBRANCH   2  18
TORSDOF 3
ENDMDL
MODEL 2
REMARK VINA RESULT:      -0.5      3.009      4.852
REMARK  3 active torsions:
REMARK  status: ('A' for Active; 'I' for Inactive)
REMARK    1  A    between atoms: C_8  and  N_2 
REMARK    2  A    between atoms: C_12  and  C_8 
REMARK    3  A    between atoms: N_11  and  C_12 
ROOT
ATOM      1  C   UNL d   1      31.660  17.773 -24.331  0.00  0.00     0.166 A 
ATOM      2  N   UNL d   1      31.207  17.085 -24.253  0.00  0.00    -0.288 N 
ATOM      3  C   UNL d   1      32.377  17.662 -23.936  0.00  0.00     0.117 A 
ATOM      4  N   UNL d   1      31.497  18.483 -24.716  0.00  0.00    -0.225 NA
ATOM      5  N   UNL d   1      32.933  18.266 -23.927  0.00  0.00    -0.241 NA
ATOM      6  C   UNL d   1      32.368  16.902 -23.613  0.00  0.00     0.037 A 
ATOM      7  C   UNL d   1      31.655  16.560 -23.810  0.00  0.00     0.067 A 
ATOM      8  C   UNL d   1      32.049  19.087 -24.709  0.00  0.00     0.101 A 
ATOM      9  C   UNL d   1      32.766  18.978 -24.315  0.00  0.00     0.099 A 
ATOM     10  C   UNL d   1      32.951  16.500 -23.157  0.00  0.00     0.003 A 
ATOM     11  C   UNL d   1      31.494  15.780 -23.552  0.00  0.00     0.018 A 
ATOM     12  C   UNL d   1      31.881  19.799 -25.097  0.00  0.00     0.021 A 
ATOM     13  C   UNL d   1      33.241  19.567 -24.339  0.00  0.00     0.021 A 
ATOM     14  C   UNL d   1      32.789  15.744 -22.910  0.00  0.00     0.000 A 
ATOM     15  C   UNL d   1      32.074  15.453 -23.130  0.00  0.00     0.002 A 
ATOM     16  C   UNL d   1      33.152  20.291 -24.694  0.00  0.00     0.002 A 
ATOM     17  C   UNL d   1      32.431  20.397 -25.089  0.00  0.00     0.002 A 
ENDROOT
BRANCH   2  18
ATOM     18  C   UNL d   1      30.538  16.619 -24.377  0.00  0.00     0.101 C 
BRANCH  18  19
ATOM     19  C   UNL d   1      29.954  17.144 -24.584  0.00  0.00     0.100 C 
BRANCH  19  20
ATOM     20  N   UNL d   1      29.250  16.722 -24.499  0.00  0.00    -0.298 N 
ATOM     21  C   UNL d   1      29.056  16.130 -25.039  0.00  0.00     0.107 A 
ATOM     22  C   UNL d   1      28.351  15.709 -24.953  0.00  0.00     0.142 A 
ATOM     23  O   UNL d   1      27.838  15.879 -24.325  0.00  0.00    -0.300 OA
ATOM     24  C   UNL d   1      28.032  16.472 -23.785  0.00  0.00     0.142 A 
ATOM     25  C   UNL d   1      28.740  16.894 -23.873  0.00  0.00     0.107 A 
ENDBRANCH  19  20
ENDBRANCH  18  19
ENDBRANCH   2  18
TORSDOF 3
ENDMDL
