MODEL 1
REMARK VINA RESULT:      77.6      0.000      0.000
REMARK  6 active torsions:
REMARK  status: ('A' for Active; 'I' for Inactive)
REMARK    1  A    between atoms: C_7  and  C_1 
REMARK    2  A    between atoms: C_6  and  O_13 
REMARK    3  A    between atoms: C_12  and  C_6 
REMARK    4  A    between atoms: O_13  and  C_10 
REMARK    5  A    between atoms: C_28  and  C_14 
REMARK    6  A    between atoms: C_31  and  C_28 
ROOT
ATOM      1  C   UNL d   1      14.716  16.825  -4.061  0.00  0.00     0.064 A 
ATOM      2  C   UNL d   1      14.788  16.209  -2.779  0.00  0.00     0.062 A 
ATOM      3  C   UNL d   1      14.891  16.871  -3.258  0.00  0.00     0.199 A 
ATOM      4  C   UNL d   1      14.440  16.119  -4.385  0.00  0.00     0.126 A 
ATOM      5  C   UNL d   1      14.512  15.503  -3.102  0.00  0.00     0.105 A 
ATOM      6  O   UNL d   1      14.337  15.458  -3.906  0.00  0.00    -0.305 OA
ATOM      7  C   UNL d   1      14.963  16.254  -1.976  0.00  0.00     0.007 A 
ATOM      8  C   UNL d   1      14.585  14.885  -1.816  0.00  0.00     0.105 A 
ATOM      9  C   UNL d   1      14.410  14.841  -2.623  0.00  0.00     0.050 A 
ATOM     10  C   UNL d   1      14.861  15.590  -1.492  0.00  0.00     0.023 A 
ATOM     11  O   UNL d   1      15.167  17.577  -2.934  0.00  0.00    -0.286 OA
ENDROOT
BRANCH   1  12
ATOM     12  C   UNL d   1      14.818  17.487  -4.541  0.00  0.00     0.007 A 
ATOM     13  C   UNL d   1      14.156  17.913  -4.816  0.00  0.00     0.027 A 
ATOM     14  C   UNL d   1      14.253  18.569  -5.291  0.00  0.00     0.123 A 
ATOM     15  O   UNL d   1      13.595  18.985  -5.560  0.00  0.00    -0.301 OA
ATOM     16  C   UNL d   1      15.021  18.820  -5.507  0.00  0.00     0.123 A 
ATOM     17  C   UNL d   1      13.696  19.650  -6.042  0.00  0.00     0.149 A 
ATOM     18  C   UNL d   1      14.452  19.901  -6.256  0.00  0.00     0.149 A 
ATOM     19  O   UNL d   1      15.120  19.481  -5.986  0.00  0.00    -0.301 OA
ATOM     20  C   UNL d   1      15.684  18.394  -5.232  0.00  0.00     0.027 A 
ATOM     21  C   UNL d   1      15.581  17.733  -4.753  0.00  0.00     0.002 A 
ENDBRANCH   1  12
BRANCH  10  22
ATOM     22  C   UNL d   1      15.036  15.632  -0.681  0.00  0.00     0.002 C 
BRANCH  22  23
ATOM     23  C   UNL d   1      15.776  15.892  -0.432  0.00  0.00     0.000 C 
ATOM     24  C   UNL d   1      15.849  16.595  -0.016  0.00  0.00     0.000 C 
ENDBRANCH  22  23
ENDBRANCH  10  22
BRANCH   8  25
ATOM     25  O   UNL d   1      14.483  14.219  -1.329  0.00  0.00    -0.271 OA
BRANCH  25  26
ATOM     26  C   UNL d   1      14.632  13.464  -1.624  0.00  0.00     0.323 C 
ATOM     27  O   UNL d   1      14.938  13.364  -2.379  0.00  0.00    -0.257 OA
BRANCH  26  28
ATOM     28  C   UNL d   1      14.473  12.799  -1.156  0.00  0.00     0.163 A 
ATOM     29  O   UNL d   1      13.751  12.410  -1.093  0.00  0.00    -0.300 OA
ATOM     30  C   UNL d   1      13.835  11.779  -0.568  0.00  0.00     0.123 A 
ATOM     31  C   UNL d   1      14.623  11.780  -0.304  0.00  0.00     0.029 A 
ATOM     32  C   UNL d   1      15.014  12.415  -0.672  0.00  0.00     0.032 A 
ENDBRANCH  26  28
ENDBRANCH  25  26
ENDBRANCH   8  25
TORSDOF 6
ENDMDL
MODEL 2
REMARK VINA RESULT:      78.2      1.662      2.291
REMARK  6 active torsions:
REMARK  status: ('A' for Active; 'I' for Inactive)
REMARK    1  A    between atoms: C_7  and  C_1 
REMARK    2  A    between atoms: C_6  and  O_13 
REMARK    3  A    between atoms: C_12  and  C_6 
REMARK    4  A    between atoms: O_13  and  C_10 
REMARK    5  A    between atoms: C_28  and  C_14 
REMARK    6  A    between atoms: C_31  and  C_28 
ROOT
ATOM      1  C   UNL d   1      14.349  17.752  -5.270  0.00  0.00     0.064 A 
ATOM      2  C   UNL d   1      14.315  16.655  -4.361  0.00  0.00     0.062 A 
ATOM      3  C   UNL d   1      14.590  17.405  -4.564  0.00  0.00     0.199 A 
ATOM      4  C   UNL d   1      13.835  17.351  -5.773  0.00  0.00     0.126 A 
ATOM      5  C   UNL d   1      13.800  16.254  -4.864  0.00  0.00     0.105 A 
ATOM      6  O   UNL d   1      13.559  16.602  -5.571  0.00  0.00    -0.305 OA
ATOM      7  C   UNL d   1      14.556  16.309  -3.654  0.00  0.00     0.007 A 
ATOM      8  C   UNL d   1      13.766  15.155  -3.952  0.00  0.00     0.105 A 
ATOM      9  C   UNL d   1      13.525  15.506  -4.662  0.00  0.00     0.050 A 
ATOM     10  C   UNL d   1      14.281  15.556  -3.449  0.00  0.00     0.023 A 
ATOM     11  O   UNL d   1      15.106  17.807  -4.060  0.00  0.00    -0.286 OA
ENDROOT
BRANCH   1  12
ATOM     12  C   UNL d   1      14.625  18.502  -5.473  0.00  0.00     0.007 A 
ATOM     13  C   UNL d   1      14.106  19.156  -5.467  0.00  0.00     0.027 A 
ATOM     14  C   UNL d   1      14.375  19.899  -5.667  0.00  0.00     0.123 A 
ATOM     15  O   UNL d   1      13.859  20.541  -5.660  0.00  0.00    -0.301 OA
ATOM     16  C   UNL d   1      15.176  20.012  -5.881  0.00  0.00     0.123 A 
ATOM     17  C   UNL d   1      14.133  21.294  -5.863  0.00  0.00     0.149 A 
ATOM     18  C   UNL d   1      14.923  21.409  -6.074  0.00  0.00     0.149 A 
ATOM     19  O   UNL d   1      15.448  20.761  -6.083  0.00  0.00    -0.301 OA
ATOM     20  C   UNL d   1      15.694  19.358  -5.887  0.00  0.00     0.027 A 
ATOM     21  C   UNL d   1      15.419  18.610  -5.684  0.00  0.00     0.002 A 
ENDBRANCH   1  12
BRANCH  10  22
ATOM     22  C   UNL d   1      14.521  15.202  -2.737  0.00  0.00     0.002 C 
BRANCH  22  23
ATOM     23  C   UNL d   1      14.674  15.668  -2.076  0.00  0.00     0.000 C 
ATOM     24  C   UNL d   1      15.110  15.367  -1.450  0.00  0.00     0.000 C 
ENDBRANCH  22  23
ENDBRANCH  10  22
BRANCH   8  25
ATOM     25  O   UNL d   1      13.490  14.399  -3.744  0.00  0.00    -0.271 OA
BRANCH  25  26
ATOM     26  C   UNL d   1      13.153  13.910  -4.317  0.00  0.00     0.323 C 
ATOM     27  O   UNL d   1      12.771  14.231  -4.967  0.00  0.00    -0.257 OA
BRANCH  26  28
ATOM     28  C   UNL d   1      13.201  13.087  -4.234  0.00  0.00     0.163 A 
ATOM     29  O   UNL d   1      13.481  12.557  -4.797  0.00  0.00    -0.300 OA
ATOM     30  C   UNL d   1      13.431  11.793  -4.489  0.00  0.00     0.123 A 
ATOM     31  C   UNL d   1      13.115  11.855  -3.724  0.00  0.00     0.029 A 
ATOM     32  C   UNL d   1      12.974  12.659  -3.571  0.00  0.00     0.032 A 
ENDBRANCH  26  28
ENDBRANCH  25  26
ENDBRANCH   8  25
TORSDOF 6
ENDMDL
MODEL 3
REMARK VINA RESULT:      78.2      1.559      6.006
REMARK  6 active torsions:
REMARK  status: ('A' for Active; 'I' for Inactive)
REMARK    1  A    between atoms: C_7  and  C_1 
REMARK    2  A    between atoms: C_6  and  O_13 
REMARK    3  A    between atoms: C_12  and  C_6 
REMARK    4  A    between atoms: O_13  and  C_10 
REMARK    5  A    between atoms: C_28  and  C_14 
REMARK    6  A    between atoms: C_31  and  C_28 
ROOT
ATOM      1  C   UNL d   1      13.862  14.068  -3.811  0.00  0.00     0.064 A 
ATOM      2  C   UNL d   1      14.214  15.366  -4.283  0.00  0.00     0.062 A 
ATOM      3  C   UNL d   1      14.231  14.794  -3.690  0.00  0.00     0.199 A 
ATOM      4  C   UNL d   1      13.478  13.913  -4.523  0.00  0.00     0.126 A 
ATOM      5  C   UNL d   1      13.830  15.211  -4.995  0.00  0.00     0.105 A 
ATOM      6  O   UNL d   1      13.461  14.484  -5.116  0.00  0.00    -0.305 OA
ATOM      7  C   UNL d   1      14.583  16.092  -4.162  0.00  0.00     0.007 A 
ATOM      8  C   UNL d   1      14.183  16.512  -5.469  0.00  0.00     0.105 A 
ATOM      9  C   UNL d   1      13.813  15.782  -5.588  0.00  0.00     0.050 A 
ATOM     10  C   UNL d   1      14.567  16.667  -4.756  0.00  0.00     0.023 A 
ATOM     11  O   UNL d   1      14.616  14.949  -2.977  0.00  0.00    -0.286 OA
ENDROOT
BRANCH   1  12
ATOM     12  C   UNL d   1      13.879  13.497  -3.217  0.00  0.00     0.007 A 
ATOM     13  C   UNL d   1      14.263  13.653  -2.493  0.00  0.00     0.027 A 
ATOM     14  C   UNL d   1      14.281  13.090  -1.904  0.00  0.00     0.123 A 
ATOM     15  O   UNL d   1      14.662  13.251  -1.191  0.00  0.00    -0.301 OA
ATOM     16  C   UNL d   1      13.914  12.348  -2.021  0.00  0.00     0.123 A 
ATOM     17  C   UNL d   1      14.679  12.678  -0.595  0.00  0.00     0.149 A 
ATOM     18  C   UNL d   1      14.318  11.945  -0.707  0.00  0.00     0.149 A 
ATOM     19  O   UNL d   1      13.932  11.780  -1.428  0.00  0.00    -0.301 OA
ATOM     20  C   UNL d   1      13.530  12.191  -2.745  0.00  0.00     0.027 A 
ATOM     21  C   UNL d   1      13.513  12.762  -3.338  0.00  0.00     0.002 A 
ENDBRANCH   1  12
BRANCH  10  22
ATOM     22  C   UNL d   1      14.938  17.401  -4.638  0.00  0.00     0.002 C 
BRANCH  22  23
ATOM     23  C   UNL d   1      15.668  17.439  -4.261  0.00  0.00     0.000 C 
ATOM     24  C   UNL d   1      15.737  17.795  -3.526  0.00  0.00     0.000 C 
ENDBRANCH  22  23
ENDBRANCH  10  22
BRANCH   8  25
ATOM     25  O   UNL d   1      14.168  17.091  -6.065  0.00  0.00    -0.271 OA
BRANCH  25  26
ATOM     26  C   UNL d   1      13.467  17.491  -6.236  0.00  0.00     0.323 C 
ATOM     27  O   UNL d   1      12.769  17.077  -6.354  0.00  0.00    -0.257 OA
BRANCH  26  28
ATOM     28  C   UNL d   1      13.467  18.318  -6.288  0.00  0.00     0.163 A 
ATOM     29  O   UNL d   1      12.805  18.802  -6.341  0.00  0.00    -0.300 OA
ATOM     30  C   UNL d   1      13.054  19.588  -6.383  0.00  0.00     0.123 A 
ATOM     31  C   UNL d   1      13.884  19.586  -6.355  0.00  0.00     0.029 A 
ATOM     32  C   UNL d   1      14.135  18.796  -6.296  0.00  0.00     0.032 A 
ENDBRANCH  26  28
ENDBRANCH  25  26
ENDBRANCH   8  25
TORSDOF 6
ENDMDL
