MODEL 1
REMARK VINA RESULT:       3.1      0.000      0.000
REMARK  2 active torsions:
REMARK  status: ('A' for Active; 'I' for Inactive)
REMARK       I    between atoms: N_2  and  C_1 
REMARK    1  A    between atoms: C_4  and  N_2 
REMARK    2  A    between atoms: O_8  and  C_7 
ROOT
ATOM      1  C   UNL d   1      46.646 -19.608  42.855  0.00  0.00     0.102 A 
ATOM      2  C   UNL d   1      46.647 -18.834  42.569  0.00  0.00     0.044 A 
ATOM      3  C   UNL d   1      46.646 -18.693  41.755  0.00  0.00     0.096 A 
ATOM      4  C   UNL d   1      46.643 -20.104  41.516  0.00  0.00     0.004 A 
ATOM      5  C   UNL d   1      46.644 -20.244  42.330  0.00  0.00     0.020 A 
ATOM      6  C   UNL d   1      46.644 -19.330  41.229  0.00  0.00     0.024 A 
ENDROOT
BRANCH   1   7
ATOM      7  N   UNL d   1      46.647 -19.752  43.670  0.00  0.00    -0.056 NA
ATOM      8  C   UNL d   1      45.968 -20.045  44.045  0.00  0.00     0.787 C 
ATOM      9  N   UNL d   1      45.965 -20.190  44.857  0.00  0.00     0.064 N 
ATOM     10  N   UNL d   1      45.289 -20.192  43.596  0.00  0.00     0.064 N 
ENDBRANCH   1   7
BRANCH   3  11
ATOM     11  O   UNL d   1      46.647 -17.919  41.468  0.00  0.00    -0.328 OA
ATOM     12  C   UNL d   1      46.559 -17.777  40.660  0.00  0.00     0.181 C 
ENDBRANCH   3  11
TORSDOF 2
ENDMDL
MODEL 2
REMARK VINA RESULT:       3.3      7.350      7.711
REMARK  2 active torsions:
REMARK  status: ('A' for Active; 'I' for Inactive)
REMARK       I    between atoms: N_2  and  C_1 
REMARK    1  A    between atoms: C_4  and  N_2 
REMARK    2  A    between atoms: O_8  and  C_7 
ROOT
ATOM      1  C   UNL d   1      44.737 -15.076  36.798  0.00  0.00     0.102 A 
ATOM      2  C   UNL d   1      43.927 -14.919  36.832  0.00  0.00     0.044 A 
ATOM      3  C   UNL d   1      43.382 -15.502  36.621  0.00  0.00     0.096 A 
ATOM      4  C   UNL d   1      44.460 -16.401  36.342  0.00  0.00     0.004 A 
ATOM      5  C   UNL d   1      45.005 -15.818  36.553  0.00  0.00     0.020 A 
ATOM      6  C   UNL d   1      43.650 -16.244  36.376  0.00  0.00     0.024 A 
ENDROOT
BRANCH   1   7
ATOM      7  N   UNL d   1      45.285 -14.494  37.008  0.00  0.00    -0.056 NA
ATOM      8  C   UNL d   1      46.097 -14.664  37.014  0.00  0.00     0.787 C 
ATOM      9  N   UNL d   1      46.646 -14.086  37.223  0.00  0.00     0.064 N 
ATOM     10  N   UNL d   1      46.352 -15.423  36.808  0.00  0.00     0.064 N 
ENDBRANCH   1   7
BRANCH   3  11
ATOM     11  O   UNL d   1      42.572 -15.344  36.655  0.00  0.00    -0.328 OA
ATOM     12  C   UNL d   1      42.030 -15.905  36.386  0.00  0.00     0.181 C 
ENDBRANCH   3  11
TORSDOF 2
ENDMDL
MODEL 3
REMARK VINA RESULT:       3.3      1.876      2.779
REMARK  2 active torsions:
REMARK  status: ('A' for Active; 'I' for Inactive)
REMARK       I    between atoms: N_2  and  C_1 
REMARK    1  A    between atoms: C_4  and  N_2 
REMARK    2  A    between atoms: O_8  and  C_7 
ROOT
ATOM      1  C   UNL d   1      46.636 -19.038  42.648  0.00  0.00     0.102 A 
ATOM      2  C   UNL d   1      46.622 -18.686  43.396  0.00  0.00     0.044 A 
ATOM      3  C   UNL d   1      46.616 -19.156  44.074  0.00  0.00     0.096 A 
ATOM      4  C   UNL d   1      46.639 -20.330  43.256  0.00  0.00     0.004 A 
ATOM      5  C   UNL d   1      46.645 -19.860  42.578  0.00  0.00     0.020 A 
ATOM      6  C   UNL d   1      46.625 -19.978  44.004  0.00  0.00     0.024 A 
ENDROOT
BRANCH   1   7
ATOM      7  N   UNL d   1      46.642 -18.570  41.966  0.00  0.00    -0.056 NA
ATOM      8  C   UNL d   1      46.636 -18.922  41.216  0.00  0.00     0.787 C 
ATOM      9  N   UNL d   1      46.642 -18.458  40.534  0.00  0.00     0.064 N 
ATOM     10  N   UNL d   1      46.624 -19.746  41.157  0.00  0.00     0.064 N 
ENDBRANCH   1   7
BRANCH   3  11
ATOM     11  O   UNL d   1      46.601 -18.804  44.822  0.00  0.00    -0.328 OA
ATOM     12  C   UNL d   1      46.214 -18.084  44.933  0.00  0.00     0.181 C 
ENDBRANCH   3  11
TORSDOF 2
ENDMDL
MODEL 4
REMARK VINA RESULT:       5.2      6.571      7.396
REMARK  2 active torsions:
REMARK  status: ('A' for Active; 'I' for Inactive)
REMARK       I    between atoms: N_2  and  C_1 
REMARK    1  A    between atoms: C_4  and  N_2 
REMARK    2  A    between atoms: O_8  and  C_7 
ROOT
ATOM      1  C   UNL d   1      44.064 -15.624  36.705  0.00  0.00     0.102 A 
ATOM      2  C   UNL d   1      44.729 -15.203  36.454  0.00  0.00     0.044 A 
ATOM      3  C   UNL d   1      45.469 -15.364  36.784  0.00  0.00     0.096 A 
ATOM      4  C   UNL d   1      44.875 -16.366  37.616  0.00  0.00     0.004 A 
ATOM      5  C   UNL d   1      44.136 -16.206  37.286  0.00  0.00     0.020 A 
ATOM      6  C   UNL d   1      45.541 -15.946  37.365  0.00  0.00     0.024 A 
ENDROOT
BRANCH   1   7
ATOM      7  N   UNL d   1      43.321 -15.465  36.376  0.00  0.00    -0.056 NA
ATOM      8  C   UNL d   1      42.650 -15.416  36.860  0.00  0.00     0.787 C 
ATOM      9  N   UNL d   1      41.908 -15.258  36.536  0.00  0.00     0.064 N 
ATOM     10  N   UNL d   1      42.731 -15.527  37.675  0.00  0.00     0.064 N 
ENDBRANCH   1   7
BRANCH   3  11
ATOM     11  O   UNL d   1      46.134 -14.944  36.534  0.00  0.00    -0.328 OA
ATOM     12  C   UNL d   1      46.613 -14.559  37.086  0.00  0.00     0.181 C 
ENDBRANCH   3  11
TORSDOF 2
ENDMDL
