MODEL 1
REMARK VINA RESULT:      -5.4      0.000      0.000
REMARK  3 active torsions:
REMARK  status: ('A' for Active; 'I' for Inactive)
REMARK    1  A    between atoms: C_2  and  O_1 
REMARK    2  A    between atoms: C_5  and  O_1 
REMARK    3  A    between atoms: C_10  and  C_5 
ROOT
ATOM      1  O   UNL d   1     -41.700-122.925 -53.088  0.00  0.00    -0.305 OA
ENDROOT
BRANCH   1   2
ATOM      2  C   UNL d   1     -41.820-122.610 -53.850  0.00  0.00     0.100 A 
ATOM      3  C   UNL d   1     -41.381-122.891 -54.505  0.00  0.00     0.026 A 
ATOM      4  C   UNL d   1     -41.508-122.572 -55.255  0.00  0.00     0.023 A 
ATOM      5  C   UNL d   1     -42.068-121.975 -55.358  0.00  0.00     0.103 A 
ATOM      6  C   UNL d   1     -42.518-121.686 -54.686  0.00  0.00     0.023 A 
ATOM      7  N   UNL d   1     -42.204-121.643 -56.119  0.00  0.00    -0.148 N 
ATOM      8  C   UNL d   1     -42.380-122.013 -53.953  0.00  0.00     0.026 A 
ENDBRANCH   1   2
BRANCH   1   9
ATOM      9  C   UNL d   1     -41.123-122.601 -52.601  0.00  0.00     0.122 C 
BRANCH   9  10
ATOM     10  C   UNL d   1     -41.143-122.792 -51.781  0.00  0.00     0.025 A 
ATOM     11  C   UNL d   1     -41.184-122.176 -51.217  0.00  0.00     0.002 A 
ATOM     12  C   UNL d   1     -41.204-122.354 -50.411  0.00  0.00     0.000 A 
ATOM     13  C   UNL d   1     -41.183-123.165 -50.166  0.00  0.00     0.000 A 
ATOM     14  C   UNL d   1     -41.143-123.757 -50.729  0.00  0.00     0.000 A 
ATOM     15  C   UNL d   1     -41.123-123.579 -51.534  0.00  0.00     0.002 A 
ENDBRANCH   9  10
ENDBRANCH   1   9
TORSDOF 3
ENDMDL
MODEL 2
REMARK VINA RESULT:      -5.2      1.801      4.044
REMARK  3 active torsions:
REMARK  status: ('A' for Active; 'I' for Inactive)
REMARK    1  A    between atoms: C_2  and  O_1 
REMARK    2  A    between atoms: C_5  and  O_1 
REMARK    3  A    between atoms: C_10  and  C_5 
ROOT
ATOM      1  O   UNL d   1     -41.123-122.516 -52.803  0.00  0.00    -0.305 OA
ENDROOT
BRANCH   1   2
ATOM      2  C   UNL d   1     -41.123-122.718 -51.994  0.00  0.00     0.100 A 
ATOM      3  C   UNL d   1     -41.125-122.126 -51.403  0.00  0.00     0.026 A 
ATOM      4  C   UNL d   1     -41.126-122.338 -50.606  0.00  0.00     0.023 A 
ATOM      5  C   UNL d   1     -41.125-123.135 -50.392  0.00  0.00     0.103 A 
ATOM      6  C   UNL d   1     -41.123-123.743 -50.999  0.00  0.00     0.023 A 
ATOM      7  N   UNL d   1     -41.126-123.360 -49.582  0.00  0.00    -0.148 N 
ATOM      8  C   UNL d   1     -41.123-123.515 -51.781  0.00  0.00     0.026 A 
ENDBRANCH   1   2
BRANCH   1   9
ATOM      9  C   UNL d   1     -41.668-122.865 -53.309  0.00  0.00     0.122 C 
BRANCH   9  10
ATOM     10  C   UNL d   1     -41.764-122.534 -54.077  0.00  0.00     0.025 A 
ATOM     11  C   UNL d   1     -42.424-122.045 -54.234  0.00  0.00     0.002 A 
ATOM     12  C   UNL d   1     -42.526-121.716 -54.984  0.00  0.00     0.000 A 
ATOM     13  C   UNL d   1     -41.956-121.880 -55.589  0.00  0.00     0.000 A 
ATOM     14  C   UNL d   1     -41.316-122.361 -55.421  0.00  0.00     0.000 A 
ATOM     15  C   UNL d   1     -41.214-122.689 -54.672  0.00  0.00     0.002 A 
ENDBRANCH   9  10
ENDBRANCH   1   9
TORSDOF 3
ENDMDL
MODEL 3
REMARK VINA RESULT:      -4.6      2.224      4.161
REMARK  3 active torsions:
REMARK  status: ('A' for Active; 'I' for Inactive)
REMARK    1  A    between atoms: C_2  and  O_1 
REMARK    2  A    between atoms: C_5  and  O_1 
REMARK    3  A    between atoms: C_10  and  C_5 
ROOT
ATOM      1  O   UNL d   1     -41.806-123.234 -51.713  0.00  0.00    -0.305 OA
ENDROOT
BRANCH   1   2
ATOM      2  C   UNL d   1     -41.744-123.230 -50.882  0.00  0.00     0.100 A 
ATOM      3  C   UNL d   1     -41.175-123.704 -50.492  0.00  0.00     0.026 A 
ATOM      4  C   UNL d   1     -41.123-123.693 -49.669  0.00  0.00     0.023 A 
ATOM      5  C   UNL d   1     -41.631-123.213 -49.231  0.00  0.00     0.103 A 
ATOM      6  C   UNL d   1     -42.215-122.727 -49.631  0.00  0.00     0.023 A 
ATOM      7  N   UNL d   1     -41.585-123.195 -48.391  0.00  0.00    -0.148 N 
ATOM      8  C   UNL d   1     -42.253-122.751 -50.444  0.00  0.00     0.026 A 
ENDBRANCH   1   2
BRANCH   1   9
ATOM      9  C   UNL d   1     -41.162-123.003 -52.169  0.00  0.00     0.122 C 
BRANCH   9  10
ATOM     10  C   UNL d   1     -41.244-123.018 -53.007  0.00  0.00     0.025 A 
ATOM     11  C   UNL d   1     -41.443-122.314 -53.413  0.00  0.00     0.002 A 
ATOM     12  C   UNL d   1     -41.525-122.320 -54.234  0.00  0.00     0.000 A 
ATOM     13  C   UNL d   1     -41.407-123.045 -54.657  0.00  0.00     0.000 A 
ATOM     14  C   UNL d   1     -41.214-123.726 -54.246  0.00  0.00     0.000 A 
ATOM     15  C   UNL d   1     -41.131-123.719 -53.426  0.00  0.00     0.002 A 
ENDBRANCH   9  10
ENDBRANCH   1   9
TORSDOF 3
ENDMDL
MODEL 4
REMARK VINA RESULT:      -4.5      1.557      2.528
REMARK  3 active torsions:
REMARK  status: ('A' for Active; 'I' for Inactive)
REMARK    1  A    between atoms: C_2  and  O_1 
REMARK    2  A    between atoms: C_5  and  O_1 
REMARK    3  A    between atoms: C_10  and  C_5 
ROOT
ATOM      1  O   UNL d   1     -41.267-122.995 -50.790  0.00  0.00    -0.305 OA
ENDROOT
BRANCH   1   2
ATOM      2  C   UNL d   1     -41.252-122.974 -51.623  0.00  0.00     0.100 A 
ATOM      3  C   UNL d   1     -41.299-122.247 -52.035  0.00  0.00     0.026 A 
ATOM      4  C   UNL d   1     -41.283-122.238 -52.860  0.00  0.00     0.023 A 
ATOM      5  C   UNL d   1     -41.221-122.947 -53.277  0.00  0.00     0.103 A 
ATOM      6  C   UNL d   1     -41.173-123.693 -52.854  0.00  0.00     0.023 A 
ATOM      7  N   UNL d   1     -41.204-122.948 -54.118  0.00  0.00    -0.148 N 
ATOM      8  C   UNL d   1     -41.190-123.682 -52.040  0.00  0.00     0.026 A 
ENDBRANCH   1   2
BRANCH   1   9
ATOM      9  C   UNL d   1     -41.831-123.453 -50.405  0.00  0.00     0.122 C 
BRANCH   9  10
ATOM     10  C   UNL d   1     -41.894-123.385 -49.569  0.00  0.00     0.025 A 
ATOM     11  C   UNL d   1     -42.572-123.023 -49.236  0.00  0.00     0.002 A 
ATOM     12  C   UNL d   1     -42.641-122.952 -48.417  0.00  0.00     0.000 A 
ATOM     13  C   UNL d   1     -42.021-123.248 -47.921  0.00  0.00     0.000 A 
ATOM     14  C   UNL d   1     -41.365-123.599 -48.260  0.00  0.00     0.000 A 
ATOM     15  C   UNL d   1     -41.295-123.670 -49.079  0.00  0.00     0.002 A 
ENDBRANCH   9  10
ENDBRANCH   1   9
TORSDOF 3
ENDMDL
