MODEL 1
REMARK VINA RESULT:      37.7      0.000      0.000
REMARK  3 active torsions:
REMARK  status: ('A' for Active; 'I' for Inactive)
REMARK    1  A    between atoms: N_7  and  C_1 
REMARK    2  A    between atoms: C_11  and  N_3 
REMARK       I    between atoms: C_9  and  N_7 
REMARK    3  A    between atoms: C_12  and  C_9 
ROOT
ATOM      1  C   UNL d   1      13.798  12.980  -2.759  0.00  0.00     0.169 A 
ATOM      2  C   UNL d   1      13.528  12.890  -3.490  0.00  0.00     0.067 A 
ATOM      3  N   UNL d   1      13.714  12.294  -2.386  0.00  0.00    -0.212 N 
ATOM      4  C   UNL d   1      13.275  12.143  -3.570  0.00  0.00     0.116 A 
ATOM      5  N   UNL d   1      13.391  11.779  -2.888  0.00  0.00    -0.163 NA
ATOM      6  S   UNL d   1      13.093  12.750  -4.672  0.00  0.00     0.213 S 
ATOM      7  C   UNL d   1      13.008  12.061  -4.300  0.00  0.00     0.120 A 
ATOM      8  C   UNL d   1      13.414  13.262  -4.171  0.00  0.00     0.103 A 
ATOM      9  O   UNL d   1      12.776  12.186  -5.111  0.00  0.00    -0.217 OA
ATOM     10  O   UNL d   1      13.186  13.364  -4.950  0.00  0.00    -0.217 OA
ENDROOT
BRANCH   1  11
ATOM     11  N   UNL d   1      13.972  13.663  -2.857  0.00  0.00    -0.187 NA
ATOM     12  C   UNL d   1      14.296  14.426  -2.270  0.00  0.00     0.303 C 
ATOM     13  O   UNL d   1      14.411  14.334  -1.516  0.00  0.00    -0.263 OA
BRANCH  12  14
ATOM     14  C   UNL d   1      14.442  15.167  -2.613  0.00  0.00     0.158 A 
ATOM     15  O   UNL d   1      14.385  15.363  -3.435  0.00  0.00    -0.300 OA
ATOM     16  C   UNL d   1      14.580  16.172  -3.523  0.00  0.00     0.123 A 
ATOM     17  C   UNL d   1      14.759  16.485  -2.765  0.00  0.00     0.029 A 
ATOM     18  C   UNL d   1      14.676  15.873  -2.200  0.00  0.00     0.032 A 
ENDBRANCH  12  14
ENDBRANCH   1  11
BRANCH   3  19
ATOM     19  C   UNL d   1      13.930  12.135  -1.591  0.00  0.00     0.085 A 
ATOM     20  C   UNL d   1      14.744  12.063  -1.390  0.00  0.00     0.031 A 
ATOM     21  C   UNL d   1      14.957  11.907  -0.609  0.00  0.00     0.059 A 
ATOM     22 CL   UNL d   1      15.763  11.833  -0.393  0.00  0.00    -0.082 Cl
ATOM     23  C   UNL d   1      14.359  11.820  -0.014  0.00  0.00     0.011 A 
ATOM     24  C   UNL d   1      13.553  11.894  -0.230  0.00  0.00     0.002 A 
ATOM     25  C   UNL d   1      13.348  12.050  -1.012  0.00  0.00     0.019 A 
ENDBRANCH   3  19
TORSDOF 3
ENDMDL
MODEL 2
REMARK VINA RESULT:      38.0      1.844      3.195
REMARK  3 active torsions:
REMARK  status: ('A' for Active; 'I' for Inactive)
REMARK    1  A    between atoms: N_7  and  C_1 
REMARK    2  A    between atoms: C_11  and  N_3 
REMARK       I    between atoms: C_9  and  N_7 
REMARK    3  A    between atoms: C_12  and  C_9 
ROOT
ATOM      1  C   UNL d   1      14.298  13.316  -2.083  0.00  0.00     0.169 A 
ATOM      2  C   UNL d   1      14.572  12.997  -1.420  0.00  0.00     0.067 A 
ATOM      3  N   UNL d   1      13.982  12.741  -2.514  0.00  0.00    -0.212 N 
ATOM      4  C   UNL d   1      14.424  12.219  -1.441  0.00  0.00     0.116 A 
ATOM      5  N   UNL d   1      14.061  12.065  -2.115  0.00  0.00    -0.163 NA
ATOM      6  S   UNL d   1      15.015  12.488  -0.348  0.00  0.00     0.213 S 
ATOM      7  C   UNL d   1      14.699  11.908  -0.778  0.00  0.00     0.120 A 
ATOM      8  C   UNL d   1      14.936  13.160  -0.745  0.00  0.00     0.103 A 
ATOM      9  O   UNL d   1      15.056  11.781  -0.014  0.00  0.00    -0.217 OA
ATOM     10  O   UNL d   1      15.276  13.020  -0.014  0.00  0.00    -0.217 OA
ENDROOT
BRANCH   1  11
ATOM     11  N   UNL d   1      14.503  13.975  -1.906  0.00  0.00    -0.187 NA
ATOM     12  C   UNL d   1      14.504  14.885  -2.356  0.00  0.00     0.303 C 
ATOM     13  O   UNL d   1      14.234  14.983  -3.069  0.00  0.00    -0.263 OA
BRANCH  12  14
ATOM     14  C   UNL d   1      14.803  15.540  -1.944  0.00  0.00     0.158 A 
ATOM     15  O   UNL d   1      14.970  15.582  -1.114  0.00  0.00    -0.300 OA
ATOM     16  C   UNL d   1      15.262  16.348  -0.946  0.00  0.00     0.123 A 
ATOM     17  C   UNL d   1      15.281  16.787  -1.661  0.00  0.00     0.029 A 
ATOM     18  C   UNL d   1      15.000  16.296  -2.279  0.00  0.00     0.032 A 
ENDBRANCH  12  14
ENDBRANCH   1  11
BRANCH   3  19
ATOM     19  C   UNL d   1      13.623  12.829  -3.267  0.00  0.00     0.085 A 
ATOM     20  C   UNL d   1      13.770  12.255  -3.865  0.00  0.00     0.031 A 
ATOM     21  C   UNL d   1      13.417  12.342  -4.605  0.00  0.00     0.059 A 
ATOM     22 CL   UNL d   1      13.555  11.779  -5.211  0.00  0.00    -0.082 Cl
ATOM     23  C   UNL d   1      12.910  13.003  -4.760  0.00  0.00     0.011 A 
ATOM     24  C   UNL d   1      12.774  13.565  -4.155  0.00  0.00     0.002 A 
ATOM     25  C   UNL d   1      13.129  13.473  -3.417  0.00  0.00     0.019 A 
ENDBRANCH   3  19
TORSDOF 3
ENDMDL
