MODEL 1
REMARK VINA RESULT:      -6.3      0.000      0.000
REMARK  5 active torsions:
REMARK  status: ('A' for Active; 'I' for Inactive)
REMARK    1  A    between atoms: C_3  and  C_1 
REMARK    2  A    between atoms: C_7  and  C_3 
REMARK       I    between atoms: C_6  and  N_5 
REMARK    3  A    between atoms: O_18  and  C_6 
REMARK    4  A    between atoms: N_10  and  C_7 
REMARK    5  A    between atoms: C_21  and  O_18 
ROOT
ATOM      1  C   UNL d   1     -41.821-122.634 -50.119  0.00  0.00     0.110 C 
ATOM      2  C   UNL d   1     -42.492-122.288 -50.465  0.00  0.00     0.105 C 
ATOM      3  N   UNL d   1     -43.155-121.947 -50.805  0.00  0.00    -0.191 NA
ENDROOT
BRANCH   1   4
ATOM      4  C   UNL d   1     -41.856-122.904 -49.340  0.00  0.00     0.122 A 
ATOM      5  N   UNL d   1     -41.216-123.033 -48.840  0.00  0.00    -0.238 NA
ATOM      6  C   UNL d   1     -41.507-123.302 -48.116  0.00  0.00     0.088 A 
ATOM      7  C   UNL d   1     -41.126-123.518 -47.415  0.00  0.00     0.020 A 
ATOM      8  C   UNL d   1     -42.329-123.341 -48.166  0.00  0.00     0.049 A 
ATOM      9  C   UNL d   1     -41.567-123.771 -46.768  0.00  0.00     0.002 A 
ATOM     10  C   UNL d   1     -42.393-123.809 -46.818  0.00  0.00     0.001 A 
ATOM     11  C   UNL d   1     -42.775-123.595 -47.515  0.00  0.00     0.008 A 
ATOM     12  S   UNL d   1     -42.550-123.096 -48.921  0.00  0.00    -0.066 SA
ENDBRANCH   1   4
BRANCH   1  13
ATOM     13  C   UNL d   1     -41.124-122.707 -50.550  0.00  0.00     0.093 C 
BRANCH  13  14
ATOM     14  N   UNL d   1     -41.153-122.799 -51.370  0.00  0.00    -0.299 N 
ATOM     15  C   UNL d   1     -41.207-122.126 -51.859  0.00  0.00     0.100 A 
ATOM     16  C   UNL d   1     -41.235-122.217 -52.670  0.00  0.00     0.104 A 
ATOM     17  N   UNL d   1     -41.211-122.972 -53.009  0.00  0.00    -0.249 N 
ATOM     18  C   UNL d   1     -41.157-123.636 -52.521  0.00  0.00     0.104 A 
ATOM     19  C   UNL d   1     -41.239-123.064 -53.829  0.00  0.00     0.378 C 
ATOM     20  C   UNL d   1     -41.128-123.552 -51.693  0.00  0.00     0.100 A 
ATOM     21  O   UNL d   1     -41.215-123.817 -54.164  0.00  0.00    -0.237 OA
BRANCH  19  22
ATOM     22  O   UNL d   1     -41.292-122.402 -54.309  0.00  0.00    -0.257 OA
BRANCH  22  23
ATOM     23  C   UNL d   1     -41.545-122.472 -55.089  0.00  0.00     0.128 C 
ATOM     24  C   UNL d   1     -41.912-121.830 -55.468  0.00  0.00     0.029 C 
ENDBRANCH  22  23
ENDBRANCH  19  22
ENDBRANCH  13  14
ENDBRANCH   1  13
TORSDOF 5
ENDMDL
MODEL 2
REMARK VINA RESULT:      -6.2      2.158      5.388
REMARK  5 active torsions:
REMARK  status: ('A' for Active; 'I' for Inactive)
REMARK    1  A    between atoms: C_3  and  C_1 
REMARK    2  A    between atoms: C_7  and  C_3 
REMARK       I    between atoms: C_6  and  N_5 
REMARK    3  A    between atoms: O_18  and  C_6 
REMARK    4  A    between atoms: N_10  and  C_7 
REMARK    5  A    between atoms: C_21  and  O_18 
ROOT
ATOM      1  C   UNL d   1     -41.273-122.344 -52.092  0.00  0.00     0.110 C 
ATOM      2  C   UNL d   1     -41.197-121.610 -51.712  0.00  0.00     0.105 C 
ATOM      3  N   UNL d   1     -41.123-120.884 -51.338  0.00  0.00    -0.191 NA
ENDROOT
BRANCH   1   4
ATOM      4  C   UNL d   1     -41.490-122.373 -52.887  0.00  0.00     0.122 A 
ATOM      5  N   UNL d   1     -41.962-121.828 -53.284  0.00  0.00    -0.238 NA
ATOM      6  C   UNL d   1     -42.035-122.074 -54.067  0.00  0.00     0.088 A 
ATOM      7  C   UNL d   1     -42.437-121.750 -54.713  0.00  0.00     0.020 A 
ATOM      8  C   UNL d   1     -41.608-122.774 -54.159  0.00  0.00     0.049 A 
ATOM      9  C   UNL d   1     -42.412-122.124 -55.445  0.00  0.00     0.002 A 
ATOM     10  C   UNL d   1     -41.983-122.827 -55.537  0.00  0.00     0.001 A 
ATOM     11  C   UNL d   1     -41.581-123.153 -54.896  0.00  0.00     0.008 A 
ATOM     12  S   UNL d   1     -41.270-122.962 -53.432  0.00  0.00    -0.066 SA
ENDBRANCH   1   4
BRANCH   1  13
ATOM     13  C   UNL d   1     -41.131-123.041 -51.678  0.00  0.00     0.093 C 
BRANCH  13  14
ATOM     14  N   UNL d   1     -41.537-123.194 -50.975  0.00  0.00    -0.299 N 
ATOM     15  C   UNL d   1     -41.124-123.182 -50.250  0.00  0.00     0.100 A 
ATOM     16  C   UNL d   1     -41.525-123.333 -49.555  0.00  0.00     0.104 A 
ATOM     17  N   UNL d   1     -42.336-123.497 -49.564  0.00  0.00    -0.249 N 
ATOM     18  C   UNL d   1     -42.741-123.508 -50.284  0.00  0.00     0.104 A 
ATOM     19  C   UNL d   1     -42.741-123.650 -48.861  0.00  0.00     0.378 C 
ATOM     20  C   UNL d   1     -42.340-123.355 -50.998  0.00  0.00     0.100 A 
ATOM     21  O   UNL d   1     -43.549-123.813 -48.874  0.00  0.00    -0.237 OA
BRANCH  19  22
ATOM     22  O   UNL d   1     -42.334-123.639 -48.150  0.00  0.00    -0.257 OA
BRANCH  22  23
ATOM     23  C   UNL d   1     -42.742-123.691 -47.437  0.00  0.00     0.128 C 
ATOM     24  C   UNL d   1     -42.327-123.673 -46.717  0.00  0.00     0.029 C 
ENDBRANCH  22  23
ENDBRANCH  19  22
ENDBRANCH  13  14
ENDBRANCH   1  13
TORSDOF 5
ENDMDL
