MODEL 1
REMARK VINA RESULT:      -5.8      0.000      0.000
REMARK  5 active torsions:
REMARK  status: ('A' for Active; 'I' for Inactive)
REMARK    1  A    between atoms: O_5  and  C_1 
REMARK    2  A    between atoms: C_10  and  C_2 
REMARK    3  A    between atoms: C_3  and  O_5 
REMARK    4  A    between atoms: C_6  and  C_3 
REMARK    5  A    between atoms: N_11  and  C_10 
ROOT
ATOM      1  C   UNL d   1     -39.163  14.468  18.080  0.00  0.00     0.122 A 
ATOM      2  C   UNL d   1     -39.367  14.946  17.440  0.00  0.00     0.043 A 
ATOM      3  C   UNL d   1     -38.754  13.763  17.953  0.00  0.00     0.105 A 
ATOM      4  C   UNL d   1     -38.550  13.537  17.187  0.00  0.00     0.030 A 
ATOM      5  C   UNL d   1     -38.756  14.018  16.556  0.00  0.00     0.059 A 
ATOM      6  C   UNL d   1     -39.162  14.720  16.674  0.00  0.00     0.015 A 
ATOM      7  N   UNL d   1     -38.554  13.291  18.590  0.00  0.00    -0.242 NA
ATOM      8 CL   UNL d   1     -38.538  13.768  15.789  0.00  0.00    -0.082 Cl
ATOM      9  C   UNL d   1     -38.147  12.841  17.066  0.00  0.00     0.004 A 
ATOM     10  C   UNL d   1     -38.145  12.586  18.463  0.00  0.00     0.099 A 
ATOM     11  C   UNL d   1     -37.940  12.360  17.697  0.00  0.00     0.021 A 
ENDROOT
BRANCH   1  12
ATOM     12  O   UNL d   1     -39.344  14.664  18.778  0.00  0.00    -0.271 OA
BRANCH  12  13
ATOM     13  C   UNL d   1     -39.027  15.206  19.509  0.00  0.00     0.302 C 
ATOM     14  O   UNL d   1     -38.268  15.818  19.266  0.00  0.00    -0.259 OA
BRANCH  13  15
ATOM     15  C   UNL d   1     -39.363  15.155  20.258  0.00  0.00     0.091 A 
ATOM     16  C   UNL d   1     -38.875  15.111  20.930  0.00  0.00     0.145 A 
ATOM     17  F   UNL d   1     -38.000  15.116  20.903  0.00  0.00    -0.204 F 
ATOM     18  C   UNL d   1     -39.219  15.059  21.687  0.00  0.00     0.030 A 
ATOM     19  C   UNL d   1     -40.050  15.051  21.776  0.00  0.00     0.002 A 
ATOM     20  C   UNL d   1     -40.534  15.095  21.103  0.00  0.00     0.000 A 
ATOM     21  C   UNL d   1     -40.189  15.146  20.346  0.00  0.00     0.008 A 
ENDBRANCH  13  15
ENDBRANCH  12  13
ENDBRANCH   1  12
BRANCH   2  22
ATOM     22  C   UNL d   1     -39.808  15.741  17.382  0.00  0.00     0.082 C 
BRANCH  22  23
ATOM     23  N   UNL d   1     -40.543  15.769  17.019  0.00  0.00    -0.299 N 
ATOM     24  C   UNL d   1     -40.593  15.891  16.213  0.00  0.00     0.107 A 
ATOM     25  C   UNL d   1     -41.327  15.922  15.834  0.00  0.00     0.142 A 
ATOM     26  O   UNL d   1     -42.006  15.829  16.278  0.00  0.00    -0.300 OA
ATOM     27  C   UNL d   1     -41.958  15.705  17.096  0.00  0.00     0.142 A 
ATOM     28  C   UNL d   1     -41.223  15.677  17.456  0.00  0.00     0.107 A 
ENDBRANCH  22  23
ENDBRANCH   2  22
TORSDOF 5
ENDMDL
MODEL 2
REMARK VINA RESULT:      -5.8      9.079     10.510
REMARK  5 active torsions:
REMARK  status: ('A' for Active; 'I' for Inactive)
REMARK    1  A    between atoms: O_5  and  C_1 
REMARK    2  A    between atoms: C_10  and  C_2 
REMARK    3  A    between atoms: C_3  and  O_5 
REMARK    4  A    between atoms: C_6  and  C_3 
REMARK    5  A    between atoms: N_11  and  C_10 
ROOT
ATOM      1  C   UNL d   1     -48.620  12.942  22.771  0.00  0.00     0.122 A 
ATOM      2  C   UNL d   1     -49.273  13.420  22.607  0.00  0.00     0.043 A 
ATOM      3  C   UNL d   1     -48.731  12.186  23.081  0.00  0.00     0.105 A 
ATOM      4  C   UNL d   1     -49.493  11.908  23.226  0.00  0.00     0.030 A 
ATOM      5  C   UNL d   1     -50.136  12.388  23.060  0.00  0.00     0.059 A 
ATOM      6  C   UNL d   1     -50.034  13.141  22.752  0.00  0.00     0.015 A 
ATOM      7  N   UNL d   1     -48.082  11.716  23.243  0.00  0.00    -0.242 NA
ATOM      8 CL   UNL d   1     -50.899  12.085  23.216  0.00  0.00    -0.082 Cl
ATOM      9  C   UNL d   1     -49.598  11.162  23.532  0.00  0.00     0.004 A 
ATOM     10  C   UNL d   1     -48.193  10.960  23.553  0.00  0.00     0.099 A 
ATOM     11  C   UNL d   1     -48.955  10.681  23.698  0.00  0.00     0.021 A 
ENDROOT
BRANCH   1  12
ATOM     12  O   UNL d   1     -47.925  13.185  22.643  0.00  0.00    -0.271 OA
BRANCH  12  13
ATOM     13  C   UNL d   1     -47.251  13.195  21.954  0.00  0.00     0.302 C 
ATOM     14  O   UNL d   1     -47.581  12.896  21.054  0.00  0.00    -0.259 OA
BRANCH  13  15
ATOM     15  C   UNL d   1     -46.479  13.432  22.113  0.00  0.00     0.091 A 
ATOM     16  C   UNL d   1     -45.840  12.994  21.810  0.00  0.00     0.145 A 
ATOM     17  F   UNL d   1     -45.926  12.275  21.318  0.00  0.00    -0.204 F 
ATOM     18  C   UNL d   1     -45.060  13.237  21.973  0.00  0.00     0.030 A 
ATOM     19  C   UNL d   1     -44.915  13.916  22.438  0.00  0.00     0.002 A 
ATOM     20  C   UNL d   1     -45.555  14.350  22.738  0.00  0.00     0.000 A 
ATOM     21  C   UNL d   1     -46.336  14.107  22.575  0.00  0.00     0.008 A 
ENDBRANCH  13  15
ENDBRANCH  12  13
ENDBRANCH   1  12
BRANCH   2  22
ATOM     22  C   UNL d   1     -49.348  14.262  22.270  0.00  0.00     0.082 C 
BRANCH  22  23
ATOM     23  N   UNL d   1     -49.813  14.813  22.662  0.00  0.00    -0.299 N 
ATOM     24  C   UNL d   1     -49.486  15.273  23.251  0.00  0.00     0.107 A 
ATOM     25  C   UNL d   1     -49.943  15.833  23.655  0.00  0.00     0.142 A 
ATOM     26  O   UNL d   1     -50.729  15.919  23.455  0.00  0.00    -0.300 OA
ATOM     27  C   UNL d   1     -51.064  15.453  22.857  0.00  0.00     0.142 A 
ATOM     28  C   UNL d   1     -50.598  14.904  22.467  0.00  0.00     0.107 A 
ENDBRANCH  22  23
ENDBRANCH   2  22
TORSDOF 5
ENDMDL
MODEL 3
REMARK VINA RESULT:      -4.0      9.055     10.664
REMARK  5 active torsions:
REMARK  status: ('A' for Active; 'I' for Inactive)
REMARK    1  A    between atoms: O_5  and  C_1 
REMARK    2  A    between atoms: C_10  and  C_2 
REMARK    3  A    between atoms: C_3  and  O_5 
REMARK    4  A    between atoms: C_6  and  C_3 
REMARK    5  A    between atoms: N_11  and  C_10 
ROOT
ATOM      1  C   UNL d   1     -48.356  12.882  23.387  0.00  0.00     0.122 A 
ATOM      2  C   UNL d   1     -47.531  12.866  23.382  0.00  0.00     0.043 A 
ATOM      3  C   UNL d   1     -48.780  12.182  23.490  0.00  0.00     0.105 A 
ATOM      4  C   UNL d   1     -48.381  11.468  23.589  0.00  0.00     0.030 A 
ATOM      5  C   UNL d   1     -47.561  11.461  23.583  0.00  0.00     0.059 A 
ATOM      6  C   UNL d   1     -47.132  12.152  23.481  0.00  0.00     0.015 A 
ATOM      7  N   UNL d   1     -49.598  12.202  23.494  0.00  0.00    -0.242 NA
ATOM      8 CL   UNL d   1     -47.178  10.726  23.685  0.00  0.00    -0.082 Cl
ATOM      9  C   UNL d   1     -48.803  10.781  23.690  0.00  0.00     0.004 A 
ATOM     10  C   UNL d   1     -50.022  11.502  23.597  0.00  0.00     0.099 A 
ATOM     11  C   UNL d   1     -49.623  10.788  23.696  0.00  0.00     0.021 A 
ENDROOT
BRANCH   1  12
ATOM     12  O   UNL d   1     -48.728  13.524  23.298  0.00  0.00    -0.271 OA
BRANCH  12  13
ATOM     13  C   UNL d   1     -49.127  14.068  22.610  0.00  0.00     0.302 C 
ATOM     14  O   UNL d   1     -48.850  13.819  21.677  0.00  0.00    -0.259 OA
BRANCH  13  15
ATOM     15  C   UNL d   1     -49.648  14.679  22.795  0.00  0.00     0.091 A 
ATOM     16  C   UNL d   1     -50.259  14.877  22.266  0.00  0.00     0.145 A 
ATOM     17  F   UNL d   1     -50.397  14.474  21.501  0.00  0.00    -0.204 F 
ATOM     18  C   UNL d   1     -50.784  15.495  22.456  0.00  0.00     0.030 A 
ATOM     19  C   UNL d   1     -50.701  15.916  23.173  0.00  0.00     0.002 A 
ATOM     20  C   UNL d   1     -50.091  15.716  23.698  0.00  0.00     0.000 A 
ATOM     21  C   UNL d   1     -49.566  15.097  23.507  0.00  0.00     0.008 A 
ENDBRANCH  13  15
ENDBRANCH  12  13
ENDBRANCH   1  12
BRANCH   2  22
ATOM     22  C   UNL d   1     -46.905  13.519  23.284  0.00  0.00     0.082 C 
BRANCH  22  23
ATOM     23  N   UNL d   1     -46.245  13.379  22.816  0.00  0.00    -0.299 N 
ATOM     24  C   UNL d   1     -45.599  12.992  23.132  0.00  0.00     0.107 A 
ATOM     25  C   UNL d   1     -44.928  12.844  22.672  0.00  0.00     0.142 A 
ATOM     26  O   UNL d   1     -44.919  13.090  21.895  0.00  0.00    -0.300 OA
ATOM     27  C   UNL d   1     -45.573  13.483  21.571  0.00  0.00     0.142 A 
ATOM     28  C   UNL d   1     -46.230  13.622  22.040  0.00  0.00     0.107 A 
ENDBRANCH  22  23
ENDBRANCH   2  22
TORSDOF 5
ENDMDL
