MODEL 1
REMARK VINA RESULT:      59.0      0.000      0.000
REMARK  5 active torsions:
REMARK  status: ('A' for Active; 'I' for Inactive)
REMARK    1  A    between atoms: C_10  and  N_1 
REMARK    2  A    between atoms: N_2  and  C_8 
REMARK    3  A    between atoms: C_5  and  C_12 
REMARK       I    between atoms: N_6  and  C_5 
REMARK    4  A    between atoms: C_7  and  N_6 
REMARK    5  A    between atoms: O_26  and  C_14 
ROOT
ATOM      1  C   UNL d   1      13.724  14.604  -3.656  0.00  0.00     0.279 C 
ATOM      2  N   UNL d   1      13.896  13.880  -3.988  0.00  0.00    -0.206 NA
ATOM      3  O   UNL d   1      13.432  14.659  -2.892  0.00  0.00    -0.265 OA
ENDROOT
BRANCH   1   4
ATOM      4  C   UNL d   1      13.849  15.309  -4.103  0.00  0.00     0.058 A 
ATOM      5  C   UNL d   1      13.320  15.514  -4.689  0.00  0.00     0.006 A 
ATOM      6  C   UNL d   1      13.445  16.214  -5.134  0.00  0.00     0.018 A 
ATOM      7  C   UNL d   1      14.093  16.682  -4.975  0.00  0.00     0.070 A 
ATOM      8  C   UNL d   1      14.626  16.479  -4.386  0.00  0.00     0.018 A 
ATOM      9  C   UNL d   1      14.502  15.778  -3.942  0.00  0.00     0.006 A 
BRANCH   7  10
ATOM     10  N   UNL d   1      14.219  17.390  -5.425  0.00  0.00    -0.242 N 
ATOM     11  C   UNL d   1      14.763  18.016  -5.337  0.00  0.00     0.267 A 
ATOM     12  C   UNL d   1      14.626  18.556  -5.941  0.00  0.00     0.066 A 
ATOM     13  O   UNL d   1      15.367  18.085  -4.719  0.00  0.00    -0.267 OA
ATOM     14  C   UNL d   1      13.999  18.251  -6.387  0.00  0.00     0.066 A 
ATOM     15  C   UNL d   1      13.747  17.538  -6.076  0.00  0.00     0.267 A 
ATOM     16  O   UNL d   1      13.121  17.073  -6.389  0.00  0.00    -0.267 OA
ENDBRANCH   7  10
ENDBRANCH   1   4
BRANCH   2  17
ATOM     17  C   UNL d   1      13.770  13.172  -3.539  0.00  0.00     0.108 A 
ATOM     18  C   UNL d   1      14.148  13.070  -2.807  0.00  0.00     0.045 A 
ATOM     19  C   UNL d   1      14.026  12.382  -2.369  0.00  0.00     0.128 A 
ATOM     20  C   UNL d   1      13.523  11.779  -2.655  0.00  0.00     0.026 A 
ATOM     21  C   UNL d   1      13.152  11.892  -3.385  0.00  0.00     0.027 A 
ATOM     22  C   UNL d   1      13.274  12.580  -3.823  0.00  0.00     0.112 A 
BRANCH  19  23
ATOM     23  N   UNL d   1      14.401  12.292  -1.653  0.00  0.00    -0.114 N 
ATOM     24  O   UNL d   1      14.034  12.050  -0.942  0.00  0.00    -0.532 OA
ATOM     25  O   UNL d   1      15.246  12.453  -1.595  0.00  0.00    -0.532 OA
ENDBRANCH  19  23
BRANCH  22  26
ATOM     26  O   UNL d   1      12.896  12.667  -4.542  0.00  0.00    -0.327 OA
ATOM     27  C   UNL d   1      12.796  12.012  -5.037  0.00  0.00     0.181 C 
ENDBRANCH  22  26
ENDBRANCH   2  17
TORSDOF 5
ENDMDL
