MODEL 1
REMARK VINA RESULT:      65.2      0.000      0.000
REMARK  6 active torsions:
REMARK  status: ('A' for Active; 'I' for Inactive)
REMARK    1  A    between atoms: C_10  and  C_1 
REMARK    2  A    between atoms: C_4  and  O_8 
REMARK       I    between atoms: N_12  and  C_4 
REMARK    3  A    between atoms: O_8  and  C_13 
REMARK    4  A    between atoms: C_23  and  N_12 
REMARK    5  A    between atoms: C_24  and  N_12 
REMARK    6  A    between atoms: O_22  and  C_19 
ROOT
ATOM      1  C   UNL d   1     -55.358-102.165 -39.719  0.00  0.00     0.064 A 
ATOM      2  C   UNL d   1     -55.259-101.366 -39.954  0.00  0.00     0.199 A 
ATOM      3  C   UNL d   1     -55.123-101.183 -40.743  0.00  0.00     0.062 A 
ATOM      4  C   UNL d   1     -55.318-102.769 -40.285  0.00  0.00     0.126 A 
ATOM      5  C   UNL d   1     -55.083-101.794 -41.315  0.00  0.00     0.105 A 
ATOM      6  O   UNL d   1     -55.180-102.587 -41.092  0.00  0.00    -0.305 OA
ATOM      7  C   UNL d   1     -54.946-101.608 -42.113  0.00  0.00     0.050 A 
ATOM      8  C   UNL d   1     -55.023-100.394 -40.987  0.00  0.00     0.007 A 
ATOM      9  C   UNL d   1     -54.849-100.818 -42.338  0.00  0.00     0.107 A 
ATOM     10  O   UNL d   1     -55.298-100.767 -39.388  0.00  0.00    -0.286 OA
ATOM     11  C   UNL d   1     -54.888-100.215 -41.779  0.00  0.00     0.025 A 
ENDROOT
BRANCH   1  12
ATOM     12  C   UNL d   1     -55.493-102.343 -38.927  0.00  0.00     0.005 A 
ATOM     13  C   UNL d   1     -54.867-102.571 -38.441  0.00  0.00     0.002 A 
ATOM     14  C   UNL d   1     -55.004-102.750 -37.649  0.00  0.00     0.024 A 
ATOM     15  C   UNL d   1     -55.766-102.701 -37.343  0.00  0.00     0.094 A 
ATOM     16  C   UNL d   1     -56.396-102.472 -37.832  0.00  0.00     0.024 A 
ATOM     17  C   UNL d   1     -56.257-102.294 -38.621  0.00  0.00     0.002 A 
BRANCH  15  18
ATOM     18  O   UNL d   1     -55.906-102.878 -36.553  0.00  0.00    -0.328 OA
ATOM     19  C   UNL d   1     -55.451-102.517 -35.966  0.00  0.00     0.181 C 
ENDBRANCH  15  18
ENDBRANCH   1  12
BRANCH   9  20
ATOM     20  O   UNL d   1     -54.713-100.639 -43.131  0.00  0.00    -0.259 OA
BRANCH  20  21
ATOM     21  C   UNL d   1     -54.840 -99.873 -43.404  0.00  0.00     0.377 C 
ATOM     22  N   UNL d   1     -54.984 -99.743 -44.205  0.00  0.00    -0.252 N 
ATOM     23  O   UNL d   1     -54.824 -99.238 -42.879  0.00  0.00    -0.237 OA
BRANCH  22  24
ATOM     24  C   UNL d   1     -55.111 -98.974 -44.482  0.00  0.00     0.085 C 
ATOM     25  C   UNL d   1     -55.688 -98.833 -45.053  0.00  0.00     0.021 C 
ENDBRANCH  22  24
BRANCH  22  26
ATOM     26  C   UNL d   1     -55.000-100.378 -44.731  0.00  0.00     0.085 C 
ATOM     27  C   UNL d   1     -54.714-100.287 -45.499  0.00  0.00     0.021 C 
ENDBRANCH  22  26
ENDBRANCH  20  21
ENDBRANCH   9  20
TORSDOF 6
ENDMDL
