MODEL 1
REMARK VINA RESULT:      -3.9      0.000      0.000
REMARK  5 active torsions:
REMARK  status: ('A' for Active; 'I' for Inactive)
REMARK    1  A    between atoms: N_2  and  S_1 
REMARK    2  A    between atoms: C_3  and  S_1 
REMARK    3  A    between atoms: C_14  and  C_5 
REMARK    4  A    between atoms: O_15  and  C_8 
REMARK    5  A    between atoms: C_18  and  C_14 
ROOT
ATOM      1  C   UNL d   1      57.534   0.109  31.604  0.00  0.00     0.104 A 
ATOM      2  C   UNL d   1      56.861  -0.295  31.858  0.00  0.00     0.015 A 
ATOM      3  C   UNL d   1      56.609  -0.229  32.642  0.00  0.00     0.023 A 
ATOM      4  C   UNL d   1      57.030   0.241  33.174  0.00  0.00     0.094 A 
ATOM      5  C   UNL d   1      57.955   0.579  32.136  0.00  0.00     0.015 A 
ATOM      6  C   UNL d   1      57.704   0.645  32.920  0.00  0.00     0.025 A 
ENDROOT
BRANCH   1   7
ATOM      7  S   UNL d   1      57.786   0.042  30.820  0.00  0.00     0.272 S 
ATOM      8  O   UNL d   1      57.306   0.682  30.612  0.00  0.00    -0.200 OA
ATOM      9  O   UNL d   1      58.266  -0.598  31.028  0.00  0.00    -0.200 OA
BRANCH   7  10
ATOM     10  N   UNL d   1      58.036  -0.024  30.039  0.00  0.00    -0.225 N 
ATOM     11  C   UNL d   1      58.005   0.631  29.538  0.00  0.00     0.118 A 
ATOM     12  C   UNL d   1      58.257   0.565  28.754  0.00  0.00     0.142 A 
ATOM     13  O   UNL d   1      58.540  -0.156  28.470  0.00  0.00    -0.300 OA
ATOM     14  C   UNL d   1      58.571  -0.811  28.971  0.00  0.00     0.142 A 
ATOM     15  C   UNL d   1      58.319  -0.745  29.755  0.00  0.00     0.118 A 
ENDBRANCH   7  10
ENDBRANCH   1   7
BRANCH   3  16
ATOM     16  C   UNL d   1      55.936  -0.632  32.896  0.00  0.00     0.002 C 
ATOM     17  C   UNL d   1      55.226  -0.223  32.994  0.00  0.00     0.000 C 
BRANCH  16  18
ATOM     18  C   UNL d   1      55.973  -1.442  33.053  0.00  0.00     0.000 C 
ATOM     19  C   UNL d   1      55.284  -1.861  33.228  0.00  0.00     0.000 C 
ENDBRANCH  16  18
ENDBRANCH   3  16
BRANCH   4  20
ATOM     20  O   UNL d   1      56.778   0.308  33.958  0.00  0.00    -0.328 OA
ATOM     21  C   UNL d   1      57.257   0.682  34.516  0.00  0.00     0.181 C 
ENDBRANCH   4  20
TORSDOF 5
ENDMDL
MODEL 2
REMARK VINA RESULT:      -3.8      1.232      3.929
REMARK  5 active torsions:
REMARK  status: ('A' for Active; 'I' for Inactive)
REMARK    1  A    between atoms: N_2  and  S_1 
REMARK    2  A    between atoms: C_3  and  S_1 
REMARK    3  A    between atoms: C_14  and  C_5 
REMARK    4  A    between atoms: O_15  and  C_8 
REMARK    5  A    between atoms: C_18  and  C_14 
ROOT
ATOM      1  C   UNL d   1      57.876  -0.004  30.884  0.00  0.00     0.104 A 
ATOM      2  C   UNL d   1      57.973  -0.633  30.359  0.00  0.00     0.015 A 
ATOM      3  C   UNL d   1      58.566  -0.605  29.784  0.00  0.00     0.023 A 
ATOM      4  C   UNL d   1      59.062   0.053  29.733  0.00  0.00     0.094 A 
ATOM      5  C   UNL d   1      58.372   0.654  30.833  0.00  0.00     0.015 A 
ATOM      6  C   UNL d   1      58.964   0.682  30.258  0.00  0.00     0.025 A 
ENDROOT
BRANCH   1   7
ATOM      7  S   UNL d   1      57.284  -0.032  31.460  0.00  0.00     0.272 S 
ATOM      8  O   UNL d   1      56.708   0.013  30.869  0.00  0.00    -0.200 OA
ATOM      9  O   UNL d   1      57.860  -0.077  32.051  0.00  0.00    -0.200 OA
BRANCH   7  10
ATOM     10  N   UNL d   1      56.694  -0.060  32.033  0.00  0.00    -0.225 N 
ATOM     11  C   UNL d   1      56.320   0.634  32.275  0.00  0.00     0.118 A 
ATOM     12  C   UNL d   1      55.727   0.606  32.851  0.00  0.00     0.142 A 
ATOM     13  O   UNL d   1      55.508  -0.116  33.183  0.00  0.00    -0.300 OA
ATOM     14  C   UNL d   1      55.882  -0.810  32.941  0.00  0.00     0.142 A 
ATOM     15  C   UNL d   1      56.475  -0.782  32.365  0.00  0.00     0.118 A 
ENDBRANCH   7  10
ENDBRANCH   1   7
BRANCH   3  16
ATOM     16  C   UNL d   1      58.663  -1.233  29.260  0.00  0.00     0.002 C 
ATOM     17  C   UNL d   1      58.516  -1.122  28.455  0.00  0.00     0.000 C 
BRANCH  16  18
ATOM     18  C   UNL d   1      58.908  -1.971  29.538  0.00  0.00     0.000 C 
ATOM     19  C   UNL d   1      58.894  -2.628  29.037  0.00  0.00     0.000 C 
ENDBRANCH  16  18
ENDBRANCH   3  16
BRANCH   4  20
ATOM     20  O   UNL d   1      59.654   0.081  29.158  0.00  0.00    -0.328 OA
ATOM     21  C   UNL d   1      60.219   0.682  29.175  0.00  0.00     0.181 C 
ENDBRANCH   4  20
TORSDOF 5
ENDMDL
MODEL 3
REMARK VINA RESULT:      -2.0      0.871      1.392
REMARK  5 active torsions:
REMARK  status: ('A' for Active; 'I' for Inactive)
REMARK    1  A    between atoms: N_2  and  S_1 
REMARK    2  A    between atoms: C_3  and  S_1 
REMARK    3  A    between atoms: C_14  and  C_5 
REMARK    4  A    between atoms: O_15  and  C_8 
REMARK    5  A    between atoms: C_18  and  C_14 
ROOT
ATOM      1  C   UNL d   1      57.215   0.272  32.342  0.00  0.00     0.104 A 
ATOM      2  C   UNL d   1      56.435   0.131  32.572  0.00  0.00     0.015 A 
ATOM      3  C   UNL d   1      56.204   0.264  33.354  0.00  0.00     0.023 A 
ATOM      4  C   UNL d   1      56.751   0.538  33.907  0.00  0.00     0.094 A 
ATOM      5  C   UNL d   1      57.763   0.547  32.895  0.00  0.00     0.015 A 
ATOM      6  C   UNL d   1      57.531   0.680  33.676  0.00  0.00     0.025 A 
ENDROOT
BRANCH   1   7
ATOM      7  S   UNL d   1      57.447   0.140  31.560  0.00  0.00     0.272 S 
ATOM      8  O   UNL d   1      58.237   0.121  31.798  0.00  0.00    -0.200 OA
ATOM      9  O   UNL d   1      56.655   0.158  31.322  0.00  0.00    -0.200 OA
BRANCH   7  10
ATOM     10  N   UNL d   1      57.677   0.007  30.781  0.00  0.00    -0.225 N 
ATOM     11  C   UNL d   1      57.983  -0.726  30.560  0.00  0.00     0.118 A 
ATOM     12  C   UNL d   1      58.215  -0.859  29.777  0.00  0.00     0.142 A 
ATOM     13  O   UNL d   1      58.141  -0.259  29.217  0.00  0.00    -0.300 OA
ATOM     14  C   UNL d   1      57.835   0.475  29.438  0.00  0.00     0.142 A 
ATOM     15  C   UNL d   1      57.603   0.608  30.221  0.00  0.00     0.118 A 
ENDBRANCH   7  10
ENDBRANCH   1   7
BRANCH   3  16
ATOM     16  C   UNL d   1      55.425   0.123  33.585  0.00  0.00     0.002 C 
ATOM     17  C   UNL d   1      55.234  -0.580  33.974  0.00  0.00     0.000 C 
BRANCH  16  18
ATOM     18  C   UNL d   1      54.838   0.682  33.427  0.00  0.00     0.000 C 
ATOM     19  C   UNL d   1      54.085   0.596  33.756  0.00  0.00     0.000 C 
ENDBRANCH  16  18
ENDBRANCH   3  16
BRANCH   4  20
ATOM     20  O   UNL d   1      56.520   0.671  34.689  0.00  0.00    -0.328 OA
ATOM     21  C   UNL d   1      57.081   0.664  35.294  0.00  0.00     0.181 C 
ENDBRANCH   4  20
TORSDOF 5
ENDMDL
MODEL 4
REMARK VINA RESULT:      -1.8      1.376      4.168
REMARK  5 active torsions:
REMARK  status: ('A' for Active; 'I' for Inactive)
REMARK    1  A    between atoms: N_2  and  S_1 
REMARK    2  A    between atoms: C_3  and  S_1 
REMARK    3  A    between atoms: C_14  and  C_5 
REMARK    4  A    between atoms: O_15  and  C_8 
REMARK    5  A    between atoms: C_18  and  C_14 
ROOT
ATOM      1  C   UNL d   1      57.324  -0.407  31.435  0.00  0.00     0.104 A 
ATOM      2  C   UNL d   1      57.904   0.081  31.110  0.00  0.00     0.015 A 
ATOM      3  C   UNL d   1      58.318  -0.159  30.437  0.00  0.00     0.023 A 
ATOM      4  C   UNL d   1      58.154  -0.888  30.088  0.00  0.00     0.094 A 
ATOM      5  C   UNL d   1      57.159  -1.137  31.086  0.00  0.00     0.015 A 
ATOM      6  C   UNL d   1      57.573  -1.377  30.413  0.00  0.00     0.025 A 
ENDROOT
BRANCH   1   7
ATOM      7  S   UNL d   1      56.909  -0.168  32.108  0.00  0.00     0.272 S 
ATOM      8  O   UNL d   1      57.169   0.608  31.992  0.00  0.00    -0.200 OA
ATOM      9  O   UNL d   1      56.650  -0.944  32.225  0.00  0.00    -0.200 OA
BRANCH   7  10
ATOM     10  N   UNL d   1      56.496   0.072  32.779  0.00  0.00    -0.225 N 
ATOM     11  C   UNL d   1      56.895   0.438  33.401  0.00  0.00     0.118 A 
ATOM     12  C   UNL d   1      56.481   0.678  34.075  0.00  0.00     0.142 A 
ATOM     13  O   UNL d   1      55.667   0.552  34.126  0.00  0.00    -0.300 OA
ATOM     14  C   UNL d   1      55.268   0.185  33.504  0.00  0.00     0.142 A 
ATOM     15  C   UNL d   1      55.683  -0.055  32.830  0.00  0.00     0.118 A 
ENDBRANCH   7  10
ENDBRANCH   1   7
BRANCH   3  16
ATOM     16  C   UNL d   1      58.898   0.329  30.112  0.00  0.00     0.002 C 
ATOM     17  C   UNL d   1      58.780   0.666  29.368  0.00  0.00     0.000 C 
BRANCH  16  18
ATOM     18  C   UNL d   1      59.595   0.481  30.529  0.00  0.00     0.000 C 
ATOM     19  C   UNL d   1      60.285   0.682  30.124  0.00  0.00     0.000 C 
ENDBRANCH  16  18
ENDBRANCH   3  16
BRANCH   4  20
ATOM     20  O   UNL d   1      58.568  -1.128  29.415  0.00  0.00    -0.328 OA
ATOM     21  C   UNL d   1      58.416  -1.865  29.076  0.00  0.00     0.181 C 
ENDBRANCH   4  20
TORSDOF 5
ENDMDL
