MODEL 1
REMARK VINA RESULT:      -6.3      0.000      0.000
REMARK  4 active torsions:
REMARK  status: ('A' for Active; 'I' for Inactive)
REMARK    1  A    between atoms: C_2  and  S_1 
REMARK    2  A    between atoms: N_5  and  S_1 
REMARK    3  A    between atoms: C_10  and  N_5 
REMARK    4  A    between atoms: C_11  and  C_10 
ROOT
ATOM      1  S   UNL d   1     -47.030  13.576  23.004  0.00  0.00     0.291 S 
ATOM      2  O   UNL d   1     -47.463  12.944  22.696  0.00  0.00    -0.198 OA
ATOM      3  O   UNL d   1     -46.595  14.206  23.311  0.00  0.00    -0.198 OA
ENDROOT
BRANCH   1   4
ATOM      4  C   UNL d   1     -46.327  13.215  22.767  0.00  0.00     0.135 A 
ATOM      5  S   UNL d   1     -45.786  13.511  22.230  0.00  0.00    -0.074 SA
ATOM      6  C   UNL d   1     -45.168  12.971  22.159  0.00  0.00     0.030 A 
ATOM      7  C   UNL d   1     -44.500  13.045  21.677  0.00  0.00     0.007 C 
ATOM      8  C   UNL d   1     -45.331  12.336  22.660  0.00  0.00     0.008 A 
ATOM      9  C   UNL d   1     -46.046  12.485  23.036  0.00  0.00     0.020 A 
ENDBRANCH   1   4
BRANCH   1  10
ATOM     10  N   UNL d   1     -47.721  13.942  23.243  0.00  0.00    -0.156 NA
BRANCH  10  11
ATOM     11  C   UNL d   1     -48.316  14.095  22.696  0.00  0.00     0.112 C 
BRANCH  11  12
ATOM     12  C   UNL d   1     -48.999  14.496  22.930  0.00  0.00     0.020 A 
ATOM     13  C   UNL d   1     -49.073  15.309  22.776  0.00  0.00     0.002 A 
ATOM     14  C   UNL d   1     -49.755  15.710  23.010  0.00  0.00     0.000 A 
ATOM     15  C   UNL d   1     -50.363  15.298  23.399  0.00  0.00     0.000 A 
ATOM     16  C   UNL d   1     -50.283  14.490  23.549  0.00  0.00     0.000 A 
ATOM     17  C   UNL d   1     -51.045  15.698  23.633  0.00  0.00     0.000 C 
ATOM     18  C   UNL d   1     -49.600  14.089  23.315  0.00  0.00     0.002 A 
ENDBRANCH  11  12
ENDBRANCH  10  11
ENDBRANCH   1  10
TORSDOF 4
ENDMDL
MODEL 2
REMARK VINA RESULT:      -6.3      1.269      4.416
REMARK  4 active torsions:
REMARK  status: ('A' for Active; 'I' for Inactive)
REMARK    1  A    between atoms: C_2  and  S_1 
REMARK    2  A    between atoms: N_5  and  S_1 
REMARK    3  A    between atoms: C_10  and  N_5 
REMARK    4  A    between atoms: C_11  and  C_10 
ROOT
ATOM      1  S   UNL d   1     -48.917  14.041  22.949  0.00  0.00     0.291 S 
ATOM      2  O   UNL d   1     -49.232  13.279  22.920  0.00  0.00    -0.198 OA
ATOM      3  O   UNL d   1     -48.605  14.804  22.979  0.00  0.00    -0.198 OA
ENDROOT
BRANCH   1   4
ATOM      4  C   UNL d   1     -49.642  14.336  23.210  0.00  0.00     0.135 A 
ATOM      5  S   UNL d   1     -49.854  15.123  23.269  0.00  0.00    -0.074 SA
ATOM      6  C   UNL d   1     -50.626  15.164  23.553  0.00  0.00     0.030 A 
ATOM      7  C   UNL d   1     -51.064  15.851  23.698  0.00  0.00     0.007 C 
ATOM      8  C   UNL d   1     -50.892  14.392  23.670  0.00  0.00     0.008 A 
ATOM      9  C   UNL d   1     -50.285  13.879  23.458  0.00  0.00     0.020 A 
ENDBRANCH   1   4
BRANCH   1  10
ATOM     10  N   UNL d   1     -48.194  13.760  22.692  0.00  0.00    -0.156 NA
BRANCH  10  11
ATOM     11  C   UNL d   1     -47.536  13.803  23.185  0.00  0.00     0.112 C 
BRANCH  11  12
ATOM     12  C   UNL d   1     -46.813  13.492  22.937  0.00  0.00     0.020 A 
ATOM     13  C   UNL d   1     -46.301  13.954  22.474  0.00  0.00     0.002 A 
ATOM     14  C   UNL d   1     -45.579  13.643  22.226  0.00  0.00     0.000 A 
ATOM     15  C   UNL d   1     -45.368  12.869  22.441  0.00  0.00     0.000 A 
ATOM     16  C   UNL d   1     -45.881  12.414  22.900  0.00  0.00     0.000 A 
ATOM     17  C   UNL d   1     -44.646  12.557  22.193  0.00  0.00     0.000 C 
ATOM     18  C   UNL d   1     -46.604  12.725  23.148  0.00  0.00     0.002 A 
ENDBRANCH  11  12
ENDBRANCH  10  11
ENDBRANCH   1  10
TORSDOF 4
ENDMDL
MODEL 3
REMARK VINA RESULT:      -5.8      2.014      4.677
REMARK  4 active torsions:
REMARK  status: ('A' for Active; 'I' for Inactive)
REMARK    1  A    between atoms: C_2  and  S_1 
REMARK    2  A    between atoms: N_5  and  S_1 
REMARK    3  A    between atoms: C_10  and  N_5 
REMARK    4  A    between atoms: C_11  and  C_10 
ROOT
ATOM      1  S   UNL d   1     -49.225  12.471  22.661  0.00  0.00     0.291 S 
ATOM      2  O   UNL d   1     -48.859  12.500  21.922  0.00  0.00    -0.198 OA
ATOM      3  O   UNL d   1     -49.593  12.445  23.399  0.00  0.00    -0.198 OA
ENDROOT
BRANCH   1   4
ATOM      4  C   UNL d   1     -49.843  12.938  22.378  0.00  0.00     0.135 A 
ATOM      5  S   UNL d   1     -49.991  13.719  22.569  0.00  0.00    -0.074 SA
ATOM      6  C   UNL d   1     -50.662  13.965  22.161  0.00  0.00     0.030 A 
ATOM      7  C   UNL d   1     -51.012  14.714  22.189  0.00  0.00     0.007 C 
ATOM      8  C   UNL d   1     -50.932  13.326  21.713  0.00  0.00     0.008 A 
ATOM      9  C   UNL d   1     -50.427  12.691  21.846  0.00  0.00     0.020 A 
ENDBRANCH   1   4
BRANCH   1  10
ATOM     10  N   UNL d   1     -48.617  12.009  22.952  0.00  0.00    -0.156 NA
BRANCH  10  11
ATOM     11  C   UNL d   1     -47.965  12.363  23.309  0.00  0.00     0.112 C 
BRANCH  11  12
ATOM     12  C   UNL d   1     -47.265  11.936  23.406  0.00  0.00     0.020 A 
ATOM     13  C   UNL d   1     -47.298  11.127  23.593  0.00  0.00     0.002 A 
ATOM     14  C   UNL d   1     -46.598  10.701  23.690  0.00  0.00     0.000 A 
ATOM     15  C   UNL d   1     -45.866  11.083  23.601  0.00  0.00     0.000 A 
ATOM     16  C   UNL d   1     -45.841  11.887  23.415  0.00  0.00     0.000 A 
ATOM     17  C   UNL d   1     -45.167  10.656  23.698  0.00  0.00     0.000 C 
ATOM     18  C   UNL d   1     -46.540  12.313  23.318  0.00  0.00     0.002 A 
ENDBRANCH  11  12
ENDBRANCH  10  11
ENDBRANCH   1  10
TORSDOF 4
ENDMDL
MODEL 4
REMARK VINA RESULT:      -5.6      8.566      9.437
REMARK  4 active torsions:
REMARK  status: ('A' for Active; 'I' for Inactive)
REMARK    1  A    between atoms: C_2  and  S_1 
REMARK    2  A    between atoms: N_5  and  S_1 
REMARK    3  A    between atoms: C_10  and  N_5 
REMARK    4  A    between atoms: C_11  and  C_10 
ROOT
ATOM      1  S   UNL d   1     -39.965  14.502  18.554  0.00  0.00     0.291 S 
ATOM      2  O   UNL d   1     -39.303  14.994  18.541  0.00  0.00    -0.198 OA
ATOM      3  O   UNL d   1     -40.628  14.011  18.563  0.00  0.00    -0.198 OA
ENDROOT
BRANCH   1   4
ATOM      4  C   UNL d   1     -40.237  14.842  17.853  0.00  0.00     0.135 A 
ATOM      5  S   UNL d   1     -40.938  15.250  17.750  0.00  0.00    -0.074 SA
ATOM      6  C   UNL d   1     -40.986  15.493  16.965  0.00  0.00     0.030 A 
ATOM      7  C   UNL d   1     -41.601  15.922  16.616  0.00  0.00     0.007 C 
ATOM      8  C   UNL d   1     -40.304  15.232  16.580  0.00  0.00     0.008 A 
ATOM      9  C   UNL d   1     -39.841  14.830  17.127  0.00  0.00     0.020 A 
ENDBRANCH   1   4
BRANCH   1  10
ATOM     10  N   UNL d   1     -39.705  14.157  19.247  0.00  0.00    -0.156 NA
BRANCH  10  11
ATOM     11  C   UNL d   1     -39.521  14.628  19.897  0.00  0.00     0.112 C 
BRANCH  11  12
ATOM     12  C   UNL d   1     -39.306  14.277  20.613  0.00  0.00     0.020 A 
ATOM     13  C   UNL d   1     -38.584  13.871  20.673  0.00  0.00     0.002 A 
ATOM     14  C   UNL d   1     -38.369  13.521  21.388  0.00  0.00     0.000 A 
ATOM     15  C   UNL d   1     -38.875  13.577  22.043  0.00  0.00     0.000 A 
ATOM     16  C   UNL d   1     -39.592  13.982  21.978  0.00  0.00     0.000 A 
ATOM     17  C   UNL d   1     -38.660  13.227  22.759  0.00  0.00     0.000 C 
ATOM     18  C   UNL d   1     -39.807  14.332  21.262  0.00  0.00     0.002 A 
ENDBRANCH  11  12
ENDBRANCH  10  11
ENDBRANCH   1  10
TORSDOF 4
ENDMDL
MODEL 5
REMARK VINA RESULT:      -5.3      8.567      9.009
REMARK  4 active torsions:
REMARK  status: ('A' for Active; 'I' for Inactive)
REMARK    1  A    between atoms: C_2  and  S_1 
REMARK    2  A    between atoms: N_5  and  S_1 
REMARK    3  A    between atoms: C_10  and  N_5 
REMARK    4  A    between atoms: C_11  and  C_10 
ROOT
ATOM      1  S   UNL d   1     -39.195  14.327  20.593  0.00  0.00     0.291 S 
ATOM      2  O   UNL d   1     -39.953  14.195  20.892  0.00  0.00    -0.198 OA
ATOM      3  O   UNL d   1     -38.437  14.456  20.296  0.00  0.00    -0.198 OA
ENDROOT
BRANCH   1   4
ATOM      4  C   UNL d   1     -38.868  13.914  21.228  0.00  0.00     0.135 A 
ATOM      5  S   UNL d   1     -39.101  13.960  22.010  0.00  0.00    -0.074 SA
ATOM      6  C   UNL d   1     -38.625  13.456  22.454  0.00  0.00     0.030 A 
ATOM      7  C   UNL d   1     -38.665  13.328  23.270  0.00  0.00     0.007 C 
ATOM      8  C   UNL d   1     -38.091  13.095  21.938  0.00  0.00     0.008 A 
ATOM      9  C   UNL d   1     -38.241  13.377  21.180  0.00  0.00     0.020 A 
ENDBRANCH   1   4
BRANCH   1  10
ATOM     10  N   UNL d   1     -39.509  14.737  19.960  0.00  0.00    -0.156 NA
BRANCH  10  11
ATOM     11  C   UNL d   1     -40.126  14.412  19.523  0.00  0.00     0.112 C 
BRANCH  11  12
ATOM     12  C   UNL d   1     -40.369  14.771  18.821  0.00  0.00     0.020 A 
ATOM     13  C   UNL d   1     -40.626  15.561  18.828  0.00  0.00     0.002 A 
ATOM     14  C   UNL d   1     -40.868  15.920  18.126  0.00  0.00     0.000 A 
ATOM     15  C   UNL d   1     -40.855  15.489  17.417  0.00  0.00     0.000 A 
ATOM     16  C   UNL d   1     -40.599  14.704  17.416  0.00  0.00     0.000 A 
ATOM     17  C   UNL d   1     -41.097  15.848  16.715  0.00  0.00     0.000 C 
ATOM     18  C   UNL d   1     -40.356  14.345  18.118  0.00  0.00     0.002 A 
ENDBRANCH  11  12
ENDBRANCH  10  11
ENDBRANCH   1  10
TORSDOF 4
ENDMDL
MODEL 6
REMARK VINA RESULT:      -4.9      8.216     10.273
REMARK  4 active torsions:
REMARK  status: ('A' for Active; 'I' for Inactive)
REMARK    1  A    between atoms: C_2  and  S_1 
REMARK    2  A    between atoms: N_5  and  S_1 
REMARK    3  A    between atoms: C_10  and  N_5 
REMARK    4  A    between atoms: C_11  and  C_10 
ROOT
ATOM      1  S   UNL d   1     -39.722  15.290  19.164  0.00  0.00     0.291 S 
ATOM      2  O   UNL d   1     -40.253  14.659  19.179  0.00  0.00    -0.198 OA
ATOM      3  O   UNL d   1     -39.192  15.922  19.152  0.00  0.00    -0.198 OA
ENDROOT
BRANCH   1   4
ATOM      4  C   UNL d   1     -39.931  15.490  19.936  0.00  0.00     0.135 A 
ATOM      5  S   UNL d   1     -39.431  15.519  20.583  0.00  0.00    -0.074 SA
ATOM      6  C   UNL d   1     -39.871  15.743  21.242  0.00  0.00     0.030 A 
ATOM      7  C   UNL d   1     -39.591  15.842  22.014  0.00  0.00     0.007 C 
ATOM      8  C   UNL d   1     -40.652  15.854  20.997  0.00  0.00     0.008 A 
ATOM      9  C   UNL d   1     -40.690  15.698  20.191  0.00  0.00     0.020 A 
ENDBRANCH   1   4
BRANCH   1  10
ATOM     10  N   UNL d   1     -39.508  15.101  18.398  0.00  0.00    -0.156 NA
BRANCH  10  11
ATOM     11  C   UNL d   1     -39.379  14.315  18.188  0.00  0.00     0.112 C 
BRANCH  11  12
ATOM     12  C   UNL d   1     -39.019  14.133  17.469  0.00  0.00     0.020 A 
ATOM     13  C   UNL d   1     -38.430  13.548  17.438  0.00  0.00     0.002 A 
ATOM     14  C   UNL d   1     -38.070  13.366  16.718  0.00  0.00     0.000 A 
ATOM     15  C   UNL d   1     -38.299  13.770  16.029  0.00  0.00     0.000 A 
ATOM     16  C   UNL d   1     -38.885  14.350  16.067  0.00  0.00     0.000 A 
ATOM     17  C   UNL d   1     -37.940  13.588  15.309  0.00  0.00     0.000 C 
ATOM     18  C   UNL d   1     -39.245  14.532  16.786  0.00  0.00     0.002 A 
ENDBRANCH  11  12
ENDBRANCH  10  11
ENDBRANCH   1  10
TORSDOF 4
ENDMDL
