MODEL 1
REMARK VINA RESULT:      -8.6      0.000      0.000
REMARK  5 active torsions:
REMARK  status: ('A' for Active; 'I' for Inactive)
REMARK    1  A    between atoms: C_6  and  N_2 
REMARK    2  A    between atoms: C_7  and  C_6 
REMARK    3  A    between atoms: C_8  and  C_7 
REMARK       I    between atoms: N_10  and  C_8 
REMARK    4  A    between atoms: C_12  and  N_10 
REMARK    5  A    between atoms: C_13  and  C_12 
ROOT
ATOM      1  C   UNL d   1      52.113  34.202  52.995  0.00  0.00     0.088 C 
ENDROOT
BRANCH   1   2
ATOM      2  N   UNL d   1      52.657  34.129  53.609  0.00  0.00    -0.268 N 
ATOM      3  C   UNL d   1      52.878  34.722  54.134  0.00  0.00     0.296 A 
ATOM      4  S   UNL d   1      53.454  34.375  54.665  0.00  0.00    -0.025 SA
ATOM      5  O   UNL d   1      52.593  35.495  54.136  0.00  0.00    -0.259 OA
ATOM      6  C   UNL d   1      53.554  33.618  54.450  0.00  0.00     0.050 A 
ATOM      7  C   UNL d   1      54.044  33.031  54.773  0.00  0.00     0.008 A 
ATOM      8  C   UNL d   1      53.074  33.444  53.803  0.00  0.00     0.073 A 
ATOM      9  C   UNL d   1      54.050  32.269  54.444  0.00  0.00     0.001 A 
ATOM     10  C   UNL d   1      53.565  32.106  53.797  0.00  0.00     0.002 A 
ATOM     11  C   UNL d   1      53.079  32.694  53.478  0.00  0.00     0.018 A 
ENDBRANCH   1   2
BRANCH   1  12
ATOM     12  C   UNL d   1      51.309  34.234  53.157  0.00  0.00     0.082 C 
BRANCH  12  13
ATOM     13  C   UNL d   1      50.763  34.333  52.547  0.00  0.00     0.281 C 
ATOM     14  N   UNL d   1      50.020  34.650  52.698  0.00  0.00    -0.206 NA
ATOM     15  O   UNL d   1      50.964  34.113  51.778  0.00  0.00    -0.265 OA
BRANCH  14  16
ATOM     16  C   UNL d   1      49.480  34.748  52.090  0.00  0.00     0.102 C 
BRANCH  16  17
ATOM     17  C   UNL d   1      48.787  35.169  52.224  0.00  0.00     0.019 A 
ATOM     18  C   UNL d   1      48.667  35.557  52.951  0.00  0.00     0.002 A 
ATOM     19  C   UNL d   1      47.963  35.980  53.078  0.00  0.00     0.000 A 
ATOM     20  C   UNL d   1      47.386  36.020  52.495  0.00  0.00     0.000 A 
ATOM     21  C   UNL d   1      47.506  35.632  51.767  0.00  0.00     0.000 A 
ATOM     22  C   UNL d   1      48.202  35.206  51.627  0.00  0.00     0.002 A 
ENDBRANCH  16  17
ENDBRANCH  14  16
ENDBRANCH  12  13
ENDBRANCH   1  12
TORSDOF 5
ENDMDL
MODEL 2
REMARK VINA RESULT:      -7.8      2.661      5.196
REMARK  5 active torsions:
REMARK  status: ('A' for Active; 'I' for Inactive)
REMARK    1  A    between atoms: C_6  and  N_2 
REMARK    2  A    between atoms: C_7  and  C_6 
REMARK    3  A    between atoms: C_8  and  C_7 
REMARK       I    between atoms: N_10  and  C_8 
REMARK    4  A    between atoms: C_12  and  N_10 
REMARK    5  A    between atoms: C_13  and  C_12 
ROOT
ATOM      1  C   UNL d   1      52.920  32.797  52.889  0.00  0.00     0.088 C 
ENDROOT
BRANCH   1   2
ATOM      2  N   UNL d   1      52.699  33.547  53.147  0.00  0.00    -0.268 N 
ATOM      3  C   UNL d   1      52.117  34.022  52.814  0.00  0.00     0.296 A 
ATOM      4  S   UNL d   1      52.097  34.743  53.278  0.00  0.00    -0.025 SA
ATOM      5  O   UNL d   1      51.652  33.830  52.162  0.00  0.00    -0.259 OA
ATOM      6  C   UNL d   1      52.643  34.678  53.848  0.00  0.00     0.050 A 
ATOM      7  C   UNL d   1      52.857  35.211  54.447  0.00  0.00     0.008 A 
ATOM      8  C   UNL d   1      53.027  33.951  53.788  0.00  0.00     0.073 A 
ATOM      9  C   UNL d   1      53.456  35.012  54.986  0.00  0.00     0.001 A 
ATOM     10  C   UNL d   1      53.833  34.281  54.916  0.00  0.00     0.002 A 
ATOM     11  C   UNL d   1      53.617  33.754  54.317  0.00  0.00     0.018 A 
ENDBRANCH   1   2
BRANCH   1  12
ATOM     12  C   UNL d   1      52.448  32.147  53.054  0.00  0.00     0.082 C 
BRANCH  12  13
ATOM     13  C   UNL d   1      52.721  31.383  52.907  0.00  0.00     0.281 C 
ATOM     14  N   UNL d   1      52.804  30.843  53.521  0.00  0.00    -0.206 NA
ATOM     15  O   UNL d   1      52.911  31.158  52.136  0.00  0.00    -0.265 OA
BRANCH  14  16
ATOM     16  C   UNL d   1      53.075  30.085  53.371  0.00  0.00     0.102 C 
BRANCH  16  17
ATOM     17  C   UNL d   1      53.205  29.567  53.996  0.00  0.00     0.019 A 
ATOM     18  C   UNL d   1      52.954  29.768  54.765  0.00  0.00     0.002 A 
ATOM     19  C   UNL d   1      53.089  29.239  55.391  0.00  0.00     0.000 A 
ATOM     20  C   UNL d   1      53.466  28.521  55.260  0.00  0.00     0.000 A 
ATOM     21  C   UNL d   1      53.717  28.319  54.491  0.00  0.00     0.000 A 
ATOM     22  C   UNL d   1      53.589  28.837  53.857  0.00  0.00     0.002 A 
ENDBRANCH  16  17
ENDBRANCH  14  16
ENDBRANCH  12  13
ENDBRANCH   1  12
TORSDOF 5
ENDMDL
MODEL 3
REMARK VINA RESULT:      -7.8      1.972      5.002
REMARK  5 active torsions:
REMARK  status: ('A' for Active; 'I' for Inactive)
REMARK    1  A    between atoms: C_6  and  N_2 
REMARK    2  A    between atoms: C_7  and  C_6 
REMARK    3  A    between atoms: C_8  and  C_7 
REMARK       I    between atoms: N_10  and  C_8 
REMARK    4  A    between atoms: C_12  and  N_10 
REMARK    5  A    between atoms: C_13  and  C_12 
ROOT
ATOM      1  C   UNL d   1      53.515  33.681  53.421  0.00  0.00     0.088 C 
ENDROOT
BRANCH   1   2
ATOM      2  N   UNL d   1      52.895  34.197  53.587  0.00  0.00    -0.268 N 
ATOM      3  C   UNL d   1      52.909  34.811  54.133  0.00  0.00     0.296 A 
ATOM      4  S   UNL d   1      52.137  35.182  54.102  0.00  0.00    -0.025 SA
ATOM      5  O   UNL d   1      53.547  35.018  54.611  0.00  0.00    -0.259 OA
ATOM      6  C   UNL d   1      51.705  34.794  53.562  0.00  0.00     0.050 A 
ATOM      7  C   UNL d   1      50.924  34.920  53.311  0.00  0.00     0.008 A 
ATOM      8  C   UNL d   1      52.151  34.184  53.232  0.00  0.00     0.073 A 
ATOM      9  C   UNL d   1      50.592  34.432  52.728  0.00  0.00     0.001 A 
ATOM     10  C   UNL d   1      51.047  33.824  52.405  0.00  0.00     0.002 A 
ATOM     11  C   UNL d   1      51.824  33.702  52.658  0.00  0.00     0.018 A 
ENDBRANCH   1   2
BRANCH   1  12
ATOM     12  C   UNL d   1      53.771  33.146  53.988  0.00  0.00     0.082 C 
BRANCH  12  13
ATOM     13  C   UNL d   1      54.104  32.426  53.764  0.00  0.00     0.281 C 
ATOM     14  N   UNL d   1      53.693  31.722  53.872  0.00  0.00    -0.206 NA
ATOM     15  O   UNL d   1      54.857  32.411  53.428  0.00  0.00    -0.265 OA
BRANCH  14  16
ATOM     16  C   UNL d   1      54.027  31.009  53.649  0.00  0.00     0.102 C 
BRANCH  16  17
ATOM     17  C   UNL d   1      53.579  30.321  53.681  0.00  0.00     0.019 A 
ATOM     18  C   UNL d   1      53.678  29.785  54.311  0.00  0.00     0.002 A 
ATOM     19  C   UNL d   1      53.221  29.092  54.336  0.00  0.00     0.000 A 
ATOM     20  C   UNL d   1      52.672  28.930  53.746  0.00  0.00     0.000 A 
ATOM     21  C   UNL d   1      52.572  29.466  53.115  0.00  0.00     0.000 A 
ATOM     22  C   UNL d   1      53.021  30.161  53.078  0.00  0.00     0.002 A 
ENDBRANCH  16  17
ENDBRANCH  14  16
ENDBRANCH  12  13
ENDBRANCH   1  12
TORSDOF 5
ENDMDL
MODEL 4
REMARK VINA RESULT:      -7.5      2.001      5.641
REMARK  5 active torsions:
REMARK  status: ('A' for Active; 'I' for Inactive)
REMARK    1  A    between atoms: C_6  and  N_2 
REMARK    2  A    between atoms: C_7  and  C_6 
REMARK    3  A    between atoms: C_8  and  C_7 
REMARK       I    between atoms: N_10  and  C_8 
REMARK    4  A    between atoms: C_12  and  N_10 
REMARK    5  A    between atoms: C_13  and  C_12 
ROOT
ATOM      1  C   UNL d   1      48.522  35.649  52.311  0.00  0.00     0.088 C 
ENDROOT
BRANCH   1   2
ATOM      2  N   UNL d   1      47.857  36.011  52.635  0.00  0.00    -0.268 N 
ATOM      3  C   UNL d   1      47.836  36.456  53.326  0.00  0.00     0.296 A 
ATOM      4  S   UNL d   1      47.024  36.709  53.428  0.00  0.00    -0.025 SA
ATOM      5  O   UNL d   1      48.478  36.618  53.815  0.00  0.00    -0.259 OA
ATOM      6  C   UNL d   1      46.603  36.420  52.821  0.00  0.00     0.050 A 
ATOM      7  C   UNL d   1      45.796  36.496  52.645  0.00  0.00     0.008 A 
ATOM      8  C   UNL d   1      47.095  35.987  52.320  0.00  0.00     0.073 A 
ATOM      9  C   UNL d   1      45.483  36.136  51.966  0.00  0.00     0.001 A 
ATOM     10  C   UNL d   1      45.985  35.705  51.473  0.00  0.00     0.002 A 
ATOM     11  C   UNL d   1      46.788  35.632  51.651  0.00  0.00     0.018 A 
ENDBRANCH   1   2
BRANCH   1  12
ATOM     12  C   UNL d   1      48.941  35.091  52.742  0.00  0.00     0.082 C 
BRANCH  12  13
ATOM     13  C   UNL d   1      49.578  34.692  52.403  0.00  0.00     0.281 C 
ATOM     14  N   UNL d   1      50.261  34.549  52.837  0.00  0.00    -0.206 NA
ATOM     15  O   UNL d   1      49.528  34.432  51.622  0.00  0.00    -0.265 OA
BRANCH  14  16
ATOM     16  C   UNL d   1      50.891  34.152  52.497  0.00  0.00     0.102 C 
BRANCH  16  17
ATOM     17  C   UNL d   1      51.583  34.043  52.926  0.00  0.00     0.019 A 
ATOM     18  C   UNL d   1      52.113  34.677  53.036  0.00  0.00     0.002 A 
ATOM     19  C   UNL d   1      52.810  34.559  53.471  0.00  0.00     0.000 A 
ATOM     20  C   UNL d   1      52.983  33.823  53.794  0.00  0.00     0.000 A 
ATOM     21  C   UNL d   1      52.454  33.188  53.685  0.00  0.00     0.000 A 
ATOM     22  C   UNL d   1      51.755  33.292  53.253  0.00  0.00     0.002 A 
ENDBRANCH  16  17
ENDBRANCH  14  16
ENDBRANCH  12  13
ENDBRANCH   1  12
TORSDOF 5
ENDMDL
MODEL 5
REMARK VINA RESULT:      -7.0      1.567      5.391
REMARK  5 active torsions:
REMARK  status: ('A' for Active; 'I' for Inactive)
REMARK    1  A    between atoms: C_6  and  N_2 
REMARK    2  A    between atoms: C_7  and  C_6 
REMARK    3  A    between atoms: C_8  and  C_7 
REMARK       I    between atoms: N_10  and  C_8 
REMARK    4  A    between atoms: C_12  and  N_10 
REMARK    5  A    between atoms: C_13  and  C_12 
ROOT
ATOM      1  C   UNL d   1      49.813  34.661  52.826  0.00  0.00     0.088 C 
ENDROOT
BRANCH   1   2
ATOM      2  N   UNL d   1      49.175  34.902  52.364  0.00  0.00    -0.268 N 
ATOM      3  C   UNL d   1      49.017  34.663  51.594  0.00  0.00     0.296 A 
ATOM      4  S   UNL d   1      48.297  35.064  51.358  0.00  0.00    -0.025 SA
ATOM      5  O   UNL d   1      49.470  34.139  51.148  0.00  0.00    -0.259 OA
ATOM      6  C   UNL d   1      48.058  35.510  51.968  0.00  0.00     0.050 A 
ATOM      7  C   UNL d   1      47.399  36.009  52.040  0.00  0.00     0.008 A 
ATOM      8  C   UNL d   1      48.583  35.426  52.599  0.00  0.00     0.073 A 
ATOM      9  C   UNL d   1      47.268  36.423  52.747  0.00  0.00     0.001 A 
ATOM     10  C   UNL d   1      47.800  36.332  53.372  0.00  0.00     0.002 A 
ATOM     11  C   UNL d   1      48.455  35.834  53.295  0.00  0.00     0.018 A 
ENDBRANCH   1   2
BRANCH   1  12
ATOM     12  C   UNL d   1      50.518  34.438  52.471  0.00  0.00     0.082 C 
BRANCH  12  13
ATOM     13  C   UNL d   1      51.205  34.356  52.921  0.00  0.00     0.281 C 
ATOM     14  N   UNL d   1      51.612  33.642  52.935  0.00  0.00    -0.206 NA
ATOM     15  O   UNL d   1      51.485  34.996  53.360  0.00  0.00    -0.265 OA
BRANCH  14  16
ATOM     16  C   UNL d   1      52.294  33.564  53.383  0.00  0.00     0.102 C 
BRANCH  16  17
ATOM     17  C   UNL d   1      52.701  32.851  53.384  0.00  0.00     0.019 A 
ATOM     18  C   UNL d   1      52.391  32.191  52.980  0.00  0.00     0.002 A 
ATOM     19  C   UNL d   1      52.809  31.473  52.987  0.00  0.00     0.000 A 
ATOM     20  C   UNL d   1      53.524  31.407  53.387  0.00  0.00     0.000 A 
ATOM     21  C   UNL d   1      53.835  32.066  53.790  0.00  0.00     0.000 A 
ATOM     22  C   UNL d   1      53.429  32.788  53.792  0.00  0.00     0.002 A 
ENDBRANCH  16  17
ENDBRANCH  14  16
ENDBRANCH  12  13
ENDBRANCH   1  12
TORSDOF 5
ENDMDL
