MODEL 1
REMARK VINA RESULT:      91.1      0.000      0.000
REMARK  3 active torsions:
REMARK  status: ('A' for Active; 'I' for Inactive)
REMARK    1  A    between atoms: C_5  and  C_1 
REMARK    2  A    between atoms: N_8  and  C_5 
REMARK    3  A    between atoms: C_10  and  C_5 
ROOT
ATOM      1  C   UNL d   1     -50.623  26.052  33.889  0.00  0.00     0.085 C 
ENDROOT
BRANCH   1   2
ATOM      2  C   UNL d   1     -50.117  26.659  34.147  0.00  0.00     0.059 A 
ATOM      3  C   UNL d   1     -50.061  26.819  34.956  0.00  0.00     0.214 A 
ATOM      4  C   UNL d   1     -49.559  27.421  35.207  0.00  0.00     0.121 A 
ATOM      5  O   UNL d   1     -50.497  26.388  35.496  0.00  0.00    -0.285 OA
ATOM      6  N   UNL d   1     -49.502  27.582  36.016  0.00  0.00    -0.241 NA
ATOM      7  C   UNL d   1     -49.119  27.857  34.661  0.00  0.00     0.032 A 
ATOM      8  C   UNL d   1     -48.998  28.186  36.269  0.00  0.00     0.099 A 
ATOM      9  C   UNL d   1     -48.552  28.630  35.730  0.00  0.00     0.021 A 
ATOM     10  C   UNL d   1     -48.617  28.459  34.918  0.00  0.00     0.004 A 
ATOM     11  C   UNL d   1     -49.175  27.696  33.858  0.00  0.00     0.059 A 
ATOM     12  C   UNL d   1     -49.679  27.092  33.598  0.00  0.00     0.016 A 
ATOM     13 CL   UNL d   1     -48.738  28.130  33.315  0.00  0.00    -0.082 Cl
ENDBRANCH   1   2
BRANCH   1  14
ATOM     14  N   UNL d   1     -50.322  25.317  33.697  0.00  0.00    -0.302 N 
ATOM     15  C   UNL d   1     -49.501  25.195  33.664  0.00  0.00     0.080 A 
ATOM     16  C   UNL d   1     -49.195  24.450  33.468  0.00  0.00     0.019 A 
ATOM     17  C   UNL d   1     -49.714  23.835  33.307  0.00  0.00     0.003 A 
ATOM     18  C   UNL d   1     -50.529  23.952  33.339  0.00  0.00     0.019 A 
ATOM     19  C   UNL d   1     -50.829  24.686  33.531  0.00  0.00     0.080 A 
ENDBRANCH   1  14
BRANCH   1  20
ATOM     20  C   UNL d   1     -51.434  26.202  33.831  0.00  0.00     0.098 A 
ATOM     21  N   UNL d   1     -51.705  26.830  33.366  0.00  0.00    -0.243 NA
ATOM     22  C   UNL d   1     -52.502  26.983  33.306  0.00  0.00     0.099 A 
ATOM     23  C   UNL d   1     -53.048  26.508  33.710  0.00  0.00     0.021 A 
ATOM     24  C   UNL d   1     -52.783  25.880  34.176  0.00  0.00     0.003 A 
ATOM     25  C   UNL d   1     -51.977  25.730  34.234  0.00  0.00     0.021 A 
ENDBRANCH   1  20
TORSDOF 3
ENDMDL
MODEL 2
REMARK VINA RESULT:      91.5      3.531      5.722
REMARK  3 active torsions:
REMARK  status: ('A' for Active; 'I' for Inactive)
REMARK    1  A    between atoms: C_5  and  C_1 
REMARK    2  A    between atoms: N_8  and  C_5 
REMARK    3  A    between atoms: C_10  and  C_5 
ROOT
ATOM      1  C   UNL d   1     -47.629  30.312  35.191  0.00  0.00     0.085 C 
ENDROOT
BRANCH   1   2
ATOM      2  C   UNL d   1     -47.528  30.998  34.733  0.00  0.00     0.059 A 
ATOM      3  C   UNL d   1     -48.117  31.578  34.742  0.00  0.00     0.214 A 
ATOM      4  C   UNL d   1     -48.012  32.256  34.287  0.00  0.00     0.121 A 
ATOM      5  O   UNL d   1     -48.791  31.478  35.193  0.00  0.00    -0.285 OA
ATOM      6  N   UNL d   1     -48.602  32.835  34.295  0.00  0.00    -0.241 NA
ATOM      7  C   UNL d   1     -47.332  32.357  33.831  0.00  0.00     0.032 A 
ATOM      8  C   UNL d   1     -48.499  33.517  33.840  0.00  0.00     0.099 A 
ATOM      9  C   UNL d   1     -47.819  33.629  33.378  0.00  0.00     0.021 A 
ATOM     10  C   UNL d   1     -47.232  33.038  33.378  0.00  0.00     0.004 A 
ATOM     11  C   UNL d   1     -46.747  31.780  33.824  0.00  0.00     0.059 A 
ATOM     12  C   UNL d   1     -46.846  31.094  34.279  0.00  0.00     0.016 A 
ATOM     13 CL   UNL d   1     -46.070  31.880  33.370  0.00  0.00    -0.082 Cl
ENDBRANCH   1   2
BRANCH   1  14
ATOM     14  N   UNL d   1     -48.066  29.685  34.903  0.00  0.00    -0.302 N 
ATOM     15  C   UNL d   1     -47.858  28.904  35.095  0.00  0.00     0.080 A 
ATOM     16  C   UNL d   1     -48.301  28.267  34.803  0.00  0.00     0.019 A 
ATOM     17  C   UNL d   1     -48.949  28.419  34.321  0.00  0.00     0.003 A 
ATOM     18  C   UNL d   1     -49.158  29.191  34.129  0.00  0.00     0.019 A 
ATOM     19  C   UNL d   1     -48.722  29.818  34.417  0.00  0.00     0.080 A 
ENDBRANCH   1  14
BRANCH   1  20
ATOM     20  C   UNL d   1     -47.282  30.273  35.940  0.00  0.00     0.098 A 
ATOM     21  N   UNL d   1     -47.758  30.282  36.616  0.00  0.00    -0.243 NA
ATOM     22  C   UNL d   1     -47.422  30.244  37.356  0.00  0.00     0.099 A 
ATOM     23  C   UNL d   1     -46.598  30.195  37.437  0.00  0.00     0.021 A 
ATOM     24  C   UNL d   1     -46.118  30.186  36.764  0.00  0.00     0.003 A 
ATOM     25  C   UNL d   1     -46.462  30.225  36.020  0.00  0.00     0.021 A 
ENDBRANCH   1  20
TORSDOF 3
ENDMDL
MODEL 3
REMARK VINA RESULT:      92.1      2.217      3.058
REMARK  3 active torsions:
REMARK  status: ('A' for Active; 'I' for Inactive)
REMARK    1  A    between atoms: C_5  and  C_1 
REMARK    2  A    between atoms: N_8  and  C_5 
REMARK    3  A    between atoms: C_10  and  C_5 
ROOT
ATOM      1  C   UNL d   1     -51.697  25.684  34.502  0.00  0.00     0.085 C 
ENDROOT
BRANCH   1   2
ATOM      2  C   UNL d   1     -51.856  25.752  35.315  0.00  0.00     0.059 A 
ATOM      3  C   UNL d   1     -51.319  26.154  35.798  0.00  0.00     0.214 A 
ATOM      4  C   UNL d   1     -51.481  26.218  36.603  0.00  0.00     0.121 A 
ATOM      5  O   UNL d   1     -50.641  26.481  35.482  0.00  0.00    -0.285 OA
ATOM      6  N   UNL d   1     -50.945  26.620  37.086  0.00  0.00    -0.241 NA
ATOM      7  C   UNL d   1     -52.167  25.888  36.922  0.00  0.00     0.032 A 
ATOM      8  C   UNL d   1     -51.106  26.686  37.894  0.00  0.00     0.099 A 
ATOM      9  C   UNL d   1     -51.791  26.358  38.226  0.00  0.00     0.021 A 
ATOM     10  C   UNL d   1     -52.324  25.955  37.729  0.00  0.00     0.004 A 
ATOM     11  C   UNL d   1     -52.699  25.488  36.441  0.00  0.00     0.059 A 
ATOM     12  C   UNL d   1     -52.543  25.419  35.630  0.00  0.00     0.016 A 
ATOM     13 CL   UNL d   1     -53.381  25.160  36.759  0.00  0.00    -0.082 Cl
ENDBRANCH   1   2
BRANCH   1  14
ATOM     14  N   UNL d   1     -51.859  24.989  34.106  0.00  0.00    -0.302 N 
ATOM     15  C   UNL d   1     -52.646  24.759  33.967  0.00  0.00     0.080 A 
ATOM     16  C   UNL d   1     -52.811  24.053  33.564  0.00  0.00     0.019 A 
ATOM     17  C   UNL d   1     -52.188  23.585  33.306  0.00  0.00     0.003 A 
ATOM     18  C   UNL d   1     -51.408  23.810  33.442  0.00  0.00     0.019 A 
ATOM     19  C   UNL d   1     -51.246  24.504  33.838  0.00  0.00     0.080 A 
ENDBRANCH   1  14
BRANCH   1  20
ATOM     20  C   UNL d   1     -51.371  26.330  34.102  0.00  0.00     0.098 A 
ATOM     21  N   UNL d   1     -50.551  26.443  34.099  0.00  0.00    -0.243 NA
ATOM     22  C   UNL d   1     -50.225  27.077  33.706  0.00  0.00     0.099 A 
ATOM     23  C   UNL d   1     -50.713  27.614  33.306  0.00  0.00     0.021 A 
ATOM     24  C   UNL d   1     -51.532  27.505  33.306  0.00  0.00     0.003 A 
ATOM     25  C   UNL d   1     -51.857  26.864  33.703  0.00  0.00     0.021 A 
ENDBRANCH   1  20
TORSDOF 3
ENDMDL
