MODEL 1
REMARK VINA RESULT:      40.7      0.000      0.000
REMARK  6 active torsions:
REMARK  status: ('A' for Active; 'I' for Inactive)
REMARK    1  A    between atoms: C_7  and  C_2 
REMARK    2  A    between atoms: C_16  and  N_3 
REMARK    3  A    between atoms: O_17  and  C_9 
REMARK    4  A    between atoms: O_19  and  C_10 
REMARK    5  A    between atoms: O_18  and  C_11 
REMARK    6  A    between atoms: C_25  and  C_16 
ROOT
ATOM      1  N   UNL d   1      46.182 -16.070  43.047  0.00  0.00    -0.206 NA
ATOM      2  C   UNL d   1      45.816 -15.713  43.701  0.00  0.00     0.151 A 
ATOM      3  N   UNL d   1      45.580 -16.315  44.221  0.00  0.00    -0.273 N 
ATOM      4  C   UNL d   1      45.803 -17.034  43.883  0.00  0.00     0.185 A 
ATOM      5  C   UNL d   1      46.173 -16.886  43.162  0.00  0.00     0.199 A 
ATOM      6  N   UNL d   1      45.716 -17.820  44.143  0.00  0.00    -0.224 NA
ATOM      7  N   UNL d   1      46.453 -17.509  42.703  0.00  0.00    -0.223 NA
ATOM      8  C   UNL d   1      45.998 -18.442  43.679  0.00  0.00     0.101 A 
ATOM      9  C   UNL d   1      46.368 -18.283  42.958  0.00  0.00     0.101 A 
ATOM     10  C   UNL d   1      45.907 -19.222  43.945  0.00  0.00     0.021 A 
ATOM     11  C   UNL d   1      46.647 -18.902  42.502  0.00  0.00     0.021 A 
ATOM     12  C   UNL d   1      46.561 -19.680  42.758  0.00  0.00     0.002 A 
ATOM     13  C   UNL d   1      46.191 -19.839  43.479  0.00  0.00     0.002 A 
ENDROOT
BRANCH   2  14
ATOM     14  C   UNL d   1      45.706 -14.908  43.813  0.00  0.00     0.039 A 
ATOM     15  C   UNL d   1      46.230 -14.483  44.326  0.00  0.00     0.029 A 
ATOM     16  C   UNL d   1      46.133 -13.666  44.452  0.00  0.00     0.118 A 
ATOM     17  C   UNL d   1      45.508 -13.273  44.061  0.00  0.00     0.138 A 
ATOM     18  C   UNL d   1      44.985 -13.697  43.547  0.00  0.00     0.118 A 
ATOM     19  C   UNL d   1      45.081 -14.520  43.419  0.00  0.00     0.029 A 
BRANCH  16  20
ATOM     20  O   UNL d   1      46.645 -13.251  44.955  0.00  0.00    -0.326 OA
ATOM     21  C   UNL d   1      46.646 -12.204  44.950  0.00  0.00     0.181 C 
ENDBRANCH  16  20
BRANCH  17  22
ATOM     22  O   UNL d   1      45.394 -12.470  44.170  0.00  0.00    -0.324 OA
ATOM     23  C   UNL d   1      44.740 -12.081  44.939  0.00  0.00     0.182 C 
ENDBRANCH  17  22
BRANCH  18  24
ATOM     24  O   UNL d   1      44.359 -13.310  43.154  0.00  0.00    -0.326 OA
ATOM     25  C   UNL d   1      44.553 -12.634  42.296  0.00  0.00     0.181 C 
ENDBRANCH  18  24
ENDBRANCH   2  14
BRANCH   3  26
ATOM     26  C   UNL d   1      45.197 -16.212  44.937  0.00  0.00     0.083 C 
BRANCH  26  27
ATOM     27  C   UNL d   1      44.421 -15.943  44.955  0.00  0.00     0.019 C 
ATOM     28  C   UNL d   1      43.798 -16.477  44.891  0.00  0.00     0.002 C 
ENDBRANCH  26  27
ENDBRANCH   3  26
TORSDOF 6
ENDMDL
