MODEL 1
REMARK VINA RESULT:      42.7      0.000      0.000
REMARK  3 active torsions:
REMARK  status: ('A' for Active; 'I' for Inactive)
REMARK    1  A    between atoms: C_4  and  C_1 
REMARK       I    between atoms: N_6  and  C_4 
REMARK    2  A    between atoms: C_8  and  C_5 
REMARK    3  A    between atoms: C_7  and  N_6 
ROOT
ATOM      1  C   UNL d   1      13.665  12.202  -2.643  0.00  0.00     0.192 A 
ATOM      2  C   UNL d   1      14.970  12.730  -2.340  0.00  0.00     0.296 A 
ATOM      3  O   UNL d   1      14.355  12.605  -2.885  0.00  0.00    -0.290 OA
ATOM      4  C   UNL d   1      14.905  12.457  -1.561  0.00  0.00     0.063 A 
ATOM      5  C   UNL d   1      14.211  12.054  -1.328  0.00  0.00     0.004 A 
ATOM      6  C   UNL d   1      13.595  11.927  -1.863  0.00  0.00     0.010 A 
ATOM      7  O   UNL d   1      15.649  13.127  -2.578  0.00  0.00    -0.259 OA
ATOM      8  C   UNL d   1      12.989  11.803  -2.398  0.00  0.00     0.045 C 
ATOM      9  C   UNL d   1      14.146  11.782  -0.548  0.00  0.00    -0.000 A 
ATOM     10  C   UNL d   1      15.511  12.580  -1.026  0.00  0.00     0.005 A 
ATOM     11  C   UNL d   1      14.764  11.911  -0.018  0.00  0.00    -0.000 A 
ATOM     12  C   UNL d   1      15.443  12.309  -0.255  0.00  0.00     0.000 A 
ENDROOT
BRANCH   1  13
ATOM     13  C   UNL d   1      13.539  12.385  -3.429  0.00  0.00     0.285 C 
ATOM     14  N   UNL d   1      13.554  13.172  -3.676  0.00  0.00    -0.209 NA
ATOM     15  O   UNL d   1      13.396  11.781  -3.974  0.00  0.00    -0.267 OA
BRANCH  14  16
ATOM     16  C   UNL d   1      13.426  13.351  -4.469  0.00  0.00     0.090 A 
ATOM     17  C   UNL d   1      13.324  14.129  -4.697  0.00  0.00     0.082 A 
ATOM     18  C   UNL d   1      13.196  14.312  -5.492  0.00  0.00     0.008 A 
ATOM     19  C   UNL d   1      13.172  13.709  -6.054  0.00  0.00     0.000 A 
ATOM     20  C   UNL d   1      13.276  12.923  -5.818  0.00  0.00     0.002 A 
ATOM     21  C   UNL d   1      13.403  12.752  -5.025  0.00  0.00     0.019 A 
BRANCH  17  22
ATOM     22  C   UNL d   1      13.348  14.732  -4.130  0.00  0.00     0.212 C 
ATOM     23  O   UNL d   1      13.960  15.288  -4.153  0.00  0.00    -0.644 OA
ATOM     24  O   UNL d   1      12.771  14.774  -3.554  0.00  0.00    -0.644 OA
ENDBRANCH  17  22
ENDBRANCH  14  16
ENDBRANCH   1  13
TORSDOF 3
ENDMDL
