MODEL 1
REMARK VINA RESULT:      -9.8      0.000      0.000
REMARK  4 active torsions:
REMARK  status: ('A' for Active; 'I' for Inactive)
REMARK    1  A    between atoms: C_5  and  C_1 
REMARK    2  A    between atoms: C_2  and  C_5 
REMARK    3  A    between atoms: C_12  and  N_3 
REMARK    4  A    between atoms: C_13  and  N_4 
ROOT
ATOM      1  C   UNL d   1      53.214  33.088  53.849  0.00  0.00     0.133 C 
ATOM      2 CL   UNL d   1      52.541  32.644  53.629  0.00  0.00    -0.076 Cl
ENDROOT
BRANCH   1   3
ATOM      3  C   UNL d   1      53.145  33.753  54.329  0.00  0.00     0.202 A 
ATOM      4  N   UNL d   1      52.566  34.297  54.180  0.00  0.00    -0.191 N 
ATOM      5  N   UNL d   1      52.625  34.897  54.739  0.00  0.00    -0.039 NA
ATOM      6  N   UNL d   1      53.243  34.721  55.235  0.00  0.00    -0.022 NA
ATOM      7  N   UNL d   1      53.568  34.011  54.983  0.00  0.00    -0.107 NA
BRANCH   4   8
ATOM      8  C   UNL d   1      52.015  34.260  53.578  0.00  0.00     0.086 A 
ATOM      9  C   UNL d   1      52.185  34.588  52.841  0.00  0.00     0.019 A 
ATOM     10  C   UNL d   1      51.627  34.550  52.234  0.00  0.00     0.002 A 
ATOM     11  C   UNL d   1      50.903  34.184  52.367  0.00  0.00     0.000 A 
ATOM     12  C   UNL d   1      50.727  33.853  53.105  0.00  0.00     0.002 A 
ATOM     13  C   UNL d   1      50.330  34.142  51.752  0.00  0.00     0.000 C 
ATOM     14  C   UNL d   1      51.287  33.893  53.708  0.00  0.00     0.019 A 
ENDBRANCH   4   8
ENDBRANCH   1   3
BRANCH   1  15
ATOM     15  C   UNL d   1      53.964  32.854  53.579  0.00  0.00     0.202 A 
ATOM     16  N   UNL d   1      54.198  32.090  53.406  0.00  0.00    -0.191 N 
ATOM     17  N   UNL d   1      54.980  32.116  53.159  0.00  0.00    -0.039 NA
ATOM     18  N   UNL d   1      55.222  32.898  53.181  0.00  0.00    -0.022 NA
ATOM     19  N   UNL d   1      54.607  33.352  53.437  0.00  0.00    -0.107 NA
BRANCH  16  20
ATOM     20  C   UNL d   1      53.758  31.393  53.458  0.00  0.00     0.086 A 
ATOM     21  C   UNL d   1      53.739  30.960  54.166  0.00  0.00     0.019 A 
ATOM     22  C   UNL d   1      53.299  30.263  54.217  0.00  0.00     0.002 A 
ATOM     23  C   UNL d   1      52.876  29.999  53.562  0.00  0.00     0.000 A 
ATOM     24  C   UNL d   1      52.890  30.421  52.862  0.00  0.00     0.002 A 
ATOM     25  C   UNL d   1      52.426  29.291  53.606  0.00  0.00     0.000 C 
ATOM     26  C   UNL d   1      53.330  31.117  52.811  0.00  0.00     0.019 A 
ENDBRANCH  16  20
ENDBRANCH   1  15
TORSDOF 4
ENDMDL
MODEL 2
REMARK VINA RESULT:      -9.5      0.115      3.657
REMARK  4 active torsions:
REMARK  status: ('A' for Active; 'I' for Inactive)
REMARK    1  A    between atoms: C_5  and  C_1 
REMARK    2  A    between atoms: C_2  and  C_5 
REMARK    3  A    between atoms: C_12  and  N_3 
REMARK    4  A    between atoms: C_13  and  N_4 
ROOT
ATOM      1  C   UNL d   1      53.311  33.046  53.922  0.00  0.00     0.133 C 
ATOM      2 CL   UNL d   1      52.702  32.486  53.809  0.00  0.00    -0.076 Cl
ENDROOT
BRANCH   1   3
ATOM      3  C   UNL d   1      54.069  32.914  53.627  0.00  0.00     0.202 A 
ATOM      4  N   UNL d   1      54.290  32.168  53.409  0.00  0.00    -0.191 N 
ATOM      5  N   UNL d   1      55.066  32.197  53.139  0.00  0.00    -0.039 NA
ATOM      6  N   UNL d   1      55.323  32.965  53.190  0.00  0.00    -0.022 NA
ATOM      7  N   UNL d   1      54.706  33.413  53.493  0.00  0.00    -0.107 NA
BRANCH   4   8
ATOM      8  C   UNL d   1      53.825  31.498  53.450  0.00  0.00     0.086 A 
ATOM      9  C   UNL d   1      53.793  31.058  54.147  0.00  0.00     0.019 A 
ATOM     10  C   UNL d   1      53.323  30.381  54.186  0.00  0.00     0.002 A 
ATOM     11  C   UNL d   1      52.887  30.147  53.529  0.00  0.00     0.000 A 
ATOM     12  C   UNL d   1      52.917  30.585  52.827  0.00  0.00     0.002 A 
ATOM     13  C   UNL d   1      52.406  29.457  53.563  0.00  0.00     0.000 C 
ATOM     14  C   UNL d   1      53.387  31.259  52.792  0.00  0.00     0.019 A 
ENDBRANCH   4   8
ENDBRANCH   1   3
BRANCH   1  15
ATOM     15  C   UNL d   1      53.150  33.747  54.337  0.00  0.00     0.202 A 
ATOM     16  N   UNL d   1      52.553  34.280  54.170  0.00  0.00    -0.191 N 
ATOM     17  N   UNL d   1      52.598  34.889  54.718  0.00  0.00    -0.039 NA
ATOM     18  N   UNL d   1      53.225  34.726  55.220  0.00  0.00    -0.022 NA
ATOM     19  N   UNL d   1      53.564  34.031  54.991  0.00  0.00    -0.107 NA
BRANCH  16  20
ATOM     20  C   UNL d   1      51.988  34.247  53.569  0.00  0.00     0.086 A 
ATOM     21  C   UNL d   1      51.254  33.881  53.701  0.00  0.00     0.019 A 
ATOM     22  C   UNL d   1      50.689  33.848  53.100  0.00  0.00     0.002 A 
ATOM     23  C   UNL d   1      50.856  34.181  52.365  0.00  0.00     0.000 A 
ATOM     24  C   UNL d   1      51.576  34.543  52.228  0.00  0.00     0.002 A 
ATOM     25  C   UNL d   1      50.287  34.152  51.748  0.00  0.00     0.000 C 
ATOM     26  C   UNL d   1      52.141  34.576  52.830  0.00  0.00     0.019 A 
ENDBRANCH  16  20
ENDBRANCH   1  15
TORSDOF 4
ENDMDL
MODEL 3
REMARK VINA RESULT:      -7.6      1.770      2.779
REMARK  4 active torsions:
REMARK  status: ('A' for Active; 'I' for Inactive)
REMARK    1  A    between atoms: C_5  and  C_1 
REMARK    2  A    between atoms: C_2  and  C_5 
REMARK    3  A    between atoms: C_12  and  N_3 
REMARK    4  A    between atoms: C_13  and  N_4 
ROOT
ATOM      1  C   UNL d   1      52.973  31.756  53.623  0.00  0.00     0.133 C 
ATOM      2 CL   UNL d   1      53.508  31.624  54.251  0.00  0.00    -0.076 Cl
ENDROOT
BRANCH   1   3
ATOM      3  C   UNL d   1      52.450  32.392  53.638  0.00  0.00     0.202 A 
ATOM      4  N   UNL d   1      52.695  33.105  53.929  0.00  0.00    -0.191 N 
ATOM      5  N   UNL d   1      52.068  33.634  53.877  0.00  0.00    -0.039 NA
ATOM      6  N   UNL d   1      51.434  33.245  53.554  0.00  0.00    -0.022 NA
ATOM      7  N   UNL d   1      51.669  32.473  53.404  0.00  0.00    -0.107 NA
BRANCH   4   8
ATOM      8  C   UNL d   1      53.438  33.275  54.223  0.00  0.00     0.086 A 
ATOM      9  C   UNL d   1      54.038  33.526  53.716  0.00  0.00     0.019 A 
ATOM     10  C   UNL d   1      54.787  33.697  54.015  0.00  0.00     0.002 A 
ATOM     11  C   UNL d   1      54.934  33.616  54.821  0.00  0.00     0.000 A 
ATOM     12  C   UNL d   1      54.336  33.364  55.335  0.00  0.00     0.002 A 
ATOM     13  C   UNL d   1      55.697  33.789  55.132  0.00  0.00     0.000 C 
ATOM     14  C   UNL d   1      53.589  33.195  55.031  0.00  0.00     0.019 A 
ENDBRANCH   4   8
ENDBRANCH   1   3
BRANCH   1  15
ATOM     15  C   UNL d   1      52.968  31.237  52.975  0.00  0.00     0.202 A 
ATOM     16  N   UNL d   1      53.023  30.422  53.008  0.00  0.00    -0.191 N 
ATOM     17  N   UNL d   1      52.995  30.135  52.240  0.00  0.00    -0.039 NA
ATOM     18  N   UNL d   1      52.923  30.779  51.737  0.00  0.00    -0.022 NA
ATOM     19  N   UNL d   1      52.906  31.451  52.181  0.00  0.00    -0.107 NA
BRANCH  16  20
ATOM     20  C   UNL d   1      53.095  29.938  53.674  0.00  0.00     0.086 A 
ATOM     21  C   UNL d   1      53.844  29.701  53.942  0.00  0.00     0.019 A 
ATOM     22  C   UNL d   1      53.915  29.217  54.608  0.00  0.00     0.002 A 
ATOM     23  C   UNL d   1      53.238  28.971  55.007  0.00  0.00     0.000 A 
ATOM     24  C   UNL d   1      52.499  29.201  54.749  0.00  0.00     0.002 A 
ATOM     25  C   UNL d   1      53.303  28.479  55.685  0.00  0.00     0.000 C 
ATOM     26  C   UNL d   1      52.427  29.685  54.083  0.00  0.00     0.019 A 
ENDBRANCH  16  20
ENDBRANCH   1  15
TORSDOF 4
ENDMDL
MODEL 4
REMARK VINA RESULT:      -7.1      1.819      4.333
REMARK  4 active torsions:
REMARK  status: ('A' for Active; 'I' for Inactive)
REMARK    1  A    between atoms: C_5  and  C_1 
REMARK    2  A    between atoms: C_2  and  C_5 
REMARK    3  A    between atoms: C_12  and  N_3 
REMARK    4  A    between atoms: C_13  and  N_4 
ROOT
ATOM      1  C   UNL d   1      52.970  31.549  53.616  0.00  0.00     0.133 C 
ATOM      2 CL   UNL d   1      53.407  31.322  54.290  0.00  0.00    -0.076 Cl
ENDROOT
BRANCH   1   3
ATOM      3  C   UNL d   1      52.983  31.095  52.929  0.00  0.00     0.202 A 
ATOM      4  N   UNL d   1      53.046  30.291  52.981  0.00  0.00    -0.191 N 
ATOM      5  N   UNL d   1      53.047  29.982  52.219  0.00  0.00    -0.039 NA
ATOM      6  N   UNL d   1      52.984  30.599  51.696  0.00  0.00    -0.022 NA
ATOM      7  N   UNL d   1      52.944  31.292  52.134  0.00  0.00    -0.107 NA
BRANCH   4   8
ATOM      8  C   UNL d   1      53.101  29.856  53.671  0.00  0.00     0.086 A 
ATOM      9  C   UNL d   1      52.417  29.621  54.066  0.00  0.00     0.019 A 
ATOM     10  C   UNL d   1      52.473  29.182  54.763  0.00  0.00     0.002 A 
ATOM     11  C   UNL d   1      53.214  28.981  55.061  0.00  0.00     0.000 A 
ATOM     12  C   UNL d   1      53.903  29.215  54.667  0.00  0.00     0.002 A 
ATOM     13  C   UNL d   1      53.278  28.534  55.771  0.00  0.00     0.000 C 
ATOM     14  C   UNL d   1      53.842  29.653  53.973  0.00  0.00     0.019 A 
ENDBRANCH   4   8
ENDBRANCH   1   3
BRANCH   1  15
ATOM     15  C   UNL d   1      52.514  32.243  53.638  0.00  0.00     0.202 A 
ATOM     16  N   UNL d   1      52.760  32.973  53.913  0.00  0.00    -0.191 N 
ATOM     17  N   UNL d   1      52.134  33.496  53.832  0.00  0.00    -0.039 NA
ATOM     18  N   UNL d   1      51.505  33.084  53.508  0.00  0.00    -0.022 NA
ATOM     19  N   UNL d   1      51.732  32.320  53.388  0.00  0.00    -0.107 NA
BRANCH  16  20
ATOM     20  C   UNL d   1      53.496  33.185  54.222  0.00  0.00     0.086 A 
ATOM     21  C   UNL d   1      54.109  33.429  53.718  0.00  0.00     0.019 A 
ATOM     22  C   UNL d   1      54.845  33.641  54.028  0.00  0.00     0.002 A 
ATOM     23  C   UNL d   1      54.969  33.608  54.841  0.00  0.00     0.000 A 
ATOM     24  C   UNL d   1      54.371  33.368  55.343  0.00  0.00     0.002 A 
ATOM     25  C   UNL d   1      55.715  33.821  55.164  0.00  0.00     0.000 C 
ATOM     26  C   UNL d   1      53.635  33.157  55.033  0.00  0.00     0.019 A 
ENDBRANCH  16  20
ENDBRANCH   1  15
TORSDOF 4
ENDMDL
