MODEL 1
REMARK VINA RESULT:      -3.1      0.000      0.000
REMARK  3 active torsions:
REMARK  status: ('A' for Active; 'I' for Inactive)
REMARK    1  A    between atoms: S_11  and  C_1 
REMARK    2  A    between atoms: C_7  and  C_13 
REMARK    3  A    between atoms: C_13  and  S_11 
ROOT
ATOM      1  C   UNL d   1      32.924  20.848 -21.699  0.00  0.00     0.141 A 
ATOM      2  N   UNL d   1      33.173  21.508 -22.125  0.00  0.00    -0.232 NA
ATOM      3  S   UNL d   1      32.501  21.105 -21.050  0.00  0.00    -0.060 SA
ATOM      4  C   UNL d   1      32.901  22.183 -21.737  0.00  0.00     0.088 A 
ATOM      5  C   UNL d   1      32.478  21.932 -21.060  0.00  0.00     0.049 A 
ATOM      6  C   UNL d   1      32.975  22.988 -21.896  0.00  0.00     0.020 A 
ATOM      7  C   UNL d   1      32.140  22.486 -20.559  0.00  0.00     0.008 A 
ATOM      8  C   UNL d   1      32.212  23.296 -20.717  0.00  0.00     0.001 A 
ATOM      9  C   UNL d   1      32.632  23.548 -21.389  0.00  0.00     0.002 A 
ENDROOT
BRANCH   1  10
ATOM     10  S   UNL d   1      33.080  20.061 -21.900  0.00  0.00    -0.057 SA
BRANCH  10  11
ATOM     11  C   UNL d   1      32.857  19.775 -22.641  0.00  0.00     0.084 C 
BRANCH  11  12
ATOM     12  C   UNL d   1      32.852  18.970 -22.784  0.00  0.00     0.212 A 
ATOM     13  O   UNL d   1      32.462  18.586 -23.399  0.00  0.00    -0.259 OA
ATOM     14  C   UNL d   1      32.607  17.777 -23.332  0.00  0.00     0.262 A 
ATOM     15  S   UNL d   1      32.320  17.196 -23.835  0.00  0.00    -0.029 SA
ATOM     16  N   UNL d   1      33.086  17.659 -22.675  0.00  0.00    -0.109 NA
ATOM     17  N   UNL d   1      33.240  18.394 -22.333  0.00  0.00    -0.119 NA
ENDBRANCH  11  12
ENDBRANCH  10  11
ENDBRANCH   1  10
TORSDOF 3
ENDMDL
MODEL 2
REMARK VINA RESULT:      -2.7      1.382      1.961
REMARK  3 active torsions:
REMARK  status: ('A' for Active; 'I' for Inactive)
REMARK    1  A    between atoms: S_11  and  C_1 
REMARK    2  A    between atoms: C_7  and  C_13 
REMARK    3  A    between atoms: C_13  and  S_11 
ROOT
ATOM      1  C   UNL d   1      33.238  19.288 -22.418  0.00  0.00     0.141 A 
ATOM      2  N   UNL d   1      33.235  19.406 -21.602  0.00  0.00    -0.232 NA
ATOM      3  S   UNL d   1      33.240  20.019 -22.783  0.00  0.00    -0.060 SA
ATOM      4  C   UNL d   1      33.235  20.218 -21.459  0.00  0.00     0.088 A 
ATOM      5  C   UNL d   1      33.239  20.606 -22.200  0.00  0.00     0.049 A 
ATOM      6  C   UNL d   1      33.233  20.664 -20.766  0.00  0.00     0.020 A 
ATOM      7  C   UNL d   1      33.240  21.425 -22.235  0.00  0.00     0.008 A 
ATOM      8  C   UNL d   1      33.238  21.876 -21.540  0.00  0.00     0.001 A 
ATOM      9  C   UNL d   1      33.234  21.493 -20.801  0.00  0.00     0.002 A 
ENDROOT
BRANCH   1  10
ATOM     10  S   UNL d   1      33.239  18.553 -22.797  0.00  0.00    -0.057 SA
BRANCH  10  11
ATOM     11  C   UNL d   1      32.561  18.294 -23.188  0.00  0.00     0.084 C 
BRANCH  11  12
ATOM     12  C   UNL d   1      32.509  17.519 -23.446  0.00  0.00     0.212 A 
ATOM     13  O   UNL d   1      31.884  17.000 -23.310  0.00  0.00    -0.259 OA
ATOM     14  C   UNL d   1      32.064  16.280 -23.668  0.00  0.00     0.262 A 
ATOM     15  S   UNL d   1      31.588  15.611 -23.665  0.00  0.00    -0.029 SA
ATOM     16  N   UNL d   1      32.800  16.351 -24.027  0.00  0.00    -0.109 NA
ATOM     17  N   UNL d   1      33.079  17.116 -23.892  0.00  0.00    -0.119 NA
ENDBRANCH  11  12
ENDBRANCH  10  11
ENDBRANCH   1  10
TORSDOF 3
ENDMDL
MODEL 3
REMARK VINA RESULT:      -2.7      1.588      4.987
REMARK  3 active torsions:
REMARK  status: ('A' for Active; 'I' for Inactive)
REMARK    1  A    between atoms: S_11  and  C_1 
REMARK    2  A    between atoms: C_7  and  C_13 
REMARK    3  A    between atoms: C_13  and  S_11 
ROOT
ATOM      1  C   UNL d   1      32.590  18.118 -23.446  0.00  0.00     0.141 A 
ATOM      2  N   UNL d   1      31.841  17.965 -23.753  0.00  0.00    -0.232 NA
ATOM      3  S   UNL d   1      32.997  17.412 -23.397  0.00  0.00    -0.060 SA
ATOM      4  C   UNL d   1      31.781  17.155 -23.896  0.00  0.00     0.088 A 
ATOM      5  C   UNL d   1      32.508  16.805 -23.673  0.00  0.00     0.049 A 
ATOM      6  C   UNL d   1      31.176  16.683 -24.197  0.00  0.00     0.020 A 
ATOM      7  C   UNL d   1      32.614  15.995 -23.753  0.00  0.00     0.008 A 
ATOM      8  C   UNL d   1      32.008  15.518 -24.054  0.00  0.00     0.001 A 
ATOM      9  C   UNL d   1      31.285  15.865 -24.277  0.00  0.00     0.002 A 
ENDROOT
BRANCH   1  10
ATOM     10  S   UNL d   1      32.876  18.862 -23.226  0.00  0.00    -0.057 SA
BRANCH  10  11
ATOM     11  C   UNL d   1      32.919  19.066 -22.428  0.00  0.00     0.084 C 
BRANCH  11  12
ATOM     12  C   UNL d   1      33.002  19.850 -22.210  0.00  0.00     0.212 A 
ATOM     13  O   UNL d   1      32.876  20.164 -21.459  0.00  0.00    -0.259 OA
ATOM     14  C   UNL d   1      33.023  20.974 -21.490  0.00  0.00     0.262 A 
ATOM     15  S   UNL d   1      32.963  21.496 -20.860  0.00  0.00    -0.029 SA
ATOM     16  N   UNL d   1      33.241  21.163 -22.260  0.00  0.00    -0.109 NA
ATOM     17  N   UNL d   1      33.229  20.471 -22.709  0.00  0.00    -0.119 NA
ENDBRANCH  11  12
ENDBRANCH  10  11
ENDBRANCH   1  10
TORSDOF 3
ENDMDL
MODEL 4
REMARK VINA RESULT:      -2.3      3.395      4.727
REMARK  3 active torsions:
REMARK  status: ('A' for Active; 'I' for Inactive)
REMARK    1  A    between atoms: S_11  and  C_1 
REMARK    2  A    between atoms: C_7  and  C_13 
REMARK    3  A    between atoms: C_13  and  S_11 
ROOT
ATOM      1  C   UNL d   1      31.386  17.604 -24.393  0.00  0.00     0.141 A 
ATOM      2  N   UNL d   1      31.721  17.730 -23.651  0.00  0.00    -0.232 NA
ATOM      3  S   UNL d   1      31.708  18.141 -24.916  0.00  0.00    -0.060 SA
ATOM      4  C   UNL d   1      32.258  18.353 -23.714  0.00  0.00     0.088 A 
ATOM      5  C   UNL d   1      32.251  18.613 -24.509  0.00  0.00     0.049 A 
ATOM      6  C   UNL d   1      32.752  18.723 -23.168  0.00  0.00     0.020 A 
ATOM      7  C   UNL d   1      32.735  19.233 -24.742  0.00  0.00     0.008 A 
ATOM      8  C   UNL d   1      33.233  19.607 -24.195  0.00  0.00     0.001 A 
ATOM      9  C   UNL d   1      33.241  19.350 -23.404  0.00  0.00     0.002 A 
ENDROOT
BRANCH   1  10
ATOM     10  S   UNL d   1      30.819  17.029 -24.572  0.00  0.00    -0.057 SA
BRANCH  10  11
ATOM     11  C   UNL d   1      30.017  17.213 -24.519  0.00  0.00     0.084 C 
BRANCH  11  12
ATOM     12  C   UNL d   1      29.460  16.614 -24.496  0.00  0.00     0.212 A 
ATOM     13  O   UNL d   1      28.943  16.452 -23.876  0.00  0.00    -0.259 OA
ATOM     14  C   UNL d   1      28.481  15.804 -24.088  0.00  0.00     0.262 A 
ATOM     15  S   UNL d   1      27.895  15.461 -23.627  0.00  0.00    -0.029 SA
ATOM     16  N   UNL d   1      28.710  15.563 -24.840  0.00  0.00    -0.109 NA
ATOM     17  N   UNL d   1      29.316  16.062 -25.096  0.00  0.00    -0.119 NA
ENDBRANCH  11  12
ENDBRANCH  10  11
ENDBRANCH   1  10
TORSDOF 3
ENDMDL
MODEL 5
REMARK VINA RESULT:      -1.9      2.914      5.595
REMARK  3 active torsions:
REMARK  status: ('A' for Active; 'I' for Inactive)
REMARK    1  A    between atoms: S_11  and  C_1 
REMARK    2  A    between atoms: C_7  and  C_13 
REMARK    3  A    between atoms: C_13  and  S_11 
ROOT
ATOM      1  C   UNL d   1      30.807  17.101 -24.473  0.00  0.00     0.141 A 
ATOM      2  N   UNL d   1      30.055  17.438 -24.446  0.00  0.00    -0.232 NA
ATOM      3  S   UNL d   1      30.743  16.312 -24.277  0.00  0.00    -0.060 SA
ATOM      4  C   UNL d   1      29.518  16.851 -24.231  0.00  0.00     0.088 A 
ATOM      5  C   UNL d   1      29.949  16.141 -24.123  0.00  0.00     0.049 A 
ATOM      6  C   UNL d   1      28.702  16.853 -24.116  0.00  0.00     0.020 A 
ATOM      7  C   UNL d   1      29.558  15.454 -23.905  0.00  0.00     0.008 A 
ATOM      8  C   UNL d   1      28.738  15.453 -23.788  0.00  0.00     0.001 A 
ATOM      9  C   UNL d   1      28.308  16.157 -23.894  0.00  0.00     0.002 A 
ENDROOT
BRANCH   1  10
ATOM     10  S   UNL d   1      31.505  17.501 -24.667  0.00  0.00    -0.057 SA
BRANCH  10  11
ATOM     11  C   UNL d   1      32.068  17.649 -24.083  0.00  0.00     0.084 C 
BRANCH  11  12
ATOM     12  C   UNL d   1      32.484  18.354 -24.085  0.00  0.00     0.212 A 
ATOM     13  O   UNL d   1      32.564  18.876 -23.453  0.00  0.00    -0.259 OA
ATOM     14  C   UNL d   1      33.027  19.511 -23.700  0.00  0.00     0.262 A 
ATOM     15  S   UNL d   1      33.241  20.155 -23.239  0.00  0.00    -0.029 SA
ATOM     16  N   UNL d   1      33.236  19.384 -24.485  0.00  0.00    -0.109 NA
ATOM     17  N   UNL d   1      32.902  18.669 -24.728  0.00  0.00    -0.119 NA
ENDBRANCH  11  12
ENDBRANCH  10  11
ENDBRANCH   1  10
TORSDOF 3
ENDMDL
MODEL 6
REMARK VINA RESULT:      -1.6      3.455      5.264
REMARK  3 active torsions:
REMARK  status: ('A' for Active; 'I' for Inactive)
REMARK    1  A    between atoms: S_11  and  C_1 
REMARK    2  A    between atoms: C_7  and  C_13 
REMARK    3  A    between atoms: C_13  and  S_11 
ROOT
ATOM      1  C   UNL d   1      32.654  22.722 -19.860  0.00  0.00     0.141 A 
ATOM      2  N   UNL d   1      32.748  23.222 -20.509  0.00  0.00    -0.232 NA
ATOM      3  S   UNL d   1      32.711  21.950 -20.120  0.00  0.00    -0.060 SA
ATOM      4  C   UNL d   1      32.864  22.756 -21.178  0.00  0.00     0.088 A 
ATOM      5  C   UNL d   1      32.841  21.955 -20.937  0.00  0.00     0.049 A 
ATOM      6  C   UNL d   1      32.987  22.938 -21.973  0.00  0.00     0.020 A 
ATOM      7  C   UNL d   1      32.940  21.357 -21.489  0.00  0.00     0.008 A 
ATOM      8  C   UNL d   1      33.064  21.537 -22.288  0.00  0.00     0.001 A 
ATOM      9  C   UNL d   1      33.088  22.332 -22.531  0.00  0.00     0.002 A 
ENDROOT
BRANCH   1  10
ATOM     10  S   UNL d   1      32.526  22.966 -19.081  0.00  0.00    -0.057 SA
BRANCH  10  11
ATOM     11  C   UNL d   1      32.987  22.655 -18.472  0.00  0.00     0.084 C 
BRANCH  11  12
ATOM     12  C   UNL d   1      32.907  22.943 -17.710  0.00  0.00     0.212 A 
ATOM     13  O   UNL d   1      33.241  22.621 -17.029  0.00  0.00    -0.259 OA
ATOM     14  C   UNL d   1      33.017  23.086 -16.387  0.00  0.00     0.262 A 
ATOM     15  S   UNL d   1      33.231  22.958 -15.606  0.00  0.00    -0.029 SA
ATOM     16  N   UNL d   1      32.545  23.697 -16.669  0.00  0.00    -0.109 NA
ATOM     17  N   UNL d   1      32.474  23.612 -17.487  0.00  0.00    -0.119 NA
ENDBRANCH  11  12
ENDBRANCH  10  11
ENDBRANCH   1  10
TORSDOF 3
ENDMDL
MODEL 7
REMARK VINA RESULT:      -1.2      2.879      3.998
REMARK  3 active torsions:
REMARK  status: ('A' for Active; 'I' for Inactive)
REMARK    1  A    between atoms: S_11  and  C_1 
REMARK    2  A    between atoms: C_7  and  C_13 
REMARK    3  A    between atoms: C_13  and  S_11 
ROOT
ATOM      1  C   UNL d   1      32.879  22.589 -19.135  0.00  0.00     0.141 A 
ATOM      2  N   UNL d   1      32.306  23.146 -18.932  0.00  0.00    -0.232 NA
ATOM      3  S   UNL d   1      33.240  22.331 -18.451  0.00  0.00    -0.060 SA
ATOM      4  C   UNL d   1      32.312  23.234 -18.112  0.00  0.00     0.088 A 
ATOM      5  C   UNL d   1      32.899  22.722 -17.807  0.00  0.00     0.049 A 
ATOM      6  C   UNL d   1      31.872  23.702 -17.596  0.00  0.00     0.020 A 
ATOM      7  C   UNL d   1      33.035  22.688 -16.999  0.00  0.00     0.008 A 
ATOM      8  C   UNL d   1      32.594  23.158 -16.478  0.00  0.00     0.001 A 
ATOM      9  C   UNL d   1      32.009  23.668 -16.779  0.00  0.00     0.002 A 
ENDROOT
BRANCH   1  10
ATOM     10  S   UNL d   1      33.053  22.339 -19.904  0.00  0.00    -0.057 SA
BRANCH  10  11
ATOM     11  C   UNL d   1      32.751  22.755 -20.549  0.00  0.00     0.084 C 
BRANCH  11  12
ATOM     12  C   UNL d   1      32.903  22.497 -21.310  0.00  0.00     0.212 A 
ATOM     13  O   UNL d   1      32.834  22.943 -22.000  0.00  0.00    -0.259 OA
ATOM     14  C   UNL d   1      33.042  22.465 -22.638  0.00  0.00     0.262 A 
ATOM     15  S   UNL d   1      33.048  22.693 -23.425  0.00  0.00    -0.029 SA
ATOM     16  N   UNL d   1      33.240  21.722 -22.345  0.00  0.00    -0.109 NA
ATOM     17  N   UNL d   1      33.156  21.738 -21.524  0.00  0.00    -0.119 NA
ENDBRANCH  11  12
ENDBRANCH  10  11
ENDBRANCH   1  10
TORSDOF 3
ENDMDL
MODEL 8
REMARK VINA RESULT:      -0.8      4.512      5.712
REMARK  3 active torsions:
REMARK  status: ('A' for Active; 'I' for Inactive)
REMARK    1  A    between atoms: S_11  and  C_1 
REMARK    2  A    between atoms: C_7  and  C_13 
REMARK    3  A    between atoms: C_13  and  S_11 
ROOT
ATOM      1  C   UNL d   1      30.581  17.084 -24.771  0.00  0.00     0.141 A 
ATOM      2  N   UNL d   1      31.271  16.652 -24.641  0.00  0.00    -0.232 NA
ATOM      3  S   UNL d   1      30.784  17.866 -24.886  0.00  0.00    -0.060 SA
ATOM      4  C   UNL d   1      31.910  17.172 -24.674  0.00  0.00     0.088 A 
ATOM      5  C   UNL d   1      31.606  17.937 -24.828  0.00  0.00     0.049 A 
ATOM      6  C   UNL d   1      32.722  17.066 -24.587  0.00  0.00     0.020 A 
ATOM      7  C   UNL d   1      32.117  18.575 -24.892  0.00  0.00     0.008 A 
ATOM      8  C   UNL d   1      32.934  18.472 -24.805  0.00  0.00     0.001 A 
ATOM      9  C   UNL d   1      33.238  17.712 -24.652  0.00  0.00     0.002 A 
ENDROOT
BRANCH   1  10
ATOM     10  S   UNL d   1      29.815  16.772 -24.784  0.00  0.00    -0.057 SA
BRANCH  10  11
ATOM     11  C   UNL d   1      29.358  16.780 -24.097  0.00  0.00     0.084 C 
BRANCH  11  12
ATOM     12  C   UNL d   1      28.692  16.307 -24.044  0.00  0.00     0.212 A 
ATOM     13  O   UNL d   1      28.207  16.220 -23.384  0.00  0.00    -0.259 OA
ATOM     14  C   UNL d   1      27.603  15.693 -23.575  0.00  0.00     0.262 A 
ATOM     15  S   UNL d   1      27.001  15.453 -23.073  0.00  0.00    -0.029 SA
ATOM     16  N   UNL d   1      27.713  15.453 -24.354  0.00  0.00    -0.109 NA
ATOM     17  N   UNL d   1      28.385  15.831 -24.648  0.00  0.00    -0.119 NA
ENDBRANCH  11  12
ENDBRANCH  10  11
ENDBRANCH   1  10
TORSDOF 3
ENDMDL
