MODEL 1
REMARK VINA RESULT:      15.6      0.000      0.000
REMARK  4 active torsions:
REMARK  status: ('A' for Active; 'I' for Inactive)
REMARK    1  A    between atoms: C_2  and  N_1 
REMARK    2  A    between atoms: C_4  and  C_2 
REMARK    3  A    between atoms: C_10  and  C_4 
REMARK    4  A    between atoms: N_7  and  C_6 
ROOT
ATOM      1  C   UNL d   1     -52.398  24.551  33.391  0.00  0.00     0.064 A 
ATOM      2  C   UNL d   1     -51.637  24.237  33.323  0.00  0.00     0.018 A 
ATOM      3  C   UNL d   1     -52.508  25.368  33.442  0.00  0.00     0.018 A 
ATOM      4  C   UNL d   1     -51.101  25.564  33.358  0.00  0.00     0.002 A 
ATOM      5  C   UNL d   1     -51.861  25.874  33.426  0.00  0.00     0.002 A 
ATOM      6  C   UNL d   1     -50.988  24.745  33.307  0.00  0.00     0.002 A 
ENDROOT
BRANCH   4   7
ATOM      7  C   UNL d   1     -50.450  26.074  33.342  0.00  0.00     0.025 C 
BRANCH   7   8
ATOM      8  C   UNL d   1     -50.562  26.880  33.440  0.00  0.00     0.148 C 
BRANCH   8   9
ATOM      9  N   UNL d   1     -49.957  27.336  33.768  0.00  0.00    -0.112 N 
ATOM     10  O   UNL d   1     -49.721  28.018  33.389  0.00  0.00    -0.532 OA
ATOM     11  O   UNL d   1     -49.613  27.088  34.465  0.00  0.00    -0.532 OA
ENDBRANCH   8   9
ENDBRANCH   7   8
ENDBRANCH   4   7
BRANCH   1  12
ATOM     12  N   UNL d   1     -53.046  24.032  33.407  0.00  0.00    -0.301 N 
ATOM     13  C   UNL d   1     -52.917  23.215  33.458  0.00  0.00     0.100 C 
ATOM     14  C   UNL d   1     -53.821  24.322  33.371  0.00  0.00     0.100 C 
ENDBRANCH   1  12
TORSDOF 4
ENDMDL
MODEL 2
REMARK VINA RESULT:      16.2      0.929      1.297
REMARK  4 active torsions:
REMARK  status: ('A' for Active; 'I' for Inactive)
REMARK    1  A    between atoms: C_2  and  N_1 
REMARK    2  A    between atoms: C_4  and  C_2 
REMARK    3  A    between atoms: C_10  and  C_4 
REMARK    4  A    between atoms: N_7  and  C_6 
ROOT
ATOM      1  C   UNL d   1     -52.728  24.187  33.530  0.00  0.00     0.064 A 
ATOM      2  C   UNL d   1     -52.134  23.621  33.625  0.00  0.00     0.018 A 
ATOM      3  C   UNL d   1     -52.532  24.973  33.371  0.00  0.00     0.018 A 
ATOM      4  C   UNL d   1     -51.149  24.635  33.400  0.00  0.00     0.002 A 
ATOM      5  C   UNL d   1     -51.744  25.198  33.306  0.00  0.00     0.002 A 
ATOM      6  C   UNL d   1     -51.344  23.846  33.559  0.00  0.00     0.002 A 
ENDROOT
BRANCH   4   7
ATOM      7  C   UNL d   1     -50.356  24.861  33.334  0.00  0.00     0.025 C 
BRANCH   7   8
ATOM      8  C   UNL d   1     -50.149  25.649  33.423  0.00  0.00     0.148 C 
BRANCH   8   9
ATOM      9  N   UNL d   1     -49.370  25.844  33.613  0.00  0.00    -0.112 N 
ATOM     10  O   UNL d   1     -48.812  25.253  33.667  0.00  0.00    -0.532 OA
ATOM     11  O   UNL d   1     -49.182  26.628  33.739  0.00  0.00    -0.532 OA
ENDBRANCH   8   9
ENDBRANCH   7   8
ENDBRANCH   4   7
BRANCH   1  12
ATOM     12  N   UNL d   1     -53.522  23.951  33.597  0.00  0.00    -0.301 N 
ATOM     13  C   UNL d   1     -54.123  24.450  33.321  0.00  0.00     0.100 C 
ATOM     14  C   UNL d   1     -53.719  23.223  33.938  0.00  0.00     0.100 C 
ENDBRANCH   1  12
TORSDOF 4
ENDMDL
