MODEL 1
REMARK VINA RESULT:      15.8      0.000      0.000
REMARK  5 active torsions:
REMARK  status: ('A' for Active; 'I' for Inactive)
REMARK    1  A    between atoms: C_14  and  N_4 
REMARK    2  A    between atoms: C_15  and  C_9 
REMARK    3  A    between atoms: O_18  and  C_12 
REMARK    4  A    between atoms: O_19  and  C_13 
REMARK    5  A    between atoms: C_16  and  C_14 
ROOT
ATOM      1  C   UNL d   1     -42.189-122.746 -51.610  0.00  0.00     0.056 A 
ATOM      2  C   UNL d   1     -42.550-123.172 -52.225  0.00  0.00     0.107 A 
ATOM      3  C   UNL d   1     -42.438-122.944 -53.007  0.00  0.00     0.038 A 
ATOM      4  N   UNL d   1     -41.607-121.865 -52.578  0.00  0.00    -0.304 N 
ATOM      5  N   UNL d   1     -42.979-123.785 -51.882  0.00  0.00    -0.148 NA
ATOM      6  C   UNL d   1     -41.717-122.093 -51.786  0.00  0.00     0.083 A 
ATOM      7  N   UNL d   1     -42.884-123.738 -51.064  0.00  0.00    -0.148 NA
ATOM      8  C   UNL d   1     -41.967-122.290 -53.184  0.00  0.00     0.068 A 
ATOM      9  C   UNL d   1     -42.398-123.100 -50.890  0.00  0.00     0.106 A 
ATOM     10  C   UNL d   1     -41.854-122.061 -53.967  0.00  0.00     0.044 A 
ATOM     11  C   UNL d   1     -42.798-123.368 -53.614  0.00  0.00     0.029 A 
ATOM     12  C   UNL d   1     -42.214-122.486 -54.573  0.00  0.00     0.118 A 
ATOM     13  C   UNL d   1     -42.686-123.140 -54.397  0.00  0.00     0.116 A 
ENDROOT
BRANCH   4  14
ATOM     14  C   UNL d   1     -41.135-121.211 -52.754  0.00  0.00     0.080 C 
BRANCH  14  15
ATOM     15  C   UNL d   1     -41.132-120.558 -52.253  0.00  0.00     0.018 A 
ATOM     16  C   UNL d   1     -41.135-120.666 -51.427  0.00  0.00     0.004 A 
ATOM     17  C   UNL d   1     -41.133-120.014 -50.925  0.00  0.00     0.030 A 
ATOM     18  C   UNL d   1     -41.126-119.241 -51.240  0.00  0.00     0.140 A 
ATOM     19  C   UNL d   1     -41.123-119.133 -52.066  0.00  0.00     0.030 A 
ATOM     20  F   UNL d   1     -41.123-118.577 -50.733  0.00  0.00    -0.204 F 
ATOM     21  C   UNL d   1     -41.126-119.789 -52.568  0.00  0.00     0.004 A 
ENDBRANCH  14  15
ENDBRANCH   4  14
BRANCH   9  22
ATOM     22  C   UNL d   1     -42.210-122.924 -50.106  0.00  0.00     0.019 A 
ATOM     23  C   UNL d   1     -41.433-123.000 -49.843  0.00  0.00     0.002 A 
ATOM     24  C   UNL d   1     -41.249-122.822 -49.055  0.00  0.00     0.000 A 
ATOM     25  C   UNL d   1     -41.841-122.570 -48.531  0.00  0.00     0.000 A 
ATOM     26  C   UNL d   1     -42.619-122.496 -48.804  0.00  0.00     0.000 A 
ATOM     27  C   UNL d   1     -42.803-122.672 -49.587  0.00  0.00     0.002 A 
ENDBRANCH   9  22
BRANCH  12  28
ATOM     28  O   UNL d   1     -42.098-122.250 -55.371  0.00  0.00    -0.326 OA
ATOM     29  C   UNL d   1     -42.211-121.459 -55.585  0.00  0.00     0.181 C 
ENDBRANCH  12  28
BRANCH  13  30
ATOM     30  O   UNL d   1     -43.048-123.566 -55.015  0.00  0.00    -0.326 OA
ATOM     31  C   UNL d   1     -43.504-123.166 -55.579  0.00  0.00     0.181 C 
ENDBRANCH  13  30
TORSDOF 5
ENDMDL
