MODEL 1
REMARK VINA RESULT:      -9.0      0.000      0.000
REMARK  1 active torsions:
REMARK  status: ('A' for Active; 'I' for Inactive)
REMARK    1  A    between atoms: C_7  and  C_4 
ROOT
ATOM      1  N   UNL d   1     -47.876  14.108  22.824  0.00  0.00    -0.211 NA
ATOM      2  C   UNL d   1     -47.184  13.659  22.946  0.00  0.00     0.140 A 
ATOM      3  C   UNL d   1     -47.246  12.875  23.196  0.00  0.00     0.051 A 
ATOM      4  C   UNL d   1     -48.621  13.759  22.958  0.00  0.00     0.183 A 
ATOM      5  C   UNL d   1     -47.990  12.532  23.328  0.00  0.00     0.104 A 
ATOM      6  O   UNL d   1     -48.673  12.977  23.208  0.00  0.00    -0.289 OA
ATOM      7  S   UNL d   1     -46.443  13.996  22.816  0.00  0.00    -0.057 SA
ATOM      8  C   UNL d   1     -46.557  12.420  23.320  0.00  0.00     0.004 A 
ATOM      9  C   UNL d   1     -48.046  11.757  23.576  0.00  0.00     0.025 A 
ATOM     10  C   UNL d   1     -46.622  11.636  23.571  0.00  0.00     0.000 A 
ATOM     11  C   UNL d   1     -47.364  11.307  23.698  0.00  0.00     0.002 A 
ENDROOT
BRANCH   4  12
ATOM     12  C   UNL d   1     -49.300  14.206  22.837  0.00  0.00     0.041 A 
ATOM     13  C   UNL d   1     -49.472  14.840  23.327  0.00  0.00     0.004 A 
ATOM     14  C   UNL d   1     -50.155  15.281  23.197  0.00  0.00     0.000 A 
ATOM     15  C   UNL d   1     -50.327  15.920  23.692  0.00  0.00     0.000 C 
ATOM     16  C   UNL d   1     -50.666  15.091  22.579  0.00  0.00     0.000 A 
ATOM     17  C   UNL d   1     -50.489  14.450  22.088  0.00  0.00     0.000 A 
ATOM     18  C   UNL d   1     -49.804  14.006  22.216  0.00  0.00     0.004 A 
ENDBRANCH   4  12
TORSDOF 1
ENDMDL
MODEL 2
REMARK VINA RESULT:      -8.8      1.117      3.647
REMARK  1 active torsions:
REMARK  status: ('A' for Active; 'I' for Inactive)
REMARK    1  A    between atoms: C_7  and  C_4 
ROOT
ATOM      1  N   UNL d   1     -48.526  14.384  23.054  0.00  0.00    -0.211 NA
ATOM      2  C   UNL d   1     -49.298  14.670  22.923  0.00  0.00     0.140 A 
ATOM      3  C   UNL d   1     -49.793  14.278  22.393  0.00  0.00     0.051 A 
ATOM      4  C   UNL d   1     -48.265  13.706  22.647  0.00  0.00     0.183 A 
ATOM      5  C   UNL d   1     -49.530  13.603  21.990  0.00  0.00     0.104 A 
ATOM      6  O   UNL d   1     -48.766  13.320  22.120  0.00  0.00    -0.289 OA
ATOM      7  S   UNL d   1     -49.565  15.341  23.321  0.00  0.00    -0.057 SA
ATOM      8  C   UNL d   1     -50.568  14.560  22.258  0.00  0.00     0.004 A 
ATOM      9  C   UNL d   1     -50.022  13.217  21.466  0.00  0.00     0.025 A 
ATOM     10  C   UNL d   1     -51.062  14.164  21.726  0.00  0.00     0.000 A 
ATOM     11  C   UNL d   1     -50.789  13.496  21.333  0.00  0.00     0.002 A 
ENDROOT
BRANCH   4  12
ATOM     12  C   UNL d   1     -47.503  13.428  22.779  0.00  0.00     0.041 A 
ATOM     13  C   UNL d   1     -47.382  12.719  23.172  0.00  0.00     0.004 A 
ATOM     14  C   UNL d   1     -46.616  12.449  23.300  0.00  0.00     0.000 A 
ATOM     15  C   UNL d   1     -46.496  11.733  23.696  0.00  0.00     0.000 C 
ATOM     16  C   UNL d   1     -45.968  12.885  23.035  0.00  0.00     0.000 A 
ATOM     17  C   UNL d   1     -46.094  13.599  22.639  0.00  0.00     0.000 A 
ATOM     18  C   UNL d   1     -46.862  13.872  22.510  0.00  0.00     0.004 A 
ENDBRANCH   4  12
TORSDOF 1
ENDMDL
MODEL 3
REMARK VINA RESULT:      -8.8      1.154      3.769
REMARK  1 active torsions:
REMARK  status: ('A' for Active; 'I' for Inactive)
REMARK    1  A    between atoms: C_7  and  C_4 
ROOT
ATOM      1  N   UNL d   1     -48.850  13.428  22.149  0.00  0.00    -0.211 NA
ATOM      2  C   UNL d   1     -49.629  13.706  22.040  0.00  0.00     0.140 A 
ATOM      3  C   UNL d   1     -49.920  14.303  22.529  0.00  0.00     0.051 A 
ATOM      4  C   UNL d   1     -48.376  13.758  22.749  0.00  0.00     0.183 A 
ATOM      5  C   UNL d   1     -49.445  14.629  23.126  0.00  0.00     0.104 A 
ATOM      6  O   UNL d   1     -48.675  14.354  23.233  0.00  0.00    -0.289 OA
ATOM      7  S   UNL d   1     -50.104  13.385  21.448  0.00  0.00    -0.057 SA
ATOM      8  C   UNL d   1     -50.699  14.585  22.425  0.00  0.00     0.004 A 
ATOM      9  C   UNL d   1     -49.737  15.219  23.607  0.00  0.00     0.025 A 
ATOM     10  C   UNL d   1     -50.989  15.183  22.916  0.00  0.00     0.000 A 
ATOM     11  C   UNL d   1     -50.508  15.498  23.505  0.00  0.00     0.002 A 
ENDROOT
BRANCH   4  12
ATOM     12  C   UNL d   1     -47.609  13.482  22.853  0.00  0.00     0.041 A 
ATOM     13  C   UNL d   1     -47.473  12.763  23.223  0.00  0.00     0.004 A 
ATOM     14  C   UNL d   1     -46.702  12.495  23.321  0.00  0.00     0.000 A 
ATOM     15  C   UNL d   1     -46.566  11.770  23.695  0.00  0.00     0.000 C 
ATOM     16  C   UNL d   1     -46.065  12.943  23.051  0.00  0.00     0.000 A 
ATOM     17  C   UNL d   1     -46.206  13.667  22.678  0.00  0.00     0.000 A 
ATOM     18  C   UNL d   1     -46.979  13.938  22.578  0.00  0.00     0.004 A 
ENDBRANCH   4  12
TORSDOF 1
ENDMDL
MODEL 4
REMARK VINA RESULT:      -8.7      0.945      1.399
REMARK  1 active torsions:
REMARK  status: ('A' for Active; 'I' for Inactive)
REMARK    1  A    between atoms: C_7  and  C_4 
ROOT
ATOM      1  N   UNL d   1     -48.738  13.005  23.200  0.00  0.00    -0.211 NA
ATOM      2  C   UNL d   1     -48.040  12.559  23.300  0.00  0.00     0.140 A 
ATOM      3  C   UNL d   1     -47.314  12.889  23.092  0.00  0.00     0.051 A 
ATOM      4  C   UNL d   1     -48.691  13.777  22.891  0.00  0.00     0.183 A 
ATOM      5  C   UNL d   1     -47.271  13.658  22.784  0.00  0.00     0.104 A 
ATOM      6  O   UNL d   1     -47.962  14.098  22.685  0.00  0.00    -0.289 OA
ATOM      7  S   UNL d   1     -48.077  11.794  23.606  0.00  0.00    -0.057 SA
ATOM      8  C   UNL d   1     -46.611  12.447  23.190  0.00  0.00     0.004 A 
ATOM      9  C   UNL d   1     -46.550  13.980  22.579  0.00  0.00     0.025 A 
ATOM     10  C   UNL d   1     -45.884  12.779  22.980  0.00  0.00     0.000 A 
ATOM     11  C   UNL d   1     -45.855  13.543  22.676  0.00  0.00     0.002 A 
ENDROOT
BRANCH   4  12
ATOM     12  C   UNL d   1     -49.381  14.213  22.794  0.00  0.00     0.041 A 
ATOM     13  C   UNL d   1     -49.550  14.840  23.293  0.00  0.00     0.004 A 
ATOM     14  C   UNL d   1     -50.243  15.270  23.188  0.00  0.00     0.000 A 
ATOM     15  C   UNL d   1     -50.412  15.903  23.692  0.00  0.00     0.000 C 
ATOM     16  C   UNL d   1     -50.770  15.075  22.584  0.00  0.00     0.000 A 
ATOM     17  C   UNL d   1     -50.596  14.441  22.083  0.00  0.00     0.000 A 
ATOM     18  C   UNL d   1     -49.901  14.009  22.186  0.00  0.00     0.004 A 
ENDBRANCH   4  12
TORSDOF 1
ENDMDL
MODEL 5
REMARK VINA RESULT:      -6.6      8.635      9.913
REMARK  1 active torsions:
REMARK  status: ('A' for Active; 'I' for Inactive)
REMARK    1  A    between atoms: C_7  and  C_4 
ROOT
ATOM      1  N   UNL d   1     -40.445  15.109  18.307  0.00  0.00    -0.211 NA
ATOM      2  C   UNL d   1     -40.175  15.026  17.522  0.00  0.00     0.140 A 
ATOM      3  C   UNL d   1     -39.586  14.474  17.351  0.00  0.00     0.051 A 
ATOM      4  C   UNL d   1     -40.117  14.634  18.907  0.00  0.00     0.183 A 
ATOM      5  C   UNL d   1     -39.261  14.003  17.951  0.00  0.00     0.104 A 
ATOM      6  O   UNL d   1     -39.529  14.086  18.727  0.00  0.00    -0.289 OA
ATOM      7  S   UNL d   1     -40.495  15.492  16.922  0.00  0.00    -0.057 SA
ATOM      8  C   UNL d   1     -39.311  14.387  16.567  0.00  0.00     0.004 A 
ATOM      9  C   UNL d   1     -38.679  13.459  17.777  0.00  0.00     0.025 A 
ATOM     10  C   UNL d   1     -38.721  13.833  16.398  0.00  0.00     0.000 A 
ATOM     11  C   UNL d   1     -38.407  13.372  17.002  0.00  0.00     0.002 A 
ENDROOT
BRANCH   4  12
ATOM     12  C   UNL d   1     -40.386  14.719  19.678  0.00  0.00     0.041 A 
ATOM     13  C   UNL d   1     -40.052  15.279  20.175  0.00  0.00     0.004 A 
ATOM     14  C   UNL d   1     -40.329  15.356  20.946  0.00  0.00     0.000 A 
ATOM     15  C   UNL d   1     -39.991  15.922  21.446  0.00  0.00     0.000 C 
ATOM     16  C   UNL d   1     -40.939  14.876  21.223  0.00  0.00     0.000 A 
ATOM     17  C   UNL d   1     -41.273  14.312  20.719  0.00  0.00     0.000 A 
ATOM     18  C   UNL d   1     -40.997  14.233  19.945  0.00  0.00     0.004 A 
ENDBRANCH   4  12
TORSDOF 1
ENDMDL
