MODEL 1
REMARK VINA RESULT:      -7.9      0.000      0.000
REMARK  4 active torsions:
REMARK  status: ('A' for Active; 'I' for Inactive)
REMARK    1  A    between atoms: N_3  and  C_1 
REMARK       I    between atoms: C_7  and  N_3 
REMARK    2  A    between atoms: C_15  and  C_7 
REMARK    3  A    between atoms: C_10  and  S_11 
REMARK    4  A    between atoms: S_11  and  C_15 
ROOT
ATOM      1  C   UNL d   1      53.761  32.542  53.878  0.00  0.00     0.182 A 
ATOM      2  N   UNL d   1      53.936  33.128  54.435  0.00  0.00    -0.283 N 
ATOM      3  S   UNL d   1      53.218  32.860  53.336  0.00  0.00    -0.048 SA
ATOM      4  C   UNL d   1      53.061  33.643  53.564  0.00  0.00     0.051 A 
ATOM      5  C   UNL d   1      53.504  33.809  54.241  0.00  0.00     0.072 A 
ATOM      6  C   UNL d   1      52.569  34.220  53.232  0.00  0.00     0.038 A 
ATOM      7  C   UNL d   1      53.454  34.550  54.586  0.00  0.00     0.020 A 
ATOM      8  C   UNL d   1      52.530  34.958  53.591  0.00  0.00     0.141 A 
ATOM      9  C   UNL d   1      52.973  35.123  54.268  0.00  0.00     0.031 A 
ATOM     10  C   UNL d   1      54.449  33.044  55.066  0.00  0.00     0.101 C 
ATOM     11  F   UNL d   1      52.041  35.545  53.269  0.00  0.00    -0.204 F 
ENDROOT
BRANCH   1  12
ATOM     12  N   UNL d   1      54.071  31.776  53.863  0.00  0.00    -0.183 NA
ATOM     13  C   UNL d   1      53.420  31.288  53.708  0.00  0.00     0.288 C 
ATOM     14  O   UNL d   1      52.667  31.620  53.609  0.00  0.00    -0.265 OA
BRANCH  13  15
ATOM     15  C   UNL d   1      53.514  30.476  53.651  0.00  0.00     0.101 C 
BRANCH  15  16
ATOM     16  S   UNL d   1      53.004  29.964  54.058  0.00  0.00    -0.040 SA
BRANCH  16  17
ATOM     17  C   UNL d   1      53.122  29.141  54.019  0.00  0.00     0.226 C 
ATOM     18  O   UNL d   1      52.844  28.727  53.363  0.00  0.00    -0.279 OA
ATOM     19  C   UNL d   1      53.508  28.755  54.626  0.00  0.00     0.053 C 
ENDBRANCH  16  17
ENDBRANCH  15  16
ENDBRANCH  13  15
ENDBRANCH   1  12
TORSDOF 4
ENDMDL
MODEL 2
REMARK VINA RESULT:      -7.7      2.474      4.020
REMARK  4 active torsions:
REMARK  status: ('A' for Active; 'I' for Inactive)
REMARK    1  A    between atoms: N_3  and  C_1 
REMARK       I    between atoms: C_7  and  N_3 
REMARK    2  A    between atoms: C_15  and  C_7 
REMARK    3  A    between atoms: C_10  and  S_11 
REMARK    4  A    between atoms: S_11  and  C_15 
ROOT
ATOM      1  C   UNL d   1      52.576  33.428  53.104  0.00  0.00     0.182 A 
ATOM      2  N   UNL d   1      52.911  32.709  53.340  0.00  0.00    -0.283 N 
ATOM      3  S   UNL d   1      52.931  34.032  53.551  0.00  0.00    -0.048 SA
ATOM      4  C   UNL d   1      53.483  33.680  54.062  0.00  0.00     0.051 A 
ATOM      5  C   UNL d   1      53.471  32.864  53.931  0.00  0.00     0.072 A 
ATOM      6  C   UNL d   1      53.992  34.008  54.626  0.00  0.00     0.038 A 
ATOM      7  C   UNL d   1      53.968  32.378  54.366  0.00  0.00     0.020 A 
ATOM      8  C   UNL d   1      54.483  33.507  55.052  0.00  0.00     0.141 A 
ATOM      9  C   UNL d   1      54.471  32.691  54.922  0.00  0.00     0.031 A 
ATOM     10  C   UNL d   1      52.717  31.975  53.038  0.00  0.00     0.101 C 
ATOM     11  F   UNL d   1      54.998  33.822  55.621  0.00  0.00    -0.204 F 
ENDROOT
BRANCH   1  12
ATOM     12  N   UNL d   1      51.994  33.528  52.527  0.00  0.00    -0.183 NA
ATOM     13  C   UNL d   1      51.442  34.041  52.871  0.00  0.00     0.288 C 
ATOM     14  O   UNL d   1      51.562  34.325  53.641  0.00  0.00    -0.265 OA
BRANCH  13  15
ATOM     15  C   UNL d   1      50.774  34.272  52.456  0.00  0.00     0.101 C 
BRANCH  15  16
ATOM     16  S   UNL d   1      50.089  34.510  52.857  0.00  0.00    -0.040 SA
BRANCH  16  17
ATOM     17  C   UNL d   1      49.424  34.769  52.431  0.00  0.00     0.226 C 
ATOM     18  O   UNL d   1      49.311  34.498  51.661  0.00  0.00    -0.279 OA
ATOM     19  C   UNL d   1      48.894  35.286  52.776  0.00  0.00     0.053 C 
ENDBRANCH  16  17
ENDBRANCH  15  16
ENDBRANCH  13  15
ENDBRANCH   1  12
TORSDOF 4
ENDMDL
MODEL 3
REMARK VINA RESULT:      -7.4      2.465      4.104
REMARK  4 active torsions:
REMARK  status: ('A' for Active; 'I' for Inactive)
REMARK    1  A    between atoms: N_3  and  C_1 
REMARK       I    between atoms: C_7  and  N_3 
REMARK    2  A    between atoms: C_15  and  C_7 
REMARK    3  A    between atoms: C_10  and  S_11 
REMARK    4  A    between atoms: S_11  and  C_15 
ROOT
ATOM      1  C   UNL d   1      52.511  34.223  53.348  0.00  0.00     0.182 A 
ATOM      2  N   UNL d   1      52.971  34.585  53.931  0.00  0.00    -0.283 N 
ATOM      3  S   UNL d   1      52.640  33.404  53.395  0.00  0.00    -0.048 SA
ATOM      4  C   UNL d   1      53.182  33.267  54.009  0.00  0.00     0.051 A 
ATOM      5  C   UNL d   1      53.386  33.996  54.340  0.00  0.00     0.072 A 
ATOM      6  C   UNL d   1      53.509  32.565  54.302  0.00  0.00     0.038 A 
ATOM      7  C   UNL d   1      53.917  34.022  54.963  0.00  0.00     0.020 A 
ATOM      8  C   UNL d   1      54.040  32.610  54.927  0.00  0.00     0.141 A 
ATOM      9  C   UNL d   1      54.244  33.339  55.258  0.00  0.00     0.031 A 
ATOM     10  C   UNL d   1      53.006  35.389  54.075  0.00  0.00     0.101 C 
ATOM     11  F   UNL d   1      54.376  31.915  55.230  0.00  0.00    -0.204 F 
ENDROOT
BRANCH   1  12
ATOM     12  N   UNL d   1      52.010  34.605  52.813  0.00  0.00    -0.183 NA
ATOM     13  C   UNL d   1      51.295  34.189  52.857  0.00  0.00     0.288 C 
ATOM     14  O   UNL d   1      51.224  33.541  53.369  0.00  0.00    -0.265 OA
BRANCH  13  15
ATOM     15  C   UNL d   1      50.656  34.412  52.396  0.00  0.00     0.101 C 
BRANCH  15  16
ATOM     16  S   UNL d   1      49.892  34.433  52.717  0.00  0.00    -0.040 SA
BRANCH  16  17
ATOM     17  C   UNL d   1      49.265  34.762  52.281  0.00  0.00     0.226 C 
ATOM     18  O   UNL d   1      49.162  34.540  51.494  0.00  0.00    -0.279 OA
ATOM     19  C   UNL d   1      48.761  35.300  52.634  0.00  0.00     0.053 C 
ENDBRANCH  16  17
ENDBRANCH  15  16
ENDBRANCH  13  15
ENDBRANCH   1  12
TORSDOF 4
ENDMDL
MODEL 4
REMARK VINA RESULT:      -7.3      2.630      4.281
REMARK  4 active torsions:
REMARK  status: ('A' for Active; 'I' for Inactive)
REMARK    1  A    between atoms: N_3  and  C_1 
REMARK       I    between atoms: C_7  and  N_3 
REMARK    2  A    between atoms: C_15  and  C_7 
REMARK    3  A    between atoms: C_10  and  S_11 
REMARK    4  A    between atoms: S_11  and  C_15 
ROOT
ATOM      1  C   UNL d   1      52.290  33.883  53.248  0.00  0.00     0.182 A 
ATOM      2  N   UNL d   1      52.851  33.890  53.854  0.00  0.00    -0.283 N 
ATOM      3  S   UNL d   1      52.297  33.127  52.903  0.00  0.00    -0.048 SA
ATOM      4  C   UNL d   1      52.865  32.672  53.302  0.00  0.00     0.051 A 
ATOM      5  C   UNL d   1      53.207  33.142  53.889  0.00  0.00     0.072 A 
ATOM      6  C   UNL d   1      53.107  31.887  53.197  0.00  0.00     0.038 A 
ATOM      7  C   UNL d   1      53.791  32.827  54.370  0.00  0.00     0.020 A 
ATOM      8  C   UNL d   1      53.693  31.587  53.688  0.00  0.00     0.141 A 
ATOM      9  C   UNL d   1      54.035  32.057  54.275  0.00  0.00     0.031 A 
ATOM     10  C   UNL d   1      53.022  34.529  54.335  0.00  0.00     0.101 C 
ATOM     11  F   UNL d   1      53.945  30.802  53.595  0.00  0.00    -0.204 F 
ENDROOT
BRANCH   1  12
ATOM     12  N   UNL d   1      51.808  34.515  53.023  0.00  0.00    -0.183 NA
ATOM     13  C   UNL d   1      51.042  34.199  53.001  0.00  0.00     0.288 C 
ATOM     14  O   UNL d   1      50.917  33.401  53.187  0.00  0.00    -0.265 OA
BRANCH  13  15
ATOM     15  C   UNL d   1      50.404  34.671  52.796  0.00  0.00     0.101 C 
BRANCH  15  16
ATOM     16  S   UNL d   1      49.724  34.337  52.459  0.00  0.00    -0.040 SA
BRANCH  16  17
ATOM     17  C   UNL d   1      49.094  34.824  52.222  0.00  0.00     0.226 C 
ATOM     18  O   UNL d   1      48.780  35.365  52.758  0.00  0.00    -0.279 OA
ATOM     19  C   UNL d   1      48.793  34.762  51.464  0.00  0.00     0.053 C 
ENDBRANCH  16  17
ENDBRANCH  15  16
ENDBRANCH  13  15
ENDBRANCH   1  12
TORSDOF 4
ENDMDL
MODEL 5
REMARK VINA RESULT:      -7.2      2.187      4.437
REMARK  4 active torsions:
REMARK  status: ('A' for Active; 'I' for Inactive)
REMARK    1  A    between atoms: N_3  and  C_1 
REMARK       I    between atoms: C_7  and  N_3 
REMARK    2  A    between atoms: C_15  and  C_7 
REMARK    3  A    between atoms: C_10  and  S_11 
REMARK    4  A    between atoms: S_11  and  C_15 
ROOT
ATOM      1  C   UNL d   1      53.383  32.224  53.301  0.00  0.00     0.182 A 
ATOM      2  N   UNL d   1      52.787  31.758  52.966  0.00  0.00    -0.283 N 
ATOM      3  S   UNL d   1      53.858  31.730  53.769  0.00  0.00    -0.048 SA
ATOM      4  C   UNL d   1      53.552  30.959  53.719  0.00  0.00     0.051 A 
ATOM      5  C   UNL d   1      52.891  30.977  53.223  0.00  0.00     0.072 A 
ATOM      6  C   UNL d   1      53.799  30.250  54.066  0.00  0.00     0.038 A 
ATOM      7  C   UNL d   1      52.478  30.285  53.076  0.00  0.00     0.020 A 
ATOM      8  C   UNL d   1      53.373  29.566  53.907  0.00  0.00     0.141 A 
ATOM      9  C   UNL d   1      52.712  29.583  53.412  0.00  0.00     0.031 A 
ATOM     10  C   UNL d   1      52.199  32.028  52.466  0.00  0.00     0.101 C 
ATOM     11  F   UNL d   1      53.609  28.847  54.249  0.00  0.00    -0.204 F 
ENDROOT
BRANCH   1  12
ATOM     12  N   UNL d   1      53.487  33.036  53.191  0.00  0.00    -0.183 NA
ATOM     13  C   UNL d   1      53.550  33.347  53.956  0.00  0.00     0.288 C 
ATOM     14  O   UNL d   1      53.503  32.844  54.613  0.00  0.00    -0.265 OA
BRANCH  13  15
ATOM     15  C   UNL d   1      53.660  34.151  54.070  0.00  0.00     0.101 C 
BRANCH  15  16
ATOM     16  S   UNL d   1      53.181  34.570  54.600  0.00  0.00    -0.040 SA
BRANCH  16  17
ATOM     17  C   UNL d   1      53.128  35.399  54.548  0.00  0.00     0.226 C 
ATOM     18  O   UNL d   1      53.803  35.833  54.360  0.00  0.00    -0.279 OA
ATOM     19  C   UNL d   1      52.414  35.771  54.684  0.00  0.00     0.053 C 
ENDBRANCH  16  17
ENDBRANCH  15  16
ENDBRANCH  13  15
ENDBRANCH   1  12
TORSDOF 4
ENDMDL
