MODEL 1
REMARK VINA RESULT:      -5.1      0.000      0.000
REMARK  4 active torsions:
REMARK  status: ('A' for Active; 'I' for Inactive)
REMARK    1  A    between atoms: C_3  and  C_1 
REMARK    2  A    between atoms: C_8  and  C_3 
REMARK    3  A    between atoms: O_6  and  C_8 
REMARK    4  A    between atoms: C_7  and  O_6 
ROOT
ATOM      1  C   UNL d   1     -41.625-122.005 -51.458  0.00  0.00     0.223 C 
ATOM      2  O   UNL d   1     -41.567-121.182 -51.515  0.00  0.00    -0.284 OA
ENDROOT
BRANCH   1   3
ATOM      3  C   UNL d   1     -41.748-122.360 -50.723  0.00  0.00     0.080 A 
ATOM      4  C   UNL d   1     -42.494-122.329 -50.368  0.00  0.00     0.202 A 
ATOM      5  C   UNL d   1     -42.616-122.685 -49.634  0.00  0.00     0.084 A 
ATOM      6  O   UNL d   1     -43.116-121.944 -50.747  0.00  0.00    -0.286 OA
ATOM      7  C   UNL d   1     -41.986-123.070 -49.258  0.00  0.00     0.199 A 
ATOM      8  C   UNL d   1     -41.247-123.101 -49.610  0.00  0.00     0.042 A 
ATOM      9  O   UNL d   1     -42.112-123.432 -48.510  0.00  0.00    -0.286 OA
ATOM     10  C   UNL d   1     -41.125-122.745 -50.344  0.00  0.00     0.010 A 
ENDBRANCH   1   3
BRANCH   1  11
ATOM     11  C   UNL d   1     -41.559-122.472 -52.142  0.00  0.00     0.165 C 
BRANCH  11  12
ATOM     12  O   UNL d   1     -41.586-122.113 -52.889  0.00  0.00    -0.301 OA
BRANCH  12  13
ATOM     13  C   UNL d   1     -41.536-122.590 -53.565  0.00  0.00     0.106 A 
ATOM     14  C   UNL d   1     -41.840-122.326 -54.282  0.00  0.00     0.057 A 
ATOM     15 BR   UNL d   1     -42.196-121.581 -54.319  0.00  0.00    -0.047 Br
ATOM     16  C   UNL d   1     -41.791-122.799 -54.955  0.00  0.00     0.009 A 
ATOM     17  C   UNL d   1     -41.433-123.543 -54.910  0.00  0.00     0.001 A 
ATOM     18  C   UNL d   1     -41.123-123.813 -54.184  0.00  0.00     0.002 A 
ATOM     19  C   UNL d   1     -41.177-123.334 -53.517  0.00  0.00     0.025 A 
ENDBRANCH  12  13
ENDBRANCH  11  12
ENDBRANCH   1  11
TORSDOF 4
ENDMDL
MODEL 2
REMARK VINA RESULT:      -2.4      1.059      1.577
REMARK  4 active torsions:
REMARK  status: ('A' for Active; 'I' for Inactive)
REMARK    1  A    between atoms: C_3  and  C_1 
REMARK    2  A    between atoms: C_8  and  C_3 
REMARK    3  A    between atoms: O_6  and  C_8 
REMARK    4  A    between atoms: C_7  and  O_6 
ROOT
ATOM      1  C   UNL d   1     -41.535-123.100 -51.909  0.00  0.00     0.223 C 
ATOM      2  O   UNL d   1     -41.123-123.816 -51.949  0.00  0.00    -0.284 OA
ENDROOT
BRANCH   1   3
ATOM      3  C   UNL d   1     -41.868-122.854 -51.196  0.00  0.00     0.080 A 
ATOM      4  C   UNL d   1     -41.678-122.112 -50.884  0.00  0.00     0.202 A 
ATOM      5  C   UNL d   1     -42.011-121.867 -50.170  0.00  0.00     0.084 A 
ATOM      6  O   UNL d   1     -41.155-121.617 -51.286  0.00  0.00    -0.286 OA
ATOM      7  C   UNL d   1     -42.535-122.369 -49.771  0.00  0.00     0.199 A 
ATOM      8  C   UNL d   1     -42.723-123.104 -50.080  0.00  0.00     0.042 A 
ATOM      9  O   UNL d   1     -42.874-122.119 -49.045  0.00  0.00    -0.286 OA
ATOM     10  C   UNL d   1     -42.390-123.350 -50.794  0.00  0.00     0.010 A 
ENDBRANCH   1   3
BRANCH   1  11
ATOM     11  C   UNL d   1     -41.611-122.629 -52.591  0.00  0.00     0.165 C 
BRANCH  11  12
ATOM     12  O   UNL d   1     -41.609-122.986 -53.339  0.00  0.00    -0.301 OA
BRANCH  12  13
ATOM     13  C   UNL d   1     -41.867-122.547 -53.993  0.00  0.00     0.106 A 
ATOM     14  C   UNL d   1     -41.662-122.779 -54.755  0.00  0.00     0.057 A 
ATOM     15 BR   UNL d   1     -41.197-123.454 -54.859  0.00  0.00    -0.047 Br
ATOM     16  C   UNL d   1     -41.918-122.343 -55.406  0.00  0.00     0.009 A 
ATOM     17  C   UNL d   1     -42.384-121.669 -55.294  0.00  0.00     0.001 A 
ATOM     18  C   UNL d   1     -42.593-121.432 -54.522  0.00  0.00     0.002 A 
ATOM     19  C   UNL d   1     -42.333-121.873 -53.877  0.00  0.00     0.025 A 
ENDBRANCH  12  13
ENDBRANCH  11  12
ENDBRANCH   1  11
TORSDOF 4
ENDMDL
