MODEL 1
REMARK VINA RESULT:      15.9      0.000      0.000
REMARK  7 active torsions:
REMARK  status: ('A' for Active; 'I' for Inactive)
REMARK    1  A    between atoms: S_9  and  C_2 
REMARK    2  A    between atoms: C_15  and  C_5 
REMARK    3  A    between atoms: C_6  and  C_7 
REMARK       I    between atoms: C_7  and  N_8 
REMARK    4  A    between atoms: N_8  and  C_15 
REMARK    5  A    between atoms: C_14  and  S_9 
REMARK    6  A    between atoms: C_10  and  C_14 
REMARK    7  A    between atoms: C_12  and  C_10 
ROOT
ATOM      1  O   UNL d   1      45.361 -16.356  44.643  0.00  0.00    -0.262 OA
ATOM      2  C   UNL d   1      46.058 -16.780  44.497  0.00  0.00     0.236 A 
ATOM      3  N   UNL d   1      46.647 -16.240  44.330  0.00  0.00    -0.114 NA
ATOM      4  N   UNL d   1      46.322 -15.487  44.372  0.00  0.00    -0.119 NA
ATOM      5  C   UNL d   1      45.531 -15.559  44.565  0.00  0.00     0.224 A 
ENDROOT
BRANCH   2   6
ATOM      6  S   UNL d   1      46.134 -17.598  44.518  0.00  0.00    -0.037 SA
BRANCH   6   7
ATOM      7  C   UNL d   1      45.898 -18.049  43.882  0.00  0.00     0.081 C 
BRANCH   7   8
ATOM      8  C   UNL d   1      46.214 -18.808  43.761  0.00  0.00     0.202 C 
ATOM      9  O   UNL d   1      46.447 -19.261  44.402  0.00  0.00    -0.286 OA
BRANCH   8  10
ATOM     10  C   UNL d   1      46.292 -19.102  42.995  0.00  0.00     0.040 A 
ATOM     11  C   UNL d   1      46.092 -19.883  42.837  0.00  0.00     0.004 A 
ATOM     12  C   UNL d   1      46.169 -20.183  42.069  0.00  0.00     0.011 A 
ATOM     13  C   UNL d   1      46.447 -19.701  41.460  0.00  0.00     0.058 A 
ATOM     14  C   UNL d   1      46.647 -18.917  41.622  0.00  0.00     0.011 A 
ATOM     15 CL   UNL d   1      46.522 -19.999  40.702  0.00  0.00    -0.082 Cl
ATOM     16  C   UNL d   1      46.573 -18.610  42.385  0.00  0.00     0.004 A 
ENDBRANCH   8  10
ENDBRANCH   7   8
ENDBRANCH   6   7
ENDBRANCH   2   6
BRANCH   5  17
ATOM     17  C   UNL d   1      45.000 -14.939  44.662  0.00  0.00     0.149 C 
BRANCH  17  18
ATOM     18  N   UNL d   1      44.849 -14.420  44.045  0.00  0.00    -0.203 NA
ATOM     19  C   UNL d   1      45.117 -13.641  44.089  0.00  0.00     0.281 C 
ATOM     20  O   UNL d   1      45.533 -13.381  44.746  0.00  0.00    -0.265 OA
BRANCH  19  21
ATOM     21  C   UNL d   1      44.963 -13.123  43.466  0.00  0.00     0.085 A 
ATOM     22  C   UNL d   1      45.508 -13.052  42.866  0.00  0.00     0.145 A 
ATOM     23  F   UNL d   1      46.208 -13.483  42.864  0.00  0.00    -0.204 F 
ATOM     24  C   UNL d   1      45.340 -12.528  42.246  0.00  0.00     0.030 A 
ATOM     25  C   UNL d   1      44.641 -12.081  42.223  0.00  0.00     0.002 A 
ATOM     26  C   UNL d   1      44.100 -12.173  42.851  0.00  0.00     0.000 A 
ATOM     27  C   UNL d   1      44.268 -12.697  43.470  0.00  0.00     0.007 A 
ENDBRANCH  19  21
ENDBRANCH  17  18
ENDBRANCH   5  17
TORSDOF 7
ENDMDL
