MODEL 1
REMARK VINA RESULT:      -8.2      0.000      0.000
REMARK  7 active torsions:
REMARK  status: ('A' for Active; 'I' for Inactive)
REMARK    1  A    between atoms: N_3  and  C_1 
REMARK       I    between atoms: C_8  and  N_3 
REMARK    2  A    between atoms: C_12  and  N_3 
REMARK    3  A    between atoms: S_5  and  C_11 
REMARK    4  A    between atoms: C_16  and  S_5 
REMARK    5  A    between atoms: C_9  and  C_8 
REMARK    6  A    between atoms: C_11  and  C_9 
REMARK    7  A    between atoms: C_21  and  C_12 
ROOT
ATOM      1  N   UNL d   1      51.708  33.690  52.965  0.00  0.00    -0.253 N 
ATOM      2  C   UNL d   1      50.875  33.654  53.054  0.00  0.00     0.267 C 
ATOM      3  O   UNL d   1      50.524  32.949  53.290  0.00  0.00    -0.267 OA
ENDROOT
BRANCH   1   4
ATOM      4  C   UNL d   1      52.163  33.020  53.114  0.00  0.00     0.182 A 
ATOM      5  N   UNL d   1      52.258  32.367  52.610  0.00  0.00    -0.222 NA
ATOM      6  C   UNL d   1      52.763  31.817  52.976  0.00  0.00     0.089 A 
ATOM      7  C   UNL d   1      53.039  31.094  52.735  0.00  0.00     0.020 A 
ATOM      8  C   UNL d   1      52.978  32.133  53.708  0.00  0.00     0.050 A 
ATOM      9  C   UNL d   1      53.532  30.674  53.217  0.00  0.00     0.002 A 
ATOM     10  C   UNL d   1      53.817  29.933  52.972  0.00  0.00     0.000 C 
ATOM     11  C   UNL d   1      53.753  30.980  53.949  0.00  0.00     0.001 A 
ATOM     12  C   UNL d   1      53.478  31.709  54.196  0.00  0.00     0.007 A 
ATOM     13  C   UNL d   1      53.690  32.024  54.922  0.00  0.00     0.001 C 
ATOM     14  S   UNL d   1      52.613  32.868  53.794  0.00  0.00    -0.048 SA
ENDBRANCH   1   4
BRANCH   1  15
ATOM     15  C   UNL d   1      52.067  34.392  52.729  0.00  0.00     0.086 C 
BRANCH  15  16
ATOM     16  C   UNL d   1      52.458  34.862  53.284  0.00  0.00     0.037 A 
ATOM     17  C   UNL d   1      52.076  35.087  53.977  0.00  0.00     0.100 A 
ATOM     18  N   UNL d   1      52.467  35.557  54.531  0.00  0.00    -0.242 NA
ATOM     19  C   UNL d   1      53.240  35.802  54.392  0.00  0.00     0.099 A 
ATOM     20  C   UNL d   1      53.626  35.578  53.696  0.00  0.00     0.021 A 
ATOM     21  C   UNL d   1      53.235  35.108  53.142  0.00  0.00     0.005 A 
ENDBRANCH  15  16
ENDBRANCH   1  15
BRANCH   2  22
ATOM     22  C   UNL d   1      50.424  34.322  52.905  0.00  0.00     0.073 C 
BRANCH  22  23
ATOM     23  C   UNL d   1      49.676  34.240  52.558  0.00  0.00     0.104 C 
BRANCH  23  24
ATOM     24  S   UNL d   1      49.128  34.858  52.606  0.00  0.00     0.211 S 
ATOM     25  O   UNL d   1      49.121  34.921  51.770  0.00  0.00    -0.217 OA
ATOM     26  O   UNL d   1      49.135  34.797  53.436  0.00  0.00    -0.217 OA
BRANCH  24  27
ATOM     27  C   UNL d   1      48.579  35.479  52.651  0.00  0.00     0.088 A 
ATOM     28  C   UNL d   1      48.101  35.651  52.001  0.00  0.00     0.011 A 
ATOM     29  C   UNL d   1      47.555  36.266  52.041  0.00  0.00     0.001 A 
ATOM     30  C   UNL d   1      47.486  36.709  52.733  0.00  0.00     0.000 A 
ATOM     31  C   UNL d   1      47.957  36.541  53.378  0.00  0.00     0.001 A 
ATOM     32  C   UNL d   1      48.508  35.924  53.344  0.00  0.00     0.011 A 
ENDBRANCH  24  27
ENDBRANCH  23  24
ENDBRANCH  22  23
ENDBRANCH   2  22
TORSDOF 7
ENDMDL
MODEL 2
REMARK VINA RESULT:      -8.1      1.144      5.264
REMARK  7 active torsions:
REMARK  status: ('A' for Active; 'I' for Inactive)
REMARK    1  A    between atoms: N_3  and  C_1 
REMARK       I    between atoms: C_8  and  N_3 
REMARK    2  A    between atoms: C_12  and  N_3 
REMARK    3  A    between atoms: S_5  and  C_11 
REMARK    4  A    between atoms: C_16  and  S_5 
REMARK    5  A    between atoms: C_9  and  C_8 
REMARK    6  A    between atoms: C_11  and  C_9 
REMARK    7  A    between atoms: C_21  and  C_12 
ROOT
ATOM      1  N   UNL d   1      51.306  33.713  52.842  0.00  0.00    -0.253 N 
ATOM      2  C   UNL d   1      51.250  32.894  53.012  0.00  0.00     0.267 C 
ATOM      3  O   UNL d   1      50.509  32.556  53.128  0.00  0.00    -0.267 OA
ENDROOT
BRANCH   1   4
ATOM      4  C   UNL d   1      50.621  34.168  52.794  0.00  0.00     0.182 A 
ATOM      5  N   UNL d   1      50.271  34.598  53.412  0.00  0.00    -0.222 NA
ATOM      6  C   UNL d   1      49.590  34.977  53.123  0.00  0.00     0.089 A 
ATOM      7  C   UNL d   1      49.047  35.459  53.482  0.00  0.00     0.020 A 
ATOM      8  C   UNL d   1      49.521  34.778  52.324  0.00  0.00     0.050 A 
ATOM      9  C   UNL d   1      48.428  35.752  53.053  0.00  0.00     0.002 A 
ATOM     10  C   UNL d   1      47.870  36.247  53.419  0.00  0.00     0.000 C 
ATOM     11  C   UNL d   1      48.350  35.560  52.257  0.00  0.00     0.001 A 
ATOM     12  C   UNL d   1      48.895  35.074  51.890  0.00  0.00     0.007 A 
ATOM     13  C   UNL d   1      48.828  34.875  51.097  0.00  0.00     0.001 C 
ATOM     14  S   UNL d   1      50.151  34.283  52.121  0.00  0.00    -0.048 SA
ENDBRANCH   1   4
BRANCH   1  15
ATOM     15  C   UNL d   1      52.044  34.059  52.725  0.00  0.00     0.086 C 
BRANCH  15  16
ATOM     16  C   UNL d   1      52.421  34.448  53.347  0.00  0.00     0.037 A 
ATOM     17  C   UNL d   1      52.434  34.111  54.098  0.00  0.00     0.100 A 
ATOM     18  N   UNL d   1      52.811  34.499  54.720  0.00  0.00    -0.242 NA
ATOM     19  C   UNL d   1      53.176  35.225  54.592  0.00  0.00     0.099 A 
ATOM     20  C   UNL d   1      53.165  35.567  53.839  0.00  0.00     0.021 A 
ATOM     21  C   UNL d   1      52.788  35.178  53.216  0.00  0.00     0.005 A 
ENDBRANCH  15  16
ENDBRANCH   1  15
BRANCH   2  22
ATOM     22  C   UNL d   1      51.932  32.443  53.060  0.00  0.00     0.073 C 
BRANCH  22  23
ATOM     23  C   UNL d   1      51.952  31.693  52.708  0.00  0.00     0.104 C 
BRANCH  23  24
ATOM     24  S   UNL d   1      52.448  31.106  53.015  0.00  0.00     0.211 S 
ATOM     25  O   UNL d   1      51.855  30.890  53.567  0.00  0.00    -0.217 OA
ATOM     26  O   UNL d   1      53.038  31.319  52.467  0.00  0.00    -0.217 OA
BRANCH  24  27
ATOM     27  C   UNL d   1      52.943  30.516  53.324  0.00  0.00     0.088 A 
ATOM     28  C   UNL d   1      52.634  29.770  53.495  0.00  0.00     0.011 A 
ATOM     29  C   UNL d   1      53.121  29.182  53.802  0.00  0.00     0.001 A 
ATOM     30  C   UNL d   1      53.918  29.339  53.939  0.00  0.00     0.000 A 
ATOM     31  C   UNL d   1      54.227  30.076  53.772  0.00  0.00     0.001 A 
ATOM     32  C   UNL d   1      53.742  30.672  53.463  0.00  0.00     0.011 A 
ENDBRANCH  24  27
ENDBRANCH  23  24
ENDBRANCH  22  23
ENDBRANCH   2  22
TORSDOF 7
ENDMDL
MODEL 3
REMARK VINA RESULT:      -7.3      1.745      5.454
REMARK  7 active torsions:
REMARK  status: ('A' for Active; 'I' for Inactive)
REMARK    1  A    between atoms: N_3  and  C_1 
REMARK       I    between atoms: C_8  and  N_3 
REMARK    2  A    between atoms: C_12  and  N_3 
REMARK    3  A    between atoms: S_5  and  C_11 
REMARK    4  A    between atoms: C_16  and  S_5 
REMARK    5  A    between atoms: C_9  and  C_8 
REMARK    6  A    between atoms: C_11  and  C_9 
REMARK    7  A    between atoms: C_21  and  C_12 
ROOT
ATOM      1  N   UNL d   1      52.395  32.735  53.063  0.00  0.00    -0.253 N 
ATOM      2  C   UNL d   1      52.261  31.913  53.151  0.00  0.00     0.267 C 
ATOM      3  O   UNL d   1      51.495  31.620  53.093  0.00  0.00    -0.267 OA
ENDROOT
BRANCH   1   4
ATOM      4  C   UNL d   1      51.760  33.239  52.919  0.00  0.00     0.182 A 
ATOM      5  N   UNL d   1      51.214  33.515  53.481  0.00  0.00    -0.222 NA
ATOM      6  C   UNL d   1      50.664  34.010  53.100  0.00  0.00     0.089 A 
ATOM      7  C   UNL d   1      50.024  34.420  53.379  0.00  0.00     0.020 A 
ATOM      8  C   UNL d   1      50.874  34.037  52.301  0.00  0.00     0.050 A 
ATOM      9  C   UNL d   1      49.582  34.864  52.869  0.00  0.00     0.002 A 
ATOM     10  C   UNL d   1      48.925  35.287  53.152  0.00  0.00     0.000 C 
ATOM     11  C   UNL d   1      49.782  34.899  52.071  0.00  0.00     0.001 A 
ATOM     12  C   UNL d   1      50.427  34.486  51.785  0.00  0.00     0.007 A 
ATOM     13  C   UNL d   1      50.636  34.512  50.993  0.00  0.00     0.001 C 
ATOM     14  S   UNL d   1      51.543  33.566  52.189  0.00  0.00    -0.048 SA
ENDBRANCH   1   4
BRANCH   1  15
ATOM     15  C   UNL d   1      53.160  33.036  53.120  0.00  0.00     0.086 C 
BRANCH  15  16
ATOM     16  C   UNL d   1      53.390  33.452  53.794  0.00  0.00     0.037 A 
ATOM     17  C   UNL d   1      53.552  34.258  53.746  0.00  0.00     0.100 A 
ATOM     18  N   UNL d   1      53.783  34.674  54.421  0.00  0.00    -0.242 NA
ATOM     19  C   UNL d   1      53.851  34.285  55.142  0.00  0.00     0.099 A 
ATOM     20  C   UNL d   1      53.689  33.475  55.193  0.00  0.00     0.021 A 
ATOM     21  C   UNL d   1      53.458  33.059  54.519  0.00  0.00     0.005 A 
ENDBRANCH  15  16
ENDBRANCH   1  15
BRANCH   2  22
ATOM     22  C   UNL d   1      52.894  31.413  53.294  0.00  0.00     0.073 C 
BRANCH  22  23
ATOM     23  C   UNL d   1      52.848  30.618  53.063  0.00  0.00     0.104 C 
BRANCH  23  24
ATOM     24  S   UNL d   1      53.062  30.020  53.594  0.00  0.00     0.211 S 
ATOM     25  O   UNL d   1      52.256  29.809  53.685  0.00  0.00    -0.217 OA
ATOM     26  O   UNL d   1      53.863  30.229  53.504  0.00  0.00    -0.217 OA
BRANCH  24  27
ATOM     27  C   UNL d   1      53.274  29.420  54.127  0.00  0.00     0.088 A 
ATOM     28  C   UNL d   1      53.053  29.479  54.919  0.00  0.00     0.011 A 
ATOM     29  C   UNL d   1      53.260  28.887  55.452  0.00  0.00     0.001 A 
ATOM     30  C   UNL d   1      53.690  28.234  55.191  0.00  0.00     0.000 A 
ATOM     31  C   UNL d   1      53.911  28.172  54.408  0.00  0.00     0.001 A 
ATOM     32  C   UNL d   1      53.705  28.764  53.867  0.00  0.00     0.011 A 
ENDBRANCH  24  27
ENDBRANCH  23  24
ENDBRANCH  22  23
ENDBRANCH   2  22
TORSDOF 7
ENDMDL
MODEL 4
REMARK VINA RESULT:      -7.1      1.276      1.718
REMARK  7 active torsions:
REMARK  status: ('A' for Active; 'I' for Inactive)
REMARK    1  A    between atoms: N_3  and  C_1 
REMARK       I    between atoms: C_8  and  N_3 
REMARK    2  A    between atoms: C_12  and  N_3 
REMARK    3  A    between atoms: S_5  and  C_11 
REMARK    4  A    between atoms: C_16  and  S_5 
REMARK    5  A    between atoms: C_9  and  C_8 
REMARK    6  A    between atoms: C_11  and  C_9 
REMARK    7  A    between atoms: C_21  and  C_12 
ROOT
ATOM      1  N   UNL d   1      52.483  32.755  53.333  0.00  0.00    -0.253 N 
ATOM      2  C   UNL d   1      51.677  32.981  53.303  0.00  0.00     0.267 C 
ATOM      3  O   UNL d   1      51.094  32.409  53.400  0.00  0.00    -0.267 OA
ENDROOT
BRANCH   1   4
ATOM      4  C   UNL d   1      52.682  31.966  53.459  0.00  0.00     0.182 A 
ATOM      5  N   UNL d   1      52.761  31.589  54.195  0.00  0.00    -0.222 NA
ATOM      6  C   UNL d   1      52.967  30.793  54.068  0.00  0.00     0.089 A 
ATOM      7  C   UNL d   1      53.110  30.185  54.583  0.00  0.00     0.020 A 
ATOM      8  C   UNL d   1      53.015  30.682  53.251  0.00  0.00     0.050 A 
ATOM      9  C   UNL d   1      53.303  29.455  54.295  0.00  0.00     0.002 A 
ATOM     10  C   UNL d   1      53.450  28.829  54.821  0.00  0.00     0.000 C 
ATOM     11  C   UNL d   1      53.353  29.332  53.483  0.00  0.00     0.001 A 
ATOM     12  C   UNL d   1      53.210  29.944  52.959  0.00  0.00     0.007 A 
ATOM     13  C   UNL d   1      53.257  29.834  52.148  0.00  0.00     0.001 C 
ATOM     14  S   UNL d   1      52.841  31.397  52.877  0.00  0.00    -0.048 SA
ENDBRANCH   1   4
BRANCH   1  15
ATOM     15  C   UNL d   1      53.073  33.322  53.237  0.00  0.00     0.086 C 
BRANCH  15  16
ATOM     16  C   UNL d   1      53.530  33.555  53.883  0.00  0.00     0.037 A 
ATOM     17  C   UNL d   1      53.176  33.926  54.527  0.00  0.00     0.100 A 
ATOM     18  N   UNL d   1      53.633  34.160  55.173  0.00  0.00    -0.242 NA
ATOM     19  C   UNL d   1      54.444  34.023  55.175  0.00  0.00     0.099 A 
ATOM     20  C   UNL d   1      54.803  33.650  54.530  0.00  0.00     0.021 A 
ATOM     21  C   UNL d   1      54.346  33.417  53.884  0.00  0.00     0.005 A 
ENDBRANCH  15  16
ENDBRANCH   1  15
BRANCH   2  22
ATOM     22  C   UNL d   1      51.481  33.767  53.178  0.00  0.00     0.073 C 
BRANCH  22  23
ATOM     23  C   UNL d   1      51.017  33.973  52.523  0.00  0.00     0.104 C 
BRANCH  23  24
ATOM     24  S   UNL d   1      50.336  34.430  52.628  0.00  0.00     0.211 S 
ATOM     25  O   UNL d   1      49.912  33.922  52.113  0.00  0.00    -0.217 OA
ATOM     26  O   UNL d   1      50.755  34.937  53.139  0.00  0.00    -0.217 OA
BRANCH  24  27
ATOM     27  C   UNL d   1      49.650  34.888  52.731  0.00  0.00     0.088 A 
ATOM     28  C   UNL d   1      49.117  34.972  52.107  0.00  0.00     0.011 A 
ATOM     29  C   UNL d   1      48.436  35.424  52.204  0.00  0.00     0.001 A 
ATOM     30  C   UNL d   1      48.288  35.792  52.926  0.00  0.00     0.000 A 
ATOM     31  C   UNL d   1      48.813  35.711  53.545  0.00  0.00     0.001 A 
ATOM     32  C   UNL d   1      49.500  35.258  53.454  0.00  0.00     0.011 A 
ENDBRANCH  24  27
ENDBRANCH  23  24
ENDBRANCH  22  23
ENDBRANCH   2  22
TORSDOF 7
ENDMDL
MODEL 5
REMARK VINA RESULT:      -7.0      1.510      2.814
REMARK  7 active torsions:
REMARK  status: ('A' for Active; 'I' for Inactive)
REMARK    1  A    between atoms: N_3  and  C_1 
REMARK       I    between atoms: C_8  and  N_3 
REMARK    2  A    between atoms: C_12  and  N_3 
REMARK    3  A    between atoms: S_5  and  C_11 
REMARK    4  A    between atoms: C_16  and  S_5 
REMARK    5  A    between atoms: C_9  and  C_8 
REMARK    6  A    between atoms: C_11  and  C_9 
REMARK    7  A    between atoms: C_21  and  C_12 
ROOT
ATOM      1  N   UNL d   1      52.333  33.534  53.198  0.00  0.00    -0.253 N 
ATOM      2  C   UNL d   1      51.746  34.123  53.304  0.00  0.00     0.267 C 
ATOM      3  O   UNL d   1      51.856  34.706  53.872  0.00  0.00    -0.267 OA
ENDROOT
BRANCH   1   4
ATOM      4  C   UNL d   1      53.012  33.547  53.664  0.00  0.00     0.182 A 
ATOM      5  N   UNL d   1      53.039  33.577  54.494  0.00  0.00    -0.222 NA
ATOM      6  C   UNL d   1      53.834  33.581  54.736  0.00  0.00     0.089 A 
ATOM      7  C   UNL d   1      54.174  33.605  55.470  0.00  0.00     0.020 A 
ATOM      8  C   UNL d   1      54.297  33.553  54.052  0.00  0.00     0.050 A 
ATOM      9  C   UNL d   1      54.979  33.603  55.538  0.00  0.00     0.002 A 
ATOM     10  C   UNL d   1      55.331  33.628  56.291  0.00  0.00     0.000 C 
ATOM     11  C   UNL d   1      55.450  33.576  54.863  0.00  0.00     0.001 A 
ATOM     12  C   UNL d   1      55.111  33.551  54.120  0.00  0.00     0.007 A 
ATOM     13  C   UNL d   1      55.570  33.524  53.440  0.00  0.00     0.001 C 
ATOM     14  S   UNL d   1      53.796  33.533  53.396  0.00  0.00    -0.048 SA
ENDBRANCH   1   4
BRANCH   1  15
ATOM     15  C   UNL d   1      52.229  32.946  52.630  0.00  0.00     0.086 C 
BRANCH  15  16
ATOM     16  C   UNL d   1      52.117  32.163  52.863  0.00  0.00     0.037 A 
ATOM     17  C   UNL d   1      51.456  31.954  53.307  0.00  0.00     0.100 A 
ATOM     18  N   UNL d   1      51.344  31.171  53.540  0.00  0.00    -0.242 NA
ATOM     19  C   UNL d   1      51.893  30.596  53.329  0.00  0.00     0.099 A 
ATOM     20  C   UNL d   1      52.559  30.802  52.883  0.00  0.00     0.021 A 
ATOM     21  C   UNL d   1      52.671  31.586  52.650  0.00  0.00     0.005 A 
ENDBRANCH  15  16
ENDBRANCH   1  15
BRANCH   2  22
ATOM     22  C   UNL d   1      51.071  34.108  52.839  0.00  0.00     0.073 C 
BRANCH  22  23
ATOM     23  C   UNL d   1      50.515  34.720  52.906  0.00  0.00     0.104 C 
BRANCH  23  24
ATOM     24  S   UNL d   1      49.857  34.737  52.405  0.00  0.00     0.211 S 
ATOM     25  O   UNL d   1      50.361  34.692  51.737  0.00  0.00    -0.217 OA
ATOM     26  O   UNL d   1      49.355  34.781  53.068  0.00  0.00    -0.217 OA
BRANCH  24  27
ATOM     27  C   UNL d   1      49.198  34.754  51.899  0.00  0.00     0.088 A 
ATOM     28  C   UNL d   1      48.516  35.156  52.130  0.00  0.00     0.011 A 
ATOM     29  C   UNL d   1      47.860  35.176  51.632  0.00  0.00     0.001 A 
ATOM     30  C   UNL d   1      47.888  34.793  50.903  0.00  0.00     0.000 A 
ATOM     31  C   UNL d   1      48.562  34.395  50.672  0.00  0.00     0.001 A 
ATOM     32  C   UNL d   1      49.224  34.371  51.168  0.00  0.00     0.011 A 
ENDBRANCH  24  27
ENDBRANCH  23  24
ENDBRANCH  22  23
ENDBRANCH   2  22
TORSDOF 7
ENDMDL
