MODEL 1
REMARK VINA RESULT:      20.7      0.000      0.000
REMARK  3 active torsions:
REMARK  status: ('A' for Active; 'I' for Inactive)
REMARK    1  A    between atoms: S_6  and  C_1 
REMARK    2  A    between atoms: C_3  and  C_9 
REMARK       I    between atoms: N_4  and  C_3 
REMARK    3  A    between atoms: C_9  and  S_6 
ROOT
ATOM      1  C   UNL d   1      13.108  12.396  -3.869  0.00  0.00     0.114 A 
ATOM      2  C   UNL d   1      13.075  13.169  -4.146  0.00  0.00     0.042 A 
ATOM      3  N   UNL d   1      13.270  11.780  -4.394  0.00  0.00    -0.217 NA
ATOM      4  N   UNL d   1      13.364  12.718  -5.471  0.00  0.00    -0.224 NA
ATOM      5  C   UNL d   1      13.398  11.941  -5.195  0.00  0.00     0.200 A 
ATOM      6  C   UNL d   1      13.203  13.330  -4.947  0.00  0.00     0.085 A 
ATOM      7  C   UNL d   1      12.913  13.784  -3.621  0.00  0.00     0.004 A 
ATOM      8  C   UNL d   1      13.168  14.106  -5.223  0.00  0.00     0.019 A 
ATOM      9  C   UNL d   1      12.879  14.561  -3.897  0.00  0.00     0.000 A 
ATOM     10  C   UNL d   1      13.007  14.722  -4.698  0.00  0.00     0.002 A 
ENDROOT
BRANCH   1  11
ATOM     11  S   UNL d   1      12.980  12.235  -3.069  0.00  0.00    -0.062 SA
BRANCH  11  12
ATOM     12  C   UNL d   1      13.544  11.832  -2.632  0.00  0.00     0.098 C 
BRANCH  12  13
ATOM     13  C   UNL d   1      13.496  11.806  -1.808  0.00  0.00     0.271 C 
ATOM     14  N   UNL d   1      14.190  11.804  -1.350  0.00  0.00    -0.272 N 
ATOM     15  C   UNL d   1      14.952  11.827  -1.635  0.00  0.00     0.083 A 
ATOM     16  C   UNL d   1      14.226  11.779  -0.528  0.00  0.00     0.083 A 
ATOM     17  C   UNL d   1      15.472  11.816  -0.991  0.00  0.00     0.021 A 
ATOM     18  C   UNL d   1      15.009  11.787  -0.309  0.00  0.00     0.021 A 
ATOM     19  O   UNL d   1      12.769  11.781  -1.444  0.00  0.00    -0.266 OA
ENDBRANCH  12  13
ENDBRANCH  11  12
ENDBRANCH   1  11
TORSDOF 3
ENDMDL
MODEL 2
REMARK VINA RESULT:      21.5      1.550      3.902
REMARK  3 active torsions:
REMARK  status: ('A' for Active; 'I' for Inactive)
REMARK    1  A    between atoms: S_6  and  C_1 
REMARK    2  A    between atoms: C_3  and  C_9 
REMARK       I    between atoms: N_4  and  C_3 
REMARK    3  A    between atoms: C_9  and  S_6 
ROOT
ATOM      1  C   UNL d   1      14.465  12.687  -1.391  0.00  0.00     0.114 A 
ATOM      2  C   UNL d   1      14.796  13.340  -1.017  0.00  0.00     0.042 A 
ATOM      3  N   UNL d   1      14.662  11.927  -1.134  0.00  0.00    -0.217 NA
ATOM      4  N   UNL d   1      15.518  12.482  -0.131  0.00  0.00    -0.224 NA
ATOM      5  C   UNL d   1      15.188  11.825  -0.504  0.00  0.00     0.200 A 
ATOM      6  C   UNL d   1      15.322  13.238  -0.387  0.00  0.00     0.085 A 
ATOM      7  C   UNL d   1      14.600  14.100  -1.274  0.00  0.00     0.004 A 
ATOM      8  C   UNL d   1      15.652  13.895  -0.014  0.00  0.00     0.019 A 
ATOM      9  C   UNL d   1      14.931  14.757  -0.900  0.00  0.00     0.000 A 
ATOM     10  C   UNL d   1      15.457  14.654  -0.270  0.00  0.00     0.002 A 
ENDROOT
BRANCH   1  11
ATOM     11  S   UNL d   1      13.940  12.789  -2.020  0.00  0.00    -0.062 SA
BRANCH  11  12
ATOM     12  C   UNL d   1      14.052  12.384  -2.723  0.00  0.00     0.098 C 
BRANCH  12  13
ATOM     13  C   UNL d   1      13.405  12.121  -3.163  0.00  0.00     0.271 C 
ATOM     14  N   UNL d   1      13.402  12.205  -3.991  0.00  0.00    -0.272 N 
ATOM     15  C   UNL d   1      13.994  12.532  -4.442  0.00  0.00     0.083 A 
ATOM     16  C   UNL d   1      12.797  11.968  -4.497  0.00  0.00     0.083 A 
ATOM     17  C   UNL d   1      13.764  12.504  -5.236  0.00  0.00     0.021 A 
ATOM     18  C   UNL d   1      13.019  12.152  -5.258  0.00  0.00     0.021 A 
ATOM     19  O   UNL d   1      12.769  11.780  -2.787  0.00  0.00    -0.266 OA
ENDBRANCH  12  13
ENDBRANCH  11  12
ENDBRANCH   1  11
TORSDOF 3
ENDMDL
MODEL 3
REMARK VINA RESULT:      22.9      0.784      1.425
REMARK  3 active torsions:
REMARK  status: ('A' for Active; 'I' for Inactive)
REMARK    1  A    between atoms: S_6  and  C_1 
REMARK    2  A    between atoms: C_3  and  C_9 
REMARK       I    between atoms: N_4  and  C_3 
REMARK    3  A    between atoms: C_9  and  S_6 
ROOT
ATOM      1  C   UNL d   1      13.170  12.591  -3.502  0.00  0.00     0.114 A 
ATOM      2  C   UNL d   1      13.181  12.553  -4.323  0.00  0.00     0.042 A 
ATOM      3  N   UNL d   1      13.132  13.325  -3.127  0.00  0.00    -0.217 NA
ATOM      4  N   UNL d   1      13.118  13.979  -4.400  0.00  0.00    -0.224 NA
ATOM      5  C   UNL d   1      13.107  14.019  -3.576  0.00  0.00     0.200 A 
ATOM      6  C   UNL d   1      13.156  13.247  -4.772  0.00  0.00     0.085 A 
ATOM      7  C   UNL d   1      13.218  11.819  -4.698  0.00  0.00     0.004 A 
ATOM      8  C   UNL d   1      13.167  13.207  -5.596  0.00  0.00     0.019 A 
ATOM      9  C   UNL d   1      13.230  11.779  -5.522  0.00  0.00     0.000 A 
ATOM     10  C   UNL d   1      13.204  12.473  -5.971  0.00  0.00     0.002 A 
ENDROOT
BRANCH   1  11
ATOM     11  S   UNL d   1      13.195  11.898  -3.053  0.00  0.00    -0.062 SA
BRANCH  11  12
ATOM     12  C   UNL d   1      13.793  11.780  -2.507  0.00  0.00     0.098 C 
BRANCH  12  13
ATOM     13  C   UNL d   1      13.636  11.821  -1.697  0.00  0.00     0.271 C 
ATOM     14  N   UNL d   1      14.261  11.904  -1.155  0.00  0.00    -0.272 N 
ATOM     15  C   UNL d   1      15.052  11.952  -1.338  0.00  0.00     0.083 A 
ATOM     16  C   UNL d   1      14.185  11.951  -0.336  0.00  0.00     0.083 A 
ATOM     17  C   UNL d   1      15.479  12.031  -0.634  0.00  0.00     0.021 A 
ATOM     18  C   UNL d   1      14.930  12.029  -0.018  0.00  0.00     0.021 A 
ATOM     19  O   UNL d   1      12.868  11.779  -1.430  0.00  0.00    -0.266 OA
ENDBRANCH  12  13
ENDBRANCH  11  12
ENDBRANCH   1  11
TORSDOF 3
ENDMDL
