MODEL 1
REMARK VINA RESULT:      -9.6      0.000      0.000
REMARK  2 active torsions:
REMARK  status: ('A' for Active; 'I' for Inactive)
REMARK       I    between atoms: N_3  and  C_1 
REMARK    1  A    between atoms: O_4  and  C_1 
REMARK    2  A    between atoms: C_6  and  O_4 
ROOT
ATOM      1  C   UNL d   1      53.762  33.207  54.244  0.00  0.00     0.105 A 
ATOM      2  C   UNL d   1      53.566  34.005  54.290  0.00  0.00     0.030 A 
ATOM      3  C   UNL d   1      53.334  32.698  53.734  0.00  0.00     0.122 A 
ATOM      4  N   UNL d   1      54.384  32.903  54.703  0.00  0.00    -0.242 NA
ATOM      5  C   UNL d   1      52.947  34.306  53.832  0.00  0.00     0.059 A 
ATOM      6  C   UNL d   1      52.720  32.998  53.280  0.00  0.00     0.027 A 
ATOM      7  C   UNL d   1      52.519  33.797  53.322  0.00  0.00     0.013 A 
ATOM      8 CL   UNL d   1      52.746  35.111  53.875  0.00  0.00    -0.082 Cl
ATOM      9  C   UNL d   1      53.988  34.506  54.792  0.00  0.00     0.004 A 
ATOM     10  C   UNL d   1      54.805  33.403  55.205  0.00  0.00     0.099 A 
ATOM     11  C   UNL d   1      54.605  34.209  55.249  0.00  0.00     0.021 A 
ENDROOT
BRANCH   3  12
ATOM     12  O   UNL d   1      53.531  31.889  53.686  0.00  0.00    -0.257 OA
BRANCH  12  13
ATOM     13  C   UNL d   1      53.110  31.379  53.175  0.00  0.00     0.378 C 
ATOM     14  N   UNL d   1      53.034  30.584  53.347  0.00  0.00    -0.247 N 
ATOM     15  C   UNL d   1      53.377  30.276  54.032  0.00  0.00     0.112 A 
ATOM     16  C   UNL d   1      52.618  30.085  52.839  0.00  0.00     0.112 A 
ATOM     17  C   UNL d   1      53.296  29.474  54.199  0.00  0.00     0.142 A 
ATOM     18  O   UNL d   1      52.882  28.977  53.695  0.00  0.00    -0.300 OA
ATOM     19  C   UNL d   1      52.540  29.285  53.009  0.00  0.00     0.142 A 
ATOM     20  O   UNL d   1      52.764  31.692  52.480  0.00  0.00    -0.237 OA
ENDBRANCH  12  13
ENDBRANCH   3  12
TORSDOF 2
ENDMDL
MODEL 2
REMARK VINA RESULT:      -9.1      2.306      3.579
REMARK  2 active torsions:
REMARK  status: ('A' for Active; 'I' for Inactive)
REMARK       I    between atoms: N_3  and  C_1 
REMARK    1  A    between atoms: O_4  and  C_1 
REMARK    2  A    between atoms: C_6  and  O_4 
ROOT
ATOM      1  C   UNL d   1      53.130  33.243  53.978  0.00  0.00     0.105 A 
ATOM      2  C   UNL d   1      53.657  32.624  54.099  0.00  0.00     0.030 A 
ATOM      3  C   UNL d   1      52.504  33.161  53.426  0.00  0.00     0.122 A 
ATOM      4  N   UNL d   1      53.214  33.953  54.402  0.00  0.00    -0.242 NA
ATOM      5  C   UNL d   1      53.571  31.918  53.676  0.00  0.00     0.059 A 
ATOM      6  C   UNL d   1      52.420  32.460  53.007  0.00  0.00     0.027 A 
ATOM      7  C   UNL d   1      52.946  31.836  53.125  0.00  0.00     0.013 A 
ATOM      8 CL   UNL d   1      54.101  31.290  53.795  0.00  0.00    -0.082 Cl
ATOM      9  C   UNL d   1      54.273  32.705  54.642  0.00  0.00     0.004 A 
ATOM     10  C   UNL d   1      53.830  34.034  54.945  0.00  0.00     0.099 A 
ATOM     11  C   UNL d   1      54.361  33.406  55.065  0.00  0.00     0.021 A 
ENDROOT
BRANCH   3  12
ATOM     12  O   UNL d   1      51.968  33.788  53.302  0.00  0.00    -0.257 OA
BRANCH  12  13
ATOM     13  C   UNL d   1      51.557  33.858  52.578  0.00  0.00     0.378 C 
ATOM     14  N   UNL d   1      50.813  34.193  52.550  0.00  0.00    -0.247 N 
ATOM     15  C   UNL d   1      50.458  34.468  53.244  0.00  0.00     0.112 A 
ATOM     16  C   UNL d   1      50.411  34.260  51.833  0.00  0.00     0.112 A 
ATOM     17  C   UNL d   1      49.708  34.805  53.208  0.00  0.00     0.142 A 
ATOM     18  O   UNL d   1      49.308  34.871  52.496  0.00  0.00    -0.300 OA
ATOM     19  C   UNL d   1      49.662  34.597  51.802  0.00  0.00     0.142 A 
ATOM     20  O   UNL d   1      51.917  33.580  51.875  0.00  0.00    -0.237 OA
ENDBRANCH  12  13
ENDBRANCH   3  12
TORSDOF 2
ENDMDL
MODEL 3
REMARK VINA RESULT:      -8.6      2.278      3.858
REMARK  2 active torsions:
REMARK  status: ('A' for Active; 'I' for Inactive)
REMARK       I    between atoms: N_3  and  C_1 
REMARK    1  A    between atoms: O_4  and  C_1 
REMARK    2  A    between atoms: C_6  and  O_4 
ROOT
ATOM      1  C   UNL d   1      52.878  32.476  53.250  0.00  0.00     0.105 A 
ATOM      2  C   UNL d   1      53.586  32.355  53.651  0.00  0.00     0.030 A 
ATOM      3  C   UNL d   1      52.538  33.241  53.218  0.00  0.00     0.122 A 
ATOM      4  N   UNL d   1      52.497  31.840  52.875  0.00  0.00    -0.242 NA
ATOM      5  C   UNL d   1      53.964  32.989  54.023  0.00  0.00     0.059 A 
ATOM      6  C   UNL d   1      52.914  33.870  53.589  0.00  0.00     0.027 A 
ATOM      7  C   UNL d   1      53.625  33.755  53.992  0.00  0.00     0.013 A 
ATOM      8 CL   UNL d   1      54.679  32.872  54.429  0.00  0.00    -0.082 Cl
ATOM      9  C   UNL d   1      53.920  31.601  53.681  0.00  0.00     0.004 A 
ATOM     10  C   UNL d   1      52.831  31.087  52.906  0.00  0.00     0.099 A 
ATOM     11  C   UNL d   1      53.546  30.968  53.312  0.00  0.00     0.021 A 
ENDROOT
BRANCH   3  12
ATOM     12  O   UNL d   1      51.820  33.366  52.813  0.00  0.00    -0.257 OA
BRANCH  12  13
ATOM     13  C   UNL d   1      51.215  33.831  53.153  0.00  0.00     0.378 C 
ATOM     14  N   UNL d   1      50.603  34.120  52.696  0.00  0.00    -0.247 N 
ATOM     15  C   UNL d   1      50.577  33.953  51.888  0.00  0.00     0.112 A 
ATOM     16  C   UNL d   1      50.008  34.579  53.037  0.00  0.00     0.112 A 
ATOM     17  C   UNL d   1      49.956  34.248  51.434  0.00  0.00     0.142 A 
ATOM     18  O   UNL d   1      49.365  34.704  51.772  0.00  0.00    -0.300 OA
ATOM     19  C   UNL d   1      49.391  34.871  52.580  0.00  0.00     0.142 A 
ATOM     20  O   UNL d   1      51.241  33.999  53.972  0.00  0.00    -0.237 OA
ENDBRANCH  12  13
ENDBRANCH   3  12
TORSDOF 2
ENDMDL
MODEL 4
REMARK VINA RESULT:      -7.4      1.709      3.991
REMARK  2 active torsions:
REMARK  status: ('A' for Active; 'I' for Inactive)
REMARK       I    between atoms: N_3  and  C_1 
REMARK    1  A    between atoms: O_4  and  C_1 
REMARK    2  A    between atoms: C_6  and  O_4 
ROOT
ATOM      1  C   UNL d   1      53.341  30.447  54.126  0.00  0.00     0.105 A 
ATOM      2  C   UNL d   1      53.083  29.858  53.613  0.00  0.00     0.030 A 
ATOM      3  C   UNL d   1      53.412  31.237  53.857  0.00  0.00     0.122 A 
ATOM      4  N   UNL d   1      53.533  30.260  54.912  0.00  0.00    -0.242 NA
ATOM      5  C   UNL d   1      52.892  30.045  52.830  0.00  0.00     0.059 A 
ATOM      6  C   UNL d   1      53.223  31.422  53.080  0.00  0.00     0.027 A 
ATOM      7  C   UNL d   1      52.963  30.836  52.561  0.00  0.00     0.013 A 
ATOM      8 CL   UNL d   1      52.631  29.454  52.309  0.00  0.00    -0.082 Cl
ATOM      9  C   UNL d   1      53.012  29.080  53.878  0.00  0.00     0.004 A 
ATOM     10  C   UNL d   1      53.463  29.482  55.177  0.00  0.00     0.099 A 
ATOM     11  C   UNL d   1      53.201  28.890  54.656  0.00  0.00     0.021 A 
ENDROOT
BRANCH   3  12
ATOM     12  O   UNL d   1      53.674  31.835  54.376  0.00  0.00    -0.257 OA
BRANCH  12  13
ATOM     13  C   UNL d   1      53.377  32.613  54.311  0.00  0.00     0.378 C 
ATOM     14  N   UNL d   1      53.792  33.247  54.618  0.00  0.00    -0.247 N 
ATOM     15  C   UNL d   1      54.515  33.121  54.998  0.00  0.00     0.112 A 
ATOM     16  C   UNL d   1      53.494  34.013  54.552  0.00  0.00     0.112 A 
ATOM     17  C   UNL d   1      54.927  33.764  55.305  0.00  0.00     0.142 A 
ATOM     18  O   UNL d   1      54.632  34.526  55.240  0.00  0.00    -0.300 OA
ATOM     19  C   UNL d   1      53.909  34.651  54.860  0.00  0.00     0.142 A 
ATOM     20  O   UNL d   1      52.645  32.741  53.926  0.00  0.00    -0.237 OA
ENDBRANCH  12  13
ENDBRANCH   3  12
TORSDOF 2
ENDMDL
