MODEL 1
REMARK VINA RESULT:       1.2      0.000      0.000
REMARK  9 active torsions:
REMARK  status: ('A' for Active; 'I' for Inactive)
REMARK    1  A    between atoms: C_6  and  N_1 
REMARK    2  A    between atoms: C_7  and  C_2 
REMARK    3  A    between atoms: C_3  and  C_9 
REMARK    4  A    between atoms: O_5  and  C_3 
REMARK    5  A    between atoms: C_4  and  O_5 
REMARK    6  A    between atoms: C_8  and  C_7 
REMARK    7  A    between atoms: C_12  and  C_8 
REMARK    8  A    between atoms: C_10  and  C_12 
REMARK    9  A    between atoms: O_25  and  C_23 
ROOT
ATOM      1  C   UNL d   1     -41.405-122.057 -51.171  0.00  0.00     0.064 A 
ATOM      2  C   UNL d   1     -41.613-121.996 -51.967  0.00  0.00     0.106 A 
ATOM      3  C   UNL d   1     -41.242-121.370 -50.734  0.00  0.00     0.029 A 
ATOM      4  C   UNL d   1     -41.658-121.248 -52.326  0.00  0.00     0.027 A 
ATOM      5  C   UNL d   1     -41.287-120.631 -51.092  0.00  0.00     0.094 A 
ATOM      6  C   UNL d   1     -41.495-120.570 -51.888  0.00  0.00     0.026 A 
ENDROOT
BRANCH   2   7
ATOM      7  O   UNL d   1     -41.776-122.674 -52.408  0.00  0.00    -0.273 OA
BRANCH   7   8
ATOM      8  C   UNL d   1     -42.260-122.622 -53.074  0.00  0.00     0.300 C 
ATOM      9  O   UNL d   1     -43.043-122.387 -53.001  0.00  0.00    -0.259 OA
BRANCH   8  10
ATOM     10  C   UNL d   1     -41.952-122.809 -53.814  0.00  0.00     0.065 A 
ATOM     11  C   UNL d   1     -42.078-122.301 -54.447  0.00  0.00     0.029 A 
ATOM     12  C   UNL d   1     -41.774-122.480 -55.187  0.00  0.00     0.127 A 
ATOM     13  C   UNL d   1     -41.337-123.176 -55.302  0.00  0.00     0.024 A 
ATOM     14  C   UNL d   1     -41.214-123.684 -54.663  0.00  0.00     0.002 A 
ATOM     15  C   UNL d   1     -41.521-123.502 -53.916  0.00  0.00     0.005 A 
BRANCH  12  16
ATOM     16  N   UNL d   1     -41.899-121.968 -55.831  0.00  0.00    -0.114 N 
ATOM     17  O   UNL d   1     -41.323-121.426 -56.046  0.00  0.00    -0.532 OA
ATOM     18  O   UNL d   1     -42.612-122.017 -56.249  0.00  0.00    -0.532 OA
ENDBRANCH  12  16
ENDBRANCH   8  10
ENDBRANCH   7   8
ENDBRANCH   2   7
BRANCH   1  19
ATOM     19  C   UNL d   1     -41.359-122.801 -50.812  0.00  0.00     0.198 C 
ATOM     20  O   UNL d   1     -41.368-123.482 -51.278  0.00  0.00    -0.286 OA
BRANCH  19  21
ATOM     21  C   UNL d   1     -41.306-122.862 -49.994  0.00  0.00     0.043 C 
BRANCH  21  22
ATOM     22  C   UNL d   1     -41.489-123.573 -49.622  0.00  0.00     0.010 C 
BRANCH  22  23
ATOM     23  C   UNL d   1     -41.712-123.577 -48.830  0.00  0.00     0.030 A 
ATOM     24  S   UNL d   1     -41.245-123.796 -48.187  0.00  0.00    -0.086 SA
ATOM     25  C   UNL d   1     -41.689-123.716 -47.497  0.00  0.00     0.035 A 
ATOM     26  C   UNL d   1     -42.437-123.445 -47.708  0.00  0.00     0.007 A 
ATOM     27  C   UNL d   1     -42.454-123.359 -48.530  0.00  0.00     0.007 A 
ENDBRANCH  22  23
ENDBRANCH  21  22
ENDBRANCH  19  21
ENDBRANCH   1  19
BRANCH   5  28
ATOM     28  O   UNL d   1     -41.125-119.952 -50.655  0.00  0.00    -0.328 OA
ATOM     29  C   UNL d   1     -41.133-119.216 -51.023  0.00  0.00     0.181 C 
ENDBRANCH   5  28
TORSDOF 9
ENDMDL
