MODEL 1
REMARK VINA RESULT:      -5.9      0.000      0.000
REMARK  9 active torsions:
REMARK  status: ('A' for Active; 'I' for Inactive)
REMARK    1  A    between atoms: C_5  and  C_1 
REMARK    2  A    between atoms: N_11  and  C_2 
REMARK    3  A    between atoms: C_6  and  C_5 
REMARK    4  A    between atoms: C_7  and  C_5 
REMARK       I    between atoms: N_13  and  C_6 
REMARK    5  A    between atoms: C_16  and  N_11 
REMARK    6  A    between atoms: C_17  and  N_11 
REMARK    7  A    between atoms: C_14  and  N_13 
REMARK    8  A    between atoms: C_20  and  C_14 
REMARK    9  A    between atoms: C_15  and  C_20 
ROOT
ATOM      1  C   UNL d   1     -48.160  13.766  22.635  0.00  0.00     0.117 A 
ATOM      2  C   UNL d   1     -48.636  13.260  23.080  0.00  0.00     0.145 A 
ATOM      3  N   UNL d   1     -48.376  14.554  22.535  0.00  0.00    -0.241 NA
ATOM      4  N   UNL d   1     -49.329  13.543  23.425  0.00  0.00    -0.230 NA
ATOM      5  C   UNL d   1     -49.544  14.331  23.324  0.00  0.00     0.100 A 
ATOM      6  C   UNL d   1     -49.067  14.837  22.879  0.00  0.00     0.099 A 
ATOM      7  C   UNL d   1     -50.237  14.614  23.668  0.00  0.00     0.021 A 
ATOM      8  C   UNL d   1     -49.284  15.625  22.779  0.00  0.00     0.021 A 
ATOM      9  C   UNL d   1     -50.455  15.405  23.568  0.00  0.00     0.002 A 
ATOM     10  C   UNL d   1     -49.978  15.911  23.123  0.00  0.00     0.002 A 
ENDROOT
BRANCH   1  11
ATOM     11  C   UNL d   1     -47.509  13.332  22.362  0.00  0.00     0.099 C 
BRANCH  11  12
ATOM     12  C   UNL d   1     -46.706  13.353  22.555  0.00  0.00     0.282 C 
ATOM     13  O   UNL d   1     -46.455  13.669  23.291  0.00  0.00    -0.265 OA
ATOM     14  N   UNL d   1     -46.144  13.061  22.019  0.00  0.00    -0.206 NA
BRANCH  14  15
ATOM     15  C   UNL d   1     -45.329  13.081  22.212  0.00  0.00     0.102 C 
BRANCH  15  16
ATOM     16  C   UNL d   1     -44.744  12.531  22.051  0.00  0.00     0.021 C 
BRANCH  16  17
ATOM     17  C   UNL d   1     -44.011  12.771  21.764  0.00  0.00     0.002 A 
ATOM     18  C   UNL d   1     -43.380  12.240  21.780  0.00  0.00     0.000 A 
ATOM     19  C   UNL d   1     -42.648  12.470  21.497  0.00  0.00     0.000 A 
ATOM     20  C   UNL d   1     -42.541  13.234  21.195  0.00  0.00     0.000 A 
ATOM     21  C   UNL d   1     -43.178  13.760  21.183  0.00  0.00     0.000 A 
ATOM     22  C   UNL d   1     -43.909  13.524  21.468  0.00  0.00     0.000 A 
ENDBRANCH  16  17
ENDBRANCH  15  16
ENDBRANCH  14  15
ENDBRANCH  11  12
BRANCH  11  23
ATOM     23  C   UNL d   1     -47.661  12.760  21.782  0.00  0.00     0.129 C 
ATOM     24  N   UNL d   1     -47.769  12.775  20.964  0.00  0.00    -0.146 N 
ENDBRANCH  11  23
ENDBRANCH   1  11
BRANCH   2  25
ATOM     25  N   UNL d   1     -48.282  12.513  23.083  0.00  0.00    -0.192 NA
BRANCH  25  26
ATOM     26  C   UNL d   1     -48.381  11.973  23.698  0.00  0.00     0.057 C 
ATOM     27  C   UNL d   1     -48.861  11.229  23.048  0.00  0.00     0.014 C 
ENDBRANCH  25  26
BRANCH  25  28
ATOM     28  C   UNL d   1     -48.090  11.902  23.252  0.00  0.00     0.057 C 
ATOM     29  C   UNL d   1     -48.581  11.116  23.691  0.00  0.00     0.014 C 
ENDBRANCH  25  28
ENDBRANCH   2  25
TORSDOF 9
ENDMDL
MODEL 2
REMARK VINA RESULT:      -5.5      4.453      8.242
REMARK  9 active torsions:
REMARK  status: ('A' for Active; 'I' for Inactive)
REMARK    1  A    between atoms: C_5  and  C_1 
REMARK    2  A    between atoms: N_11  and  C_2 
REMARK    3  A    between atoms: C_6  and  C_5 
REMARK    4  A    between atoms: C_7  and  C_5 
REMARK       I    between atoms: N_13  and  C_6 
REMARK    5  A    between atoms: C_16  and  N_11 
REMARK    6  A    between atoms: C_17  and  N_11 
REMARK    7  A    between atoms: C_14  and  N_13 
REMARK    8  A    between atoms: C_20  and  C_14 
REMARK    9  A    between atoms: C_15  and  C_20 
ROOT
ATOM      1  C   UNL d   1     -40.340  14.701  19.761  0.00  0.00     0.117 A 
ATOM      2  C   UNL d   1     -39.566  14.429  19.670  0.00  0.00     0.145 A 
ATOM      3  N   UNL d   1     -40.775  14.933  19.102  0.00  0.00    -0.241 NA
ATOM      4  N   UNL d   1     -39.228  14.390  18.919  0.00  0.00    -0.230 NA
ATOM      5  C   UNL d   1     -39.665  14.623  18.261  0.00  0.00     0.100 A 
ATOM      6  C   UNL d   1     -40.438  14.894  18.353  0.00  0.00     0.099 A 
ATOM      7  C   UNL d   1     -39.327  14.584  17.511  0.00  0.00     0.021 A 
ATOM      8  C   UNL d   1     -40.874  15.127  17.694  0.00  0.00     0.021 A 
ATOM      9  C   UNL d   1     -39.763  14.817  16.849  0.00  0.00     0.002 A 
ATOM     10  C   UNL d   1     -40.537  15.088  16.940  0.00  0.00     0.002 A 
ENDROOT
BRANCH   1  11
ATOM     11  C   UNL d   1     -40.527  14.679  20.567  0.00  0.00     0.099 C 
BRANCH  11  12
ATOM     12  C   UNL d   1     -41.011  14.178  21.012  0.00  0.00     0.282 C 
ATOM     13  O   UNL d   1     -40.808  13.986  21.804  0.00  0.00    -0.265 OA
ATOM     14  N   UNL d   1     -41.701  13.864  20.676  0.00  0.00    -0.206 NA
BRANCH  14  15
ATOM     15  C   UNL d   1     -42.194  13.356  21.124  0.00  0.00     0.102 C 
BRANCH  15  16
ATOM     16  C   UNL d   1     -42.846  12.922  20.886  0.00  0.00     0.021 C 
BRANCH  16  17
ATOM     17  C   UNL d   1     -43.427  12.708  21.428  0.00  0.00     0.002 A 
ATOM     18  C   UNL d   1     -44.137  13.130  21.442  0.00  0.00     0.000 A 
ATOM     19  C   UNL d   1     -44.721  12.924  21.977  0.00  0.00     0.000 A 
ATOM     20  C   UNL d   1     -44.600  12.295  22.502  0.00  0.00     0.000 A 
ATOM     21  C   UNL d   1     -43.887  11.878  22.481  0.00  0.00     0.000 A 
ATOM     22  C   UNL d   1     -43.305  12.089  21.943  0.00  0.00     0.000 A 
ENDBRANCH  16  17
ENDBRANCH  15  16
ENDBRANCH  14  15
ENDBRANCH  11  12
BRANCH  11  23
ATOM     23  C   UNL d   1     -40.178  15.258  21.046  0.00  0.00     0.129 C 
ATOM     24  N   UNL d   1     -40.453  15.922  21.451  0.00  0.00    -0.146 N 
ENDBRANCH  11  23
ENDBRANCH   1  11
BRANCH   2  25
ATOM     25  N   UNL d   1     -39.272  14.239  20.419  0.00  0.00    -0.192 NA
BRANCH  25  26
ATOM     26  C   UNL d   1     -38.469  14.249  20.601  0.00  0.00     0.057 C 
ATOM     27  C   UNL d   1     -38.488  13.231  21.014  0.00  0.00     0.014 C 
ENDBRANCH  25  26
BRANCH  25  28
ATOM     28  C   UNL d   1     -38.871  14.123  20.934  0.00  0.00     0.057 C 
ATOM     29  C   UNL d   1     -37.964  13.650  21.014  0.00  0.00     0.014 C 
ENDBRANCH  25  28
ENDBRANCH   2  25
TORSDOF 9
ENDMDL
MODEL 3
REMARK VINA RESULT:      -4.9      1.733      2.698
REMARK  9 active torsions:
REMARK  status: ('A' for Active; 'I' for Inactive)
REMARK    1  A    between atoms: C_5  and  C_1 
REMARK    2  A    between atoms: N_11  and  C_2 
REMARK    3  A    between atoms: C_6  and  C_5 
REMARK    4  A    between atoms: C_7  and  C_5 
REMARK       I    between atoms: N_13  and  C_6 
REMARK    5  A    between atoms: C_16  and  N_11 
REMARK    6  A    between atoms: C_17  and  N_11 
REMARK    7  A    between atoms: C_14  and  N_13 
REMARK    8  A    between atoms: C_20  and  C_14 
REMARK    9  A    between atoms: C_15  and  C_20 
ROOT
ATOM      1  C   UNL d   1     -48.190  12.818  22.881  0.00  0.00     0.117 A 
ATOM      2  C   UNL d   1     -48.393  13.617  22.853  0.00  0.00     0.145 A 
ATOM      3  N   UNL d   1     -48.753  12.257  23.097  0.00  0.00    -0.241 NA
ATOM      4  N   UNL d   1     -49.159  13.855  23.041  0.00  0.00    -0.230 NA
ATOM      5  C   UNL d   1     -49.721  13.293  23.256  0.00  0.00     0.100 A 
ATOM      6  C   UNL d   1     -49.518  12.494  23.284  0.00  0.00     0.099 A 
ATOM      7  C   UNL d   1     -50.487  13.532  23.444  0.00  0.00     0.021 A 
ATOM      8  C   UNL d   1     -50.081  11.933  23.500  0.00  0.00     0.021 A 
ATOM      9  C   UNL d   1     -51.053  12.969  23.660  0.00  0.00     0.002 A 
ATOM     10  C   UNL d   1     -50.850  12.170  23.688  0.00  0.00     0.002 A 
ENDROOT
BRANCH   1  11
ATOM     11  C   UNL d   1     -47.393  12.746  22.667  0.00  0.00     0.099 C 
BRANCH  11  12
ATOM     12  C   UNL d   1     -46.725  12.495  23.084  0.00  0.00     0.282 C 
ATOM     13  O   UNL d   1     -46.230  13.054  23.467  0.00  0.00    -0.265 OA
ATOM     14  N   UNL d   1     -46.544  11.687  23.126  0.00  0.00    -0.206 NA
BRANCH  14  15
ATOM     15  C   UNL d   1     -45.868  11.429  23.549  0.00  0.00     0.102 C 
BRANCH  15  16
ATOM     16  C   UNL d   1     -45.606  10.667  23.695  0.00  0.00     0.021 C 
BRANCH  16  17
ATOM     17  C   UNL d   1     -44.823  10.459  23.556  0.00  0.00     0.002 A 
ATOM     18  C   UNL d   1     -44.299  11.032  23.277  0.00  0.00     0.000 A 
ATOM     19  C   UNL d   1     -43.517  10.834  23.136  0.00  0.00     0.000 A 
ATOM     20  C   UNL d   1     -43.253  10.062  23.273  0.00  0.00     0.000 A 
ATOM     21  C   UNL d   1     -43.785   9.493  23.553  0.00  0.00     0.000 A 
ATOM     22  C   UNL d   1     -44.566   9.698  23.692  0.00  0.00     0.000 A 
ENDBRANCH  16  17
ENDBRANCH  15  16
ENDBRANCH  14  15
ENDBRANCH  11  12
BRANCH  11  23
ATOM     23  C   UNL d   1     -47.196  12.960  21.891  0.00  0.00     0.129 C 
ATOM     24  N   UNL d   1     -47.089  12.549  21.184  0.00  0.00    -0.146 N 
ENDBRANCH  11  23
ENDBRANCH   1  11
BRANCH   2  25
ATOM     25  N   UNL d   1     -47.722  14.042  22.622  0.00  0.00    -0.192 NA
BRANCH  25  26
ATOM     26  C   UNL d   1     -47.763  14.787  22.272  0.00  0.00     0.057 C 
ATOM     27  C   UNL d   1     -47.161  15.257  23.062  0.00  0.00     0.014 C 
ENDBRANCH  25  26
BRANCH  25  28
ATOM     28  C   UNL d   1     -47.317  14.509  22.383  0.00  0.00     0.057 C 
ATOM     29  C   UNL d   1     -47.166  15.492  22.636  0.00  0.00     0.014 C 
ENDBRANCH  25  28
ENDBRANCH   2  25
TORSDOF 9
ENDMDL
MODEL 4
REMARK VINA RESULT:      -4.5      8.141      9.440
REMARK  9 active torsions:
REMARK  status: ('A' for Active; 'I' for Inactive)
REMARK    1  A    between atoms: C_5  and  C_1 
REMARK    2  A    between atoms: N_11  and  C_2 
REMARK    3  A    between atoms: C_6  and  C_5 
REMARK    4  A    between atoms: C_7  and  C_5 
REMARK       I    between atoms: N_13  and  C_6 
REMARK    5  A    between atoms: C_16  and  N_11 
REMARK    6  A    between atoms: C_17  and  N_11 
REMARK    7  A    between atoms: C_14  and  N_13 
REMARK    8  A    between atoms: C_20  and  C_14 
REMARK    9  A    between atoms: C_15  and  C_20 
ROOT
ATOM      1  C   UNL d   1     -39.812  15.124  17.762  0.00  0.00     0.117 A 
ATOM      2  C   UNL d   1     -39.648  14.785  17.028  0.00  0.00     0.145 A 
ATOM      3  N   UNL d   1     -40.537  15.492  17.893  0.00  0.00    -0.241 NA
ATOM      4  N   UNL d   1     -40.208  14.814  16.425  0.00  0.00    -0.230 NA
ATOM      5  C   UNL d   1     -40.932  15.182  16.557  0.00  0.00     0.100 A 
ATOM      6  C   UNL d   1     -41.097  15.521  17.291  0.00  0.00     0.099 A 
ATOM      7  C   UNL d   1     -41.493  15.211  15.954  0.00  0.00     0.021 A 
ATOM      8  C   UNL d   1     -41.822  15.890  17.421  0.00  0.00     0.021 A 
ATOM      9  C   UNL d   1     -42.221  15.580  16.084  0.00  0.00     0.002 A 
ATOM     10  C   UNL d   1     -42.385  15.920  16.818  0.00  0.00     0.002 A 
ENDROOT
BRANCH   1  11
ATOM     11  C   UNL d   1     -39.154  15.011  18.252  0.00  0.00     0.099 C 
BRANCH  11  12
ATOM     12  C   UNL d   1     -39.030  14.535  18.916  0.00  0.00     0.282 C 
ATOM     13  O   UNL d   1     -38.466  13.915  18.894  0.00  0.00    -0.265 OA
ATOM     14  N   UNL d   1     -39.466  14.671  19.608  0.00  0.00    -0.206 NA
BRANCH  14  15
ATOM     15  C   UNL d   1     -39.344  14.191  20.284  0.00  0.00     0.102 C 
BRANCH  15  16
ATOM     16  C   UNL d   1     -39.724  14.206  21.009  0.00  0.00     0.021 C 
BRANCH  16  17
ATOM     17  C   UNL d   1     -39.293  14.206  21.709  0.00  0.00     0.002 A 
ATOM     18  C   UNL d   1     -38.948  14.909  21.968  0.00  0.00     0.000 A 
ATOM     19  C   UNL d   1     -38.516  14.918  22.664  0.00  0.00     0.000 A 
ATOM     20  C   UNL d   1     -38.427  14.223  23.106  0.00  0.00     0.000 A 
ATOM     21  C   UNL d   1     -38.777  13.523  22.839  0.00  0.00     0.000 A 
ATOM     22  C   UNL d   1     -39.207  13.520  22.142  0.00  0.00     0.000 A 
ENDBRANCH  16  17
ENDBRANCH  15  16
ENDBRANCH  14  15
ENDBRANCH  11  12
BRANCH  11  23
ATOM     23  C   UNL d   1     -38.473  15.444  18.065  0.00  0.00     0.129 C 
ATOM     24  N   UNL d   1     -37.945  15.911  18.495  0.00  0.00    -0.146 N 
ENDBRANCH  11  23
ENDBRANCH   1  11
BRANCH   2  25
ATOM     25  N   UNL d   1     -38.887  14.461  17.062  0.00  0.00    -0.192 NA
BRANCH  25  26
ATOM     26  C   UNL d   1     -38.433  14.312  16.390  0.00  0.00     0.057 C 
ATOM     27  C   UNL d   1     -38.134  13.315  16.740  0.00  0.00     0.014 C 
ENDBRANCH  25  26
BRANCH  25  28
ATOM     28  C   UNL d   1     -38.292  14.219  16.900  0.00  0.00     0.057 C 
ATOM     29  C   UNL d   1     -37.954  13.698  16.083  0.00  0.00     0.014 C 
ENDBRANCH  25  28
ENDBRANCH   2  25
TORSDOF 9
ENDMDL
MODEL 5
REMARK VINA RESULT:      -3.6      1.624      2.099
REMARK  9 active torsions:
REMARK  status: ('A' for Active; 'I' for Inactive)
REMARK    1  A    between atoms: C_5  and  C_1 
REMARK    2  A    between atoms: N_11  and  C_2 
REMARK    3  A    between atoms: C_6  and  C_5 
REMARK    4  A    between atoms: C_7  and  C_5 
REMARK       I    between atoms: N_13  and  C_6 
REMARK    5  A    between atoms: C_16  and  N_11 
REMARK    6  A    between atoms: C_17  and  N_11 
REMARK    7  A    between atoms: C_14  and  N_13 
REMARK    8  A    between atoms: C_20  and  C_14 
REMARK    9  A    between atoms: C_15  and  C_20 
ROOT
ATOM      1  C   UNL d   1     -48.440  12.999  22.645  0.00  0.00     0.117 A 
ATOM      2  C   UNL d   1     -49.152  13.084  23.053  0.00  0.00     0.145 A 
ATOM      3  N   UNL d   1     -48.045  13.664  22.362  0.00  0.00    -0.241 NA
ATOM      4  N   UNL d   1     -49.469  13.834  23.179  0.00  0.00    -0.230 NA
ATOM      5  C   UNL d   1     -49.073  14.498  22.896  0.00  0.00     0.100 A 
ATOM      6  C   UNL d   1     -48.361  14.413  22.488  0.00  0.00     0.099 A 
ATOM      7  C   UNL d   1     -49.390  15.248  23.022  0.00  0.00     0.021 A 
ATOM      8  C   UNL d   1     -47.966  15.078  22.205  0.00  0.00     0.021 A 
ATOM      9  C   UNL d   1     -48.994  15.916  22.739  0.00  0.00     0.002 A 
ATOM     10  C   UNL d   1     -48.282  15.831  22.330  0.00  0.00     0.002 A 
ENDROOT
BRANCH   1  11
ATOM     11  C   UNL d   1     -48.261  12.191  22.604  0.00  0.00     0.099 C 
BRANCH  11  12
ATOM     12  C   UNL d   1     -47.698  11.726  22.990  0.00  0.00     0.282 C 
ATOM     13  O   UNL d   1     -47.938  11.131  23.531  0.00  0.00    -0.265 OA
ATOM     14  N   UNL d   1     -46.891  11.848  22.844  0.00  0.00    -0.206 NA
BRANCH  14  15
ATOM     15  C   UNL d   1     -46.317  11.378  23.234  0.00  0.00     0.102 C 
BRANCH  15  16
ATOM     16  C   UNL d   1     -45.579  11.590  23.519  0.00  0.00     0.021 C 
BRANCH  16  17
ATOM     17  C   UNL d   1     -44.931  11.095  23.412  0.00  0.00     0.002 A 
ATOM     18  C   UNL d   1     -44.265  11.385  23.020  0.00  0.00     0.000 A 
ATOM     19  C   UNL d   1     -43.615  10.899  22.909  0.00  0.00     0.000 A 
ATOM     20  C   UNL d   1     -43.626  10.120  23.189  0.00  0.00     0.000 A 
ATOM     21  C   UNL d   1     -44.297   9.838  23.581  0.00  0.00     0.000 A 
ATOM     22  C   UNL d   1     -44.945  10.328  23.689  0.00  0.00     0.000 A 
ENDBRANCH  16  17
ENDBRANCH  15  16
ENDBRANCH  14  15
ENDBRANCH  11  12
BRANCH  11  23
ATOM     23  C   UNL d   1     -48.717  11.735  22.084  0.00  0.00     0.129 C 
ATOM     24  N   UNL d   1     -48.775  11.672  21.263  0.00  0.00    -0.146 N 
ENDBRANCH  11  23
ENDBRANCH   1  11
BRANCH   2  25
ATOM     25  N   UNL d   1     -49.415  12.329  23.266  0.00  0.00    -0.192 NA
BRANCH  25  26
ATOM     26  C   UNL d   1     -50.106  12.201  23.696  0.00  0.00     0.057 C 
ATOM     27  C   UNL d   1     -50.567  11.609  22.893  0.00  0.00     0.014 C 
ENDBRANCH  25  26
BRANCH  25  28
ATOM     28  C   UNL d   1     -49.767  11.826  23.515  0.00  0.00     0.057 C 
ATOM     29  C   UNL d   1     -50.747  11.542  23.404  0.00  0.00     0.014 C 
ENDBRANCH  25  28
ENDBRANCH   2  25
TORSDOF 9
ENDMDL
