MODEL 1
REMARK VINA RESULT:      -0.2      0.000      0.000
REMARK  7 active torsions:
REMARK  status: ('A' for Active; 'I' for Inactive)
REMARK    1  A    between atoms: N_3  and  S_1 
REMARK    2  A    between atoms: C_6  and  S_1 
REMARK    3  A    between atoms: N_2  and  C_5 
REMARK    4  A    between atoms: C_4  and  N_3 
REMARK    5  A    between atoms: C_5  and  C_4 
REMARK    6  A    between atoms: C_10  and  C_5 
REMARK    7  A    between atoms: O_26  and  C_20 
ROOT
ATOM      1  C   UNL d   1      57.803   0.222  31.397  0.00  0.00     0.084 C 
ENDROOT
BRANCH   1   2
ATOM      2  N   UNL d   1      58.530   0.337  31.770  0.00  0.00    -0.300 N 
ATOM      3  C   UNL d   1      59.186   0.535  31.326  0.00  0.00     0.100 A 
ATOM      4  C   UNL d   1      59.913   0.650  31.699  0.00  0.00     0.100 A 
ATOM      5  N   UNL d   1      59.974   0.564  32.517  0.00  0.00    -0.299 N 
ATOM      6  C   UNL d   1      59.308   0.364  32.962  0.00  0.00     0.100 A 
ATOM      7  C   UNL d   1      60.705   0.680  32.890  0.00  0.00     0.100 C 
ATOM      8  C   UNL d   1      58.591   0.251  32.588  0.00  0.00     0.100 A 
ENDBRANCH   1   2
BRANCH   1   9
ATOM      9  C   UNL d   1      57.749   0.265  30.575  0.00  0.00     0.130 C 
BRANCH   9  10
ATOM     10  N   UNL d   1      58.187  -0.252  30.105  0.00  0.00    -0.155 NA
BRANCH  10  11
ATOM     11  S   UNL d   1      58.150  -0.194  29.282  0.00  0.00     0.285 S 
ATOM     12  O   UNL d   1      57.809   0.556  29.354  0.00  0.00    -0.198 OA
ATOM     13  O   UNL d   1      58.113  -0.136  28.460  0.00  0.00    -0.198 OA
BRANCH  11  14
ATOM     14  C   UNL d   1      58.496  -0.953  29.220  0.00  0.00     0.105 A 
ATOM     15  C   UNL d   1      59.260  -1.032  28.953  0.00  0.00     0.015 A 
ATOM     16  C   UNL d   1      59.603  -1.789  28.892  0.00  0.00     0.025 A 
ATOM     17  C   UNL d   1      59.164  -2.453  29.103  0.00  0.00     0.094 A 
ATOM     18  C   UNL d   1      58.382  -2.362  29.376  0.00  0.00     0.025 A 
ATOM     19  C   UNL d   1      58.057  -1.618  29.432  0.00  0.00     0.015 A 
BRANCH  17  20
ATOM     20  O   UNL d   1      59.498  -3.215  29.046  0.00  0.00    -0.328 OA
ATOM     21  C   UNL d   1      60.283  -3.310  28.815  0.00  0.00     0.181 C 
ENDBRANCH  17  20
ENDBRANCH  11  14
ENDBRANCH  10  11
ENDBRANCH   9  10
ENDBRANCH   1   9
BRANCH   1  22
ATOM     22  C   UNL d   1      57.122   0.062  31.852  0.00  0.00     0.018 A 
ATOM     23  C   UNL d   1      56.939  -0.715  32.060  0.00  0.00     0.004 A 
ATOM     24  C   UNL d   1      56.267  -0.873  32.509  0.00  0.00     0.030 A 
ATOM     25  C   UNL d   1      55.777  -0.255  32.751  0.00  0.00     0.140 A 
ATOM     26  C   UNL d   1      55.960   0.523  32.542  0.00  0.00     0.030 A 
ATOM     27  F   UNL d   1      55.104  -0.413  33.200  0.00  0.00    -0.204 F 
ATOM     28  C   UNL d   1      56.633   0.681  32.093  0.00  0.00     0.004 A 
ENDBRANCH   1  22
TORSDOF 7
ENDMDL
MODEL 2
REMARK VINA RESULT:      -0.1      2.143      4.505
REMARK  7 active torsions:
REMARK  status: ('A' for Active; 'I' for Inactive)
REMARK    1  A    between atoms: N_3  and  S_1 
REMARK    2  A    between atoms: C_6  and  S_1 
REMARK    3  A    between atoms: N_2  and  C_5 
REMARK    4  A    between atoms: C_4  and  N_3 
REMARK    5  A    between atoms: C_5  and  C_4 
REMARK    6  A    between atoms: C_10  and  C_5 
REMARK    7  A    between atoms: O_26  and  C_20 
ROOT
ATOM      1  C   UNL d   1      58.452  -1.272  29.474  0.00  0.00     0.084 C 
ENDROOT
BRANCH   1   2
ATOM      2  N   UNL d   1      58.503  -2.079  29.306  0.00  0.00    -0.300 N 
ATOM      3  C   UNL d   1      59.111  -2.521  29.625  0.00  0.00     0.100 A 
ATOM      4  C   UNL d   1      59.162  -3.328  29.456  0.00  0.00     0.100 A 
ATOM      5  N   UNL d   1      58.600  -3.683  28.967  0.00  0.00    -0.299 N 
ATOM      6  C   UNL d   1      57.988  -3.231  28.648  0.00  0.00     0.100 A 
ATOM      7  C   UNL d   1      58.653  -4.492  28.799  0.00  0.00     0.100 C 
ATOM      8  C   UNL d   1      57.941  -2.434  28.817  0.00  0.00     0.100 A 
ENDBRANCH   1   2
BRANCH   1   9
ATOM      9  C   UNL d   1      57.738  -0.948  29.728  0.00  0.00     0.130 C 
BRANCH   9  10
ATOM     10  N   UNL d   1      57.680  -0.612  30.480  0.00  0.00    -0.155 NA
BRANCH  10  11
ATOM     11  S   UNL d   1      57.178   0.030  30.608  0.00  0.00     0.285 S 
ATOM     12  O   UNL d   1      57.327   0.296  29.839  0.00  0.00    -0.198 OA
ATOM     13  O   UNL d   1      56.677   0.672  30.736  0.00  0.00    -0.198 OA
BRANCH  11  14
ATOM     14  C   UNL d   1      57.034  -0.247  31.385  0.00  0.00     0.105 A 
ATOM     15  C   UNL d   1      56.648  -0.953  31.500  0.00  0.00     0.015 A 
ATOM     16  C   UNL d   1      56.506  -1.227  32.274  0.00  0.00     0.025 A 
ATOM     17  C   UNL d   1      56.757  -0.779  32.917  0.00  0.00     0.094 A 
ATOM     18  C   UNL d   1      57.152  -0.056  32.789  0.00  0.00     0.025 A 
ATOM     19  C   UNL d   1      57.286   0.202  32.028  0.00  0.00     0.015 A 
BRANCH  17  20
ATOM     20  O   UNL d   1      56.620  -1.044  33.696  0.00  0.00    -0.328 OA
ATOM     21  C   UNL d   1      56.006  -0.724  34.143  0.00  0.00     0.181 C 
ENDBRANCH  17  20
ENDBRANCH  11  14
ENDBRANCH  10  11
ENDBRANCH   9  10
ENDBRANCH   1   9
BRANCH   1  22
ATOM     22  C   UNL d   1      59.124  -0.786  29.388  0.00  0.00     0.018 A 
ATOM     23  C   UNL d   1      59.715  -0.793  29.962  0.00  0.00     0.004 A 
ATOM     24  C   UNL d   1      60.378  -0.312  29.877  0.00  0.00     0.030 A 
ATOM     25  C   UNL d   1      60.452   0.177  29.217  0.00  0.00     0.140 A 
ATOM     26  C   UNL d   1      59.859   0.184  28.642  0.00  0.00     0.030 A 
ATOM     27  F   UNL d   1      61.115   0.658  29.131  0.00  0.00    -0.204 F 
ATOM     28  C   UNL d   1      59.196  -0.297  28.727  0.00  0.00     0.004 A 
ENDBRANCH   1  22
TORSDOF 7
ENDMDL
MODEL 3
REMARK VINA RESULT:       0.9      1.307      2.620
REMARK  7 active torsions:
REMARK  status: ('A' for Active; 'I' for Inactive)
REMARK    1  A    between atoms: N_3  and  S_1 
REMARK    2  A    between atoms: C_6  and  S_1 
REMARK    3  A    between atoms: N_2  and  C_5 
REMARK    4  A    between atoms: C_4  and  N_3 
REMARK    5  A    between atoms: C_5  and  C_4 
REMARK    6  A    between atoms: C_10  and  C_5 
REMARK    7  A    between atoms: O_26  and  C_20 
ROOT
ATOM      1  C   UNL d   1      57.907   0.366  31.411  0.00  0.00     0.084 C 
ENDROOT
BRANCH   1   2
ATOM      2  N   UNL d   1      57.219   0.183  31.828  0.00  0.00    -0.300 N 
ATOM      3  C   UNL d   1      56.563   0.664  31.757  0.00  0.00     0.100 A 
ATOM      4  C   UNL d   1      55.875   0.481  32.174  0.00  0.00     0.100 A 
ATOM      5  N   UNL d   1      55.852  -0.184  32.661  0.00  0.00    -0.299 N 
ATOM      6  C   UNL d   1      56.518  -0.667  32.730  0.00  0.00     0.100 A 
ATOM      7  C   UNL d   1      55.160  -0.366  33.079  0.00  0.00     0.100 C 
ATOM      8  C   UNL d   1      57.197  -0.482  32.315  0.00  0.00     0.100 A 
ENDBRANCH   1   2
BRANCH   1   9
ATOM      9  C   UNL d   1      57.878   0.478  30.594  0.00  0.00     0.130 C 
BRANCH   9  10
ATOM     10  N   UNL d   1      58.221  -0.076  30.088  0.00  0.00    -0.155 NA
BRANCH  10  11
ATOM     11  S   UNL d   1      58.097  -0.025  29.274  0.00  0.00     0.285 S 
ATOM     12  O   UNL d   1      57.676   0.678  29.386  0.00  0.00    -0.198 OA
ATOM     13  O   UNL d   1      57.972   0.027  28.460  0.00  0.00    -0.198 OA
BRANCH  11  14
ATOM     14  C   UNL d   1      58.524  -0.737  29.171  0.00  0.00     0.105 A 
ATOM     15  C   UNL d   1      58.129  -1.446  29.122  0.00  0.00     0.015 A 
ATOM     16  C   UNL d   1      58.557  -2.153  29.019  0.00  0.00     0.025 A 
ATOM     17  C   UNL d   1      59.379  -2.129  28.968  0.00  0.00     0.094 A 
ATOM     18  C   UNL d   1      59.774  -1.397  29.020  0.00  0.00     0.025 A 
ATOM     19  C   UNL d   1      59.347  -0.713  29.120  0.00  0.00     0.015 A 
BRANCH  17  20
ATOM     20  O   UNL d   1      59.816  -2.831  28.866  0.00  0.00    -0.328 OA
ATOM     21  C   UNL d   1      59.431  -3.557  28.800  0.00  0.00     0.181 C 
ENDBRANCH  17  20
ENDBRANCH  11  14
ENDBRANCH  10  11
ENDBRANCH   9  10
ENDBRANCH   1   9
BRANCH   1  22
ATOM     22  C   UNL d   1      58.633   0.436  31.815  0.00  0.00     0.018 A 
ATOM     23  C   UNL d   1      59.331   0.550  31.392  0.00  0.00     0.004 A 
ATOM     24  C   UNL d   1      60.049   0.620  31.791  0.00  0.00     0.030 A 
ATOM     25  C   UNL d   1      60.068   0.576  32.615  0.00  0.00     0.140 A 
ATOM     26  C   UNL d   1      59.369   0.462  33.039  0.00  0.00     0.030 A 
ATOM     27  F   UNL d   1      60.786   0.646  33.015  0.00  0.00    -0.204 F 
ATOM     28  C   UNL d   1      58.652   0.392  32.639  0.00  0.00     0.004 A 
ENDBRANCH   1  22
TORSDOF 7
ENDMDL
MODEL 4
REMARK VINA RESULT:       2.3      1.974      4.311
REMARK  7 active torsions:
REMARK  status: ('A' for Active; 'I' for Inactive)
REMARK    1  A    between atoms: N_3  and  S_1 
REMARK    2  A    between atoms: C_6  and  S_1 
REMARK    3  A    between atoms: N_2  and  C_5 
REMARK    4  A    between atoms: C_4  and  N_3 
REMARK    5  A    between atoms: C_5  and  C_4 
REMARK    6  A    between atoms: C_10  and  C_5 
REMARK    7  A    between atoms: O_26  and  C_20 
ROOT
ATOM      1  C   UNL d   1      58.359  -0.234  30.433  0.00  0.00     0.084 C 
ENDROOT
BRANCH   1   2
ATOM      2  N   UNL d   1      58.352  -0.917  29.970  0.00  0.00    -0.300 N 
ATOM      3  C   UNL d   1      58.594  -0.881  29.191  0.00  0.00     0.100 A 
ATOM      4  C   UNL d   1      58.586  -1.564  28.728  0.00  0.00     0.100 A 
ATOM      5  N   UNL d   1      58.334  -2.280  29.054  0.00  0.00    -0.299 N 
ATOM      6  C   UNL d   1      58.090  -2.311  29.842  0.00  0.00     0.100 A 
ATOM      7  C   UNL d   1      58.327  -2.964  28.587  0.00  0.00     0.100 C 
ATOM      8  C   UNL d   1      58.100  -1.632  30.296  0.00  0.00     0.100 A 
ENDBRANCH   1   2
BRANCH   1   9
ATOM      9  C   UNL d   1      57.677   0.222  30.509  0.00  0.00     0.130 C 
BRANCH   9  10
ATOM     10  N   UNL d   1      57.156   0.086  31.134  0.00  0.00    -0.155 NA
BRANCH  10  11
ATOM     11  S   UNL d   1      56.368   0.323  31.076  0.00  0.00     0.285 S 
ATOM     12  O   UNL d   1      56.487   0.506  30.278  0.00  0.00    -0.198 OA
ATOM     13  O   UNL d   1      55.580   0.560  31.016  0.00  0.00    -0.198 OA
BRANCH  11  14
ATOM     14  C   UNL d   1      56.258   0.135  31.884  0.00  0.00     0.105 A 
ATOM     15  C   UNL d   1      56.452   0.677  32.458  0.00  0.00     0.015 A 
ATOM     16  C   UNL d   1      56.342   0.488  33.262  0.00  0.00     0.025 A 
ATOM     17  C   UNL d   1      56.037  -0.249  33.469  0.00  0.00     0.094 A 
ATOM     18  C   UNL d   1      55.841  -0.798  32.873  0.00  0.00     0.025 A 
ATOM     19  C   UNL d   1      55.953  -0.602  32.091  0.00  0.00     0.015 A 
BRANCH  17  20
ATOM     20  O   UNL d   1      55.923  -0.448  34.270  0.00  0.00    -0.328 OA
ATOM     21  C   UNL d   1      55.703   0.128  34.816  0.00  0.00     0.181 C 
ENDBRANCH  17  20
ENDBRANCH  11  14
ENDBRANCH  10  11
ENDBRANCH   9  10
ENDBRANCH   1   9
BRANCH   1  22
ATOM     22  C   UNL d   1      59.059  -0.004  30.825  0.00  0.00     0.018 A 
ATOM     23  C   UNL d   1      59.620   0.453  30.431  0.00  0.00     0.004 A 
ATOM     24  C   UNL d   1      60.312   0.680  30.818  0.00  0.00     0.030 A 
ATOM     25  C   UNL d   1      60.442   0.449  31.600  0.00  0.00     0.140 A 
ATOM     26  C   UNL d   1      59.880  -0.009  31.993  0.00  0.00     0.030 A 
ATOM     27  F   UNL d   1      61.133   0.676  31.987  0.00  0.00    -0.204 F 
ATOM     28  C   UNL d   1      59.189  -0.236  31.606  0.00  0.00     0.004 A 
ENDBRANCH   1  22
TORSDOF 7
ENDMDL
