MODEL 1
REMARK VINA RESULT:      -9.0      0.000      0.000
REMARK  3 active torsions:
REMARK  status: ('A' for Active; 'I' for Inactive)
REMARK    1  A    between atoms: N_4  and  C_2 
REMARK    2  A    between atoms: C_9  and  C_3 
REMARK       I    between atoms: C_7  and  N_4 
REMARK    3  A    between atoms: C_8  and  C_7 
ROOT
ATOM      1  N   UNL d   1      52.413  33.558  53.734  0.00  0.00    -0.051 NA
ATOM      2  C   UNL d   1      51.834  33.220  53.261  0.00  0.00     0.760 A 
ATOM      3  C   UNL d   1      53.059  33.044  53.754  0.00  0.00     0.147 A 
ATOM      4  N   UNL d   1      52.118  32.496  52.986  0.00  0.00    -0.019 NA
ATOM      5  S   UNL d   1      52.873  32.384  53.288  0.00  0.00     0.052 SA
ENDROOT
BRANCH   2   6
ATOM      6  N   UNL d   1      51.075  33.481  53.041  0.00  0.00    -0.018 NA
ATOM      7  C   UNL d   1      50.993  34.138  52.550  0.00  0.00     0.295 C 
ATOM      8  O   UNL d   1      51.662  34.536  52.277  0.00  0.00    -0.265 OA
BRANCH   7   9
ATOM      9  C   UNL d   1      50.242  34.395  52.333  0.00  0.00     0.059 A 
ATOM     10  C   UNL d   1      49.969  34.263  51.567  0.00  0.00     0.007 A 
ATOM     11  C   UNL d   1      49.213  34.524  51.356  0.00  0.00     0.030 A 
ATOM     12  C   UNL d   1      48.735  34.913  51.904  0.00  0.00     0.140 A 
ATOM     13  C   UNL d   1      49.007  35.046  52.669  0.00  0.00     0.030 A 
ATOM     14  F   UNL d   1      47.985  35.167  51.677  0.00  0.00    -0.204 F 
ATOM     15  C   UNL d   1      49.759  34.788  52.887  0.00  0.00     0.007 A 
ENDBRANCH   7   9
ENDBRANCH   2   6
BRANCH   3  16
ATOM     16  C   UNL d   1      53.761  33.164  54.163  0.00  0.00     0.026 A 
ATOM     17  C   UNL d   1      54.476  33.226  53.754  0.00  0.00     0.002 A 
ATOM     18  C   UNL d   1      55.181  33.346  54.165  0.00  0.00     0.000 A 
ATOM     19  C   UNL d   1      55.169  33.406  54.988  0.00  0.00     0.000 A 
ATOM     20  C   UNL d   1      54.462  33.346  55.400  0.00  0.00     0.000 A 
ATOM     21  C   UNL d   1      53.757  33.225  54.989  0.00  0.00     0.002 A 
ENDBRANCH   3  16
TORSDOF 3
ENDMDL
MODEL 2
REMARK VINA RESULT:      -8.1      2.504      4.971
REMARK  3 active torsions:
REMARK  status: ('A' for Active; 'I' for Inactive)
REMARK    1  A    between atoms: N_4  and  C_2 
REMARK    2  A    between atoms: C_9  and  C_3 
REMARK       I    between atoms: C_7  and  N_4 
REMARK    3  A    between atoms: C_8  and  C_7 
ROOT
ATOM      1  N   UNL d   1      50.876  33.294  53.065  0.00  0.00    -0.051 NA
ATOM      2  C   UNL d   1      51.659  33.158  53.271  0.00  0.00     0.760 A 
ATOM      3  C   UNL d   1      50.797  34.091  52.867  0.00  0.00     0.147 A 
ATOM      4  N   UNL d   1      52.069  33.871  53.201  0.00  0.00    -0.019 NA
ATOM      5  S   UNL d   1      51.540  34.449  52.952  0.00  0.00     0.052 SA
ENDROOT
BRANCH   2   6
ATOM      6  N   UNL d   1      52.058  32.470  53.516  0.00  0.00    -0.018 NA
ATOM      7  C   UNL d   1      52.448  32.003  52.961  0.00  0.00     0.295 C 
ATOM      8  O   UNL d   1      52.444  32.217  52.164  0.00  0.00    -0.265 OA
BRANCH   7   9
ATOM      9  C   UNL d   1      52.843  31.323  53.204  0.00  0.00     0.059 A 
ATOM     10  C   UNL d   1      53.568  31.385  53.590  0.00  0.00     0.007 A 
ATOM     11  C   UNL d   1      53.959  30.698  53.832  0.00  0.00     0.030 A 
ATOM     12  C   UNL d   1      53.629  29.955  53.690  0.00  0.00     0.140 A 
ATOM     13  C   UNL d   1      52.905  29.892  53.304  0.00  0.00     0.030 A 
ATOM     14  F   UNL d   1      54.031  29.281  53.936  0.00  0.00    -0.204 F 
ATOM     15  C   UNL d   1      52.510  30.573  53.060  0.00  0.00     0.007 A 
ENDBRANCH   7   9
ENDBRANCH   2   6
BRANCH   3  16
ATOM     16  C   UNL d   1      50.107  34.464  52.627  0.00  0.00     0.026 A 
ATOM     17  C   UNL d   1      49.830  34.374  51.855  0.00  0.00     0.002 A 
ATOM     18  C   UNL d   1      49.135  34.749  51.614  0.00  0.00     0.000 A 
ATOM     19  C   UNL d   1      48.718  35.217  52.150  0.00  0.00     0.000 A 
ATOM     20  C   UNL d   1      48.987  35.311  52.920  0.00  0.00     0.000 A 
ATOM     21  C   UNL d   1      49.682  34.936  53.160  0.00  0.00     0.002 A 
ENDBRANCH   3  16
TORSDOF 3
ENDMDL
MODEL 3
REMARK VINA RESULT:      -8.0      2.087      5.066
REMARK  3 active torsions:
REMARK  status: ('A' for Active; 'I' for Inactive)
REMARK    1  A    between atoms: N_4  and  C_2 
REMARK    2  A    between atoms: C_9  and  C_3 
REMARK       I    between atoms: C_7  and  N_4 
REMARK    3  A    between atoms: C_8  and  C_7 
ROOT
ATOM      1  N   UNL d   1      50.650  34.329  53.201  0.00  0.00    -0.051 NA
ATOM      2  C   UNL d   1      51.333  33.916  53.011  0.00  0.00     0.760 A 
ATOM      3  C   UNL d   1      50.210  34.430  52.511  0.00  0.00     0.147 A 
ATOM      4  N   UNL d   1      51.319  33.759  52.201  0.00  0.00    -0.019 NA
ATOM      5  S   UNL d   1      50.627  34.075  51.889  0.00  0.00     0.052 SA
ENDROOT
BRANCH   2   6
ATOM      6  N   UNL d   1      51.974  33.659  53.474  0.00  0.00    -0.018 NA
ATOM      7  C   UNL d   1      52.639  34.138  53.556  0.00  0.00     0.295 C 
ATOM      8  O   UNL d   1      52.669  34.872  53.180  0.00  0.00    -0.265 OA
BRANCH   7   9
ATOM      9  C   UNL d   1      53.273  33.883  54.015  0.00  0.00     0.059 A 
ATOM     10  C   UNL d   1      53.414  34.231  54.748  0.00  0.00     0.007 A 
ATOM     11  C   UNL d   1      54.053  33.970  55.204  0.00  0.00     0.030 A 
ATOM     12  C   UNL d   1      54.547  33.368  54.930  0.00  0.00     0.140 A 
ATOM     13  C   UNL d   1      54.406  33.020  54.198  0.00  0.00     0.030 A 
ATOM     14  F   UNL d   1      55.178  33.120  55.396  0.00  0.00    -0.204 F 
ATOM     15  C   UNL d   1      53.771  33.275  53.738  0.00  0.00     0.007 A 
ENDBRANCH   7   9
ENDBRANCH   2   6
BRANCH   3  16
ATOM     16  C   UNL d   1      49.487  34.813  52.449  0.00  0.00     0.026 A 
ATOM     17  C   UNL d   1      49.193  35.255  53.083  0.00  0.00     0.002 A 
ATOM     18  C   UNL d   1      48.467  35.640  53.021  0.00  0.00     0.000 A 
ATOM     19  C   UNL d   1      48.033  35.583  52.321  0.00  0.00     0.000 A 
ATOM     20  C   UNL d   1      48.318  35.146  51.688  0.00  0.00     0.000 A 
ATOM     21  C   UNL d   1      49.045  34.761  51.750  0.00  0.00     0.002 A 
ENDBRANCH   3  16
TORSDOF 3
ENDMDL
MODEL 4
REMARK VINA RESULT:      -7.3      2.982      3.876
REMARK  3 active torsions:
REMARK  status: ('A' for Active; 'I' for Inactive)
REMARK    1  A    between atoms: N_4  and  C_2 
REMARK    2  A    between atoms: C_9  and  C_3 
REMARK       I    between atoms: C_7  and  N_4 
REMARK    3  A    between atoms: C_8  and  C_7 
ROOT
ATOM      1  N   UNL d   1      53.090  31.223  54.146  0.00  0.00    -0.051 NA
ATOM      2  C   UNL d   1      52.898  31.805  53.600  0.00  0.00     0.760 A 
ATOM      3  C   UNL d   1      53.116  30.499  53.751  0.00  0.00     0.147 A 
ATOM      4  N   UNL d   1      52.804  31.443  52.865  0.00  0.00    -0.019 NA
ATOM      5  S   UNL d   1      52.938  30.638  52.954  0.00  0.00     0.052 SA
ENDROOT
BRANCH   2   6
ATOM      6  N   UNL d   1      52.795  32.627  53.678  0.00  0.00    -0.018 NA
ATOM      7  C   UNL d   1      53.374  33.079  54.051  0.00  0.00     0.295 C 
ATOM      8  O   UNL d   1      54.054  32.718  54.347  0.00  0.00    -0.265 OA
BRANCH   7   9
ATOM      9  C   UNL d   1      53.272  33.892  54.127  0.00  0.00     0.059 A 
ATOM     10  C   UNL d   1      53.415  34.257  54.852  0.00  0.00     0.007 A 
ATOM     11  C   UNL d   1      53.310  35.074  54.922  0.00  0.00     0.030 A 
ATOM     12  C   UNL d   1      53.065  35.523  54.275  0.00  0.00     0.140 A 
ATOM     13  C   UNL d   1      52.922  35.159  53.550  0.00  0.00     0.030 A 
ATOM     14  F   UNL d   1      52.965  36.335  54.361  0.00  0.00    -0.204 F 
ATOM     15  C   UNL d   1      53.024  34.345  53.473  0.00  0.00     0.007 A 
ENDBRANCH   7   9
ENDBRANCH   2   6
BRANCH   3  16
ATOM     16  C   UNL d   1      53.288  29.770  54.087  0.00  0.00     0.026 A 
ATOM     17  C   UNL d   1      53.805  29.248  53.709  0.00  0.00     0.002 A 
ATOM     18  C   UNL d   1      53.978  28.515  54.047  0.00  0.00     0.000 A 
ATOM     19  C   UNL d   1      53.631  28.305  54.765  0.00  0.00     0.000 A 
ATOM     20  C   UNL d   1      53.116  28.818  55.146  0.00  0.00     0.000 A 
ATOM     21  C   UNL d   1      52.944  29.551  54.808  0.00  0.00     0.002 A 
ENDBRANCH   3  16
TORSDOF 3
ENDMDL
