MODEL 1
REMARK VINA RESULT:      82.7      0.000      0.000
REMARK  5 active torsions:
REMARK  status: ('A' for Active; 'I' for Inactive)
REMARK    1  A    between atoms: N_6  and  S_1 
REMARK    2  A    between atoms: C_11  and  S_1 
REMARK    3  A    between atoms: C_2  and  N_8 
REMARK    4  A    between atoms: C_10  and  C_3 
REMARK       I    between atoms: N_8  and  C_9 
REMARK    5  A    between atoms: C_9  and  C_17 
REMARK       I    between atoms: N_26  and  C_10 
ROOT
ATOM      1  N   UNL d   1     -50.496  26.444  33.638  0.00  0.00    -0.201 NA
ATOM      2  C   UNL d   1     -50.467  26.855  34.364  0.00  0.00     0.280 C 
ATOM      3  O   UNL d   1     -50.917  26.581  35.007  0.00  0.00    -0.265 OA
ENDROOT
BRANCH   2   4
ATOM      4  C   UNL d   1     -49.991  27.529  34.432  0.00  0.00     0.058 A 
ATOM      5  C   UNL d   1     -50.051  28.110  33.849  0.00  0.00     0.005 A 
ATOM      6  C   UNL d   1     -49.579  28.790  33.907  0.00  0.00     0.013 A 
ATOM      7  C   UNL d   1     -49.057  28.878  34.543  0.00  0.00     0.104 A 
ATOM      8  C   UNL d   1     -49.011  28.283  35.120  0.00  0.00     0.013 A 
ATOM      9  C   UNL d   1     -49.485  27.608  35.056  0.00  0.00     0.005 A 
BRANCH   7  10
ATOM     10  S   UNL d   1     -48.589  29.551  34.602  0.00  0.00     0.271 S 
ATOM     11  O   UNL d   1     -49.056  29.953  34.064  0.00  0.00    -0.200 OA
ATOM     12  O   UNL d   1     -48.118  29.134  35.149  0.00  0.00    -0.200 OA
BRANCH  10  13
ATOM     13  N   UNL d   1     -48.125  30.215  34.661  0.00  0.00    -0.231 N 
ATOM     14  C   UNL d   1     -47.422  30.201  35.083  0.00  0.00     0.075 A 
ATOM     15  C   UNL d   1     -47.180  29.503  35.455  0.00  0.00     0.020 C 
ATOM     16  C   UNL d   1     -46.959  30.874  35.139  0.00  0.00     0.018 A 
ATOM     17  C   UNL d   1     -47.201  31.572  34.767  0.00  0.00     0.003 A 
ATOM     18  C   UNL d   1     -47.901  31.589  34.346  0.00  0.00     0.020 A 
ATOM     19  C   UNL d   1     -48.352  30.913  34.298  0.00  0.00     0.092 A 
ENDBRANCH  10  13
ENDBRANCH   7  10
ENDBRANCH   2   4
BRANCH   1  20
ATOM     20  C   UNL d   1     -50.975  25.770  33.573  0.00  0.00     0.119 A 
ATOM     21  C   UNL d   1     -50.691  25.002  33.460  0.00  0.00     0.082 A 
ATOM     22  C   UNL d   1     -51.334  24.491  33.425  0.00  0.00     0.016 A 
ATOM     23  C   UNL d   1     -51.384  23.679  33.322  0.00  0.00     0.020 A 
ATOM     24  C   UNL d   1     -52.019  24.939  33.516  0.00  0.00     0.049 A 
ATOM     25  C   UNL d   1     -52.124  23.310  33.310  0.00  0.00     0.080 A 
ATOM     26  N   UNL d   1     -52.816  23.754  33.401  0.00  0.00    -0.301 N 
ATOM     27  C   UNL d   1     -52.754  24.570  33.504  0.00  0.00     0.087 A 
ATOM     28  C   UNL d   1     -53.544  23.389  33.390  0.00  0.00     0.100 C 
ATOM     29  S   UNL d   1     -51.792  25.734  33.608  0.00  0.00    -0.066 SA
BRANCH  21  30
ATOM     30  C   UNL d   1     -49.904  24.777  33.393  0.00  0.00     0.281 C 
ATOM     31  O   UNL d   1     -49.722  23.994  33.345  0.00  0.00    -0.265 OA
ATOM     32  N   UNL d   1     -49.312  25.350  33.375  0.00  0.00    -0.205 NA
ATOM     33  C   UNL d   1     -48.521  25.140  33.308  0.00  0.00     0.123 C 
ENDBRANCH  21  30
ENDBRANCH   1  20
TORSDOF 5
ENDMDL
