MODEL 1
REMARK VINA RESULT:     -10.6      0.000      0.000
REMARK  3 active torsions:
REMARK  status: ('A' for Active; 'I' for Inactive)
REMARK    1  A    between atoms: N_5  and  C_1 
REMARK    2  A    between atoms: C_2  and  C_6 
REMARK       I    between atoms: C_11  and  N_5 
REMARK    3  A    between atoms: C_9  and  C_11 
ROOT
ATOM      1  C   UNL d   1      54.055  32.160  53.954  0.00  0.00     0.053 A 
ATOM      2  S   UNL d   1      53.962  32.670  54.599  0.00  0.00    -0.080 SA
ATOM      3  C   UNL d   1      54.344  33.382  54.414  0.00  0.00     0.087 A 
ATOM      4  C   UNL d   1      54.491  32.553  53.375  0.00  0.00     0.009 A 
ATOM      5  C   UNL d   1      54.671  33.310  53.658  0.00  0.00     0.012 A 
ENDROOT
BRANCH   3   6
ATOM      6  C   UNL d   1      54.388  34.048  54.903  0.00  0.00     0.287 C 
ATOM      7  N   UNL d   1      53.825  34.645  54.831  0.00  0.00    -0.182 NA
ATOM      8  O   UNL d   1      54.995  34.113  55.460  0.00  0.00    -0.265 OA
BRANCH   7   9
ATOM      9  C   UNL d   1      53.215  34.580  54.271  0.00  0.00     0.197 A 
ATOM     10  N   UNL d   1      53.279  34.746  53.466  0.00  0.00    -0.221 NA
ATOM     11  C   UNL d   1      52.546  34.607  53.125  0.00  0.00     0.090 A 
ATOM     12  C   UNL d   1      52.287  34.678  52.350  0.00  0.00     0.020 A 
ATOM     13  C   UNL d   1      52.043  34.357  53.722  0.00  0.00     0.050 A 
ATOM     14  C   UNL d   1      51.510  34.496  52.175  0.00  0.00     0.002 A 
ATOM     15  C   UNL d   1      50.993  34.246  52.756  0.00  0.00     0.001 A 
ATOM     16  C   UNL d   1      51.244  34.170  53.539  0.00  0.00     0.008 A 
ATOM     17  C   UNL d   1      50.208  34.063  52.572  0.00  0.00     0.000 C 
ATOM     18  S   UNL d   1      52.449  34.339  54.429  0.00  0.00    -0.047 SA
ENDBRANCH   7   9
ENDBRANCH   3   6
BRANCH   1  19
ATOM     19  C   UNL d   1      53.762  31.389  53.901  0.00  0.00     0.117 A 
ATOM     20  N   UNL d   1      53.809  30.816  54.493  0.00  0.00    -0.238 NA
ATOM     21  C   UNL d   1      53.445  30.129  54.204  0.00  0.00     0.088 A 
ATOM     22  C   UNL d   1      53.326  29.387  54.541  0.00  0.00     0.020 A 
ATOM     23  C   UNL d   1      53.177  30.284  53.437  0.00  0.00     0.049 A 
ATOM     24  C   UNL d   1      52.939  28.802  54.112  0.00  0.00     0.002 A 
ATOM     25  C   UNL d   1      52.672  28.957  53.345  0.00  0.00     0.001 A 
ATOM     26  C   UNL d   1      52.790  29.696  53.008  0.00  0.00     0.008 A 
ATOM     27  S   UNL d   1      53.375  31.067  53.252  0.00  0.00    -0.066 SA
ENDBRANCH   1  19
TORSDOF 3
ENDMDL
MODEL 2
REMARK VINA RESULT:      -8.7      1.103      4.050
REMARK  3 active torsions:
REMARK  status: ('A' for Active; 'I' for Inactive)
REMARK    1  A    between atoms: N_5  and  C_1 
REMARK    2  A    between atoms: C_2  and  C_6 
REMARK       I    between atoms: C_11  and  N_5 
REMARK    3  A    between atoms: C_9  and  C_11 
ROOT
ATOM      1  C   UNL d   1      52.346  34.327  53.314  0.00  0.00     0.053 A 
ATOM      2  S   UNL d   1      52.530  34.273  54.119  0.00  0.00    -0.080 SA
ATOM      3  C   UNL d   1      53.355  34.227  54.186  0.00  0.00     0.087 A 
ATOM      4  C   UNL d   1      53.050  34.314  52.886  0.00  0.00     0.009 A 
ATOM      5  C   UNL d   1      53.676  34.252  53.425  0.00  0.00     0.012 A 
ENDROOT
BRANCH   3   6
ATOM      6  C   UNL d   1      53.780  34.166  54.893  0.00  0.00     0.287 C 
ATOM      7  N   UNL d   1      54.082  33.436  55.125  0.00  0.00    -0.182 NA
ATOM      8  O   UNL d   1      53.899  34.836  55.363  0.00  0.00    -0.265 OA
BRANCH   7   9
ATOM      9  C   UNL d   1      53.962  32.764  54.653  0.00  0.00     0.197 A 
ATOM     10  N   UNL d   1      54.396  32.562  53.981  0.00  0.00    -0.221 NA
ATOM     11  C   UNL d   1      54.090  31.859  53.690  0.00  0.00     0.090 A 
ATOM     12  C   UNL d   1      54.301  31.404  53.042  0.00  0.00     0.020 A 
ATOM     13  C   UNL d   1      53.475  31.637  54.185  0.00  0.00     0.050 A 
ATOM     14  C   UNL d   1      53.886  30.717  52.889  0.00  0.00     0.002 A 
ATOM     15  C   UNL d   1      53.270  30.479  53.370  0.00  0.00     0.001 A 
ATOM     16  C   UNL d   1      53.050  30.930  54.025  0.00  0.00     0.008 A 
ATOM     17  C   UNL d   1      52.854  29.783  53.210  0.00  0.00     0.000 C 
ATOM     18  S   UNL d   1      53.392  32.191  54.779  0.00  0.00    -0.047 SA
ENDBRANCH   7   9
ENDBRANCH   3   6
BRANCH   1  19
ATOM     19  C   UNL d   1      51.585  34.384  52.994  0.00  0.00     0.117 A 
ATOM     20  N   UNL d   1      50.922  34.681  53.386  0.00  0.00    -0.238 NA
ATOM     21  C   UNL d   1      50.282  34.634  52.860  0.00  0.00     0.088 A 
ATOM     22  C   UNL d   1      49.489  34.845  52.939  0.00  0.00     0.020 A 
ATOM     23  C   UNL d   1      50.555  34.309  52.150  0.00  0.00     0.049 A 
ATOM     24  C   UNL d   1      48.973  34.732  52.310  0.00  0.00     0.002 A 
ATOM     25  C   UNL d   1      49.246  34.406  51.601  0.00  0.00     0.001 A 
ATOM     26  C   UNL d   1      50.036  34.195  51.521  0.00  0.00     0.008 A 
ATOM     27  S   UNL d   1      51.365  34.154  52.237  0.00  0.00    -0.066 SA
ENDBRANCH   1  19
TORSDOF 3
ENDMDL
