MODEL 1
REMARK VINA RESULT:      67.9      0.000      0.000
REMARK  7 active torsions:
REMARK  status: ('A' for Active; 'I' for Inactive)
REMARK    1  A    between atoms: C_10  and  N_3 
REMARK    2  A    between atoms: C_12  and  C_10 
REMARK    3  A    between atoms: C_16  and  N_11 
REMARK    4  A    between atoms: O_29  and  C_15 
REMARK    5  A    between atoms: C_27  and  C_16 
REMARK    6  A    between atoms: O_30  and  C_17 
REMARK    7  A    between atoms: C_23  and  C_27 
ROOT
ATOM      1  C   UNL d   1      44.156 -16.897  38.867  0.00  0.00     0.191 A 
ATOM      2  C   UNL d   1      44.931 -16.893  38.551  0.00  0.00     0.173 A 
ATOM      3  N   UNL d   1      44.495 -16.023  37.493  0.00  0.00    -0.224 N 
ATOM      4  N   UNL d   1      44.147 -17.371  39.542  0.00  0.00    -0.042 NA
ATOM      5  C   UNL d   1      44.970 -17.773  39.782  0.00  0.00     0.722 A 
ATOM      6  N   UNL d   1      43.540 -16.469  38.506  0.00  0.00    -0.240 N 
ATOM      7  C   UNL d   1      43.720 -16.027  37.809  0.00  0.00     0.343 A 
ATOM      8  C   UNL d   1      45.090 -16.461  37.874  0.00  0.00     0.288 A 
ATOM      9  N   UNL d   1      45.387 -17.365  39.037  0.00  0.00    -0.132 N 
ATOM     10  N   UNL d   1      45.440 -18.245  40.263  0.00  0.00    -0.139 N 
ATOM     11  O   UNL d   1      43.100 -15.591  37.438  0.00  0.00    -0.245 OA
ATOM     12  O   UNL d   1      45.865 -16.457  37.558  0.00  0.00    -0.265 OA
ATOM     13  C   UNL d   1      46.187 -17.513  38.927  0.00  0.00     0.100 A 
ATOM     14  C   UNL d   1      42.764 -16.472  38.823  0.00  0.00     0.105 C 
ATOM     15  C   UNL d   1      46.639 -18.002  39.438  0.00  0.00     0.039 A 
ATOM     16  C   UNL d   1      46.257 -18.376  40.122  0.00  0.00     0.100 A 
ENDROOT
BRANCH  10  17
ATOM     17  C   UNL d   1      45.485 -18.724  40.924  0.00  0.00     0.098 C 
BRANCH  17  18
ATOM     18  C   UNL d   1      45.592 -18.388  41.661  0.00  0.00     0.020 C 
BRANCH  18  19
ATOM     19  C   UNL d   1      45.735 -18.865  42.304  0.00  0.00     0.004 A 
ATOM     20  C   UNL d   1      46.025 -18.538  42.992  0.00  0.00     0.026 A 
ATOM     21  C   UNL d   1      46.170 -19.013  43.641  0.00  0.00     0.116 A 
ATOM     22  C   UNL d   1      46.021 -19.821  43.595  0.00  0.00     0.116 A 
ATOM     23  C   UNL d   1      45.731 -20.144  42.908  0.00  0.00     0.026 A 
ATOM     24  C   UNL d   1      45.587 -19.663  42.257  0.00  0.00     0.002 A 
BRANCH  21  25
ATOM     25  O   UNL d   1      46.462 -18.686  44.333  0.00  0.00    -0.326 OA
ATOM     26  C   UNL d   1      45.996 -18.204  44.785  0.00  0.00     0.181 C 
ENDBRANCH  21  25
BRANCH  22  27
ATOM     27  O   UNL d   1      46.225 -20.117  44.330  0.00  0.00    -0.326 OA
ATOM     28  C   UNL d   1      46.621 -19.650  44.863  0.00  0.00     0.181 C 
ENDBRANCH  22  27
ENDBRANCH  18  19
ENDBRANCH  17  18
ENDBRANCH  10  17
BRANCH   3  29
ATOM     29  C   UNL d   1      45.039 -15.764  36.907  0.00  0.00     0.090 C 
BRANCH  29  30
ATOM     30  C   UNL d   1      45.331 -14.986  36.935  0.00  0.00     0.045 A 
ATOM     31  C   UNL d   1      46.130 -14.840  36.728  0.00  0.00     0.141 A 
ATOM     32  F   UNL d   1      46.627 -15.469  36.497  0.00  0.00    -0.204 F 
ATOM     33  C   UNL d   1      46.429 -14.058  36.754  0.00  0.00     0.030 A 
ATOM     34  C   UNL d   1      45.930 -13.433  36.985  0.00  0.00     0.002 A 
ATOM     35  C   UNL d   1      45.134 -13.584  37.191  0.00  0.00     0.000 A 
ATOM     36  C   UNL d   1      44.841 -14.363  37.163  0.00  0.00     0.004 A 
ENDBRANCH  29  30
ENDBRANCH   3  29
TORSDOF 7
ENDMDL
MODEL 2
REMARK VINA RESULT:      69.6      2.020      6.382
REMARK  7 active torsions:
REMARK  status: ('A' for Active; 'I' for Inactive)
REMARK    1  A    between atoms: C_10  and  N_3 
REMARK    2  A    between atoms: C_12  and  C_10 
REMARK    3  A    between atoms: C_16  and  N_11 
REMARK    4  A    between atoms: O_29  and  C_15 
REMARK    5  A    between atoms: C_27  and  C_16 
REMARK    6  A    between atoms: O_30  and  C_17 
REMARK    7  A    between atoms: C_23  and  C_27 
ROOT
ATOM      1  C   UNL d   1      44.638 -18.233  40.580  0.00  0.00     0.191 A 
ATOM      2  C   UNL d   1      45.428 -17.963  40.643  0.00  0.00     0.173 A 
ATOM      3  N   UNL d   1      45.516 -18.529  41.961  0.00  0.00    -0.224 N 
ATOM      4  N   UNL d   1      44.340 -18.011  39.843  0.00  0.00    -0.042 NA
ATOM      5  C   UNL d   1      44.931 -17.532  39.280  0.00  0.00     0.722 A 
ATOM      6  N   UNL d   1      44.274 -18.653  41.200  0.00  0.00    -0.240 N 
ATOM      7  C   UNL d   1      44.726 -18.799  41.898  0.00  0.00     0.343 A 
ATOM      8  C   UNL d   1      45.854 -18.112  41.326  0.00  0.00     0.288 A 
ATOM      9  N   UNL d   1      45.603 -17.579  39.944  0.00  0.00    -0.132 N 
ATOM     10  N   UNL d   1      45.120 -17.143  38.581  0.00  0.00    -0.139 N 
ATOM     11  O   UNL d   1      44.363 -19.223  42.531  0.00  0.00    -0.245 OA
ATOM     12  O   UNL d   1      46.643 -17.842  41.389  0.00  0.00    -0.265 OA
ATOM     13  C   UNL d   1      46.326 -17.228  39.772  0.00  0.00     0.100 A 
ATOM     14  C   UNL d   1      43.483 -18.923  41.137  0.00  0.00     0.105 C 
ATOM     15  C   UNL d   1      46.487 -16.838  39.047  0.00  0.00     0.039 A 
ATOM     16  C   UNL d   1      45.870 -16.795  38.437  0.00  0.00     0.100 A 
ENDROOT
BRANCH  10  17
ATOM     17  C   UNL d   1      44.873 -16.900  37.841  0.00  0.00     0.098 C 
BRANCH  17  18
ATOM     18  C   UNL d   1      44.771 -16.104  37.689  0.00  0.00     0.020 C 
BRANCH  18  19
ATOM     19  C   UNL d   1      44.068 -15.840  37.379  0.00  0.00     0.004 A 
ATOM     20  C   UNL d   1      43.609 -15.318  37.806  0.00  0.00     0.026 A 
ATOM     21  C   UNL d   1      42.901 -15.050  37.498  0.00  0.00     0.116 A 
ATOM     22  C   UNL d   1      42.656 -15.309  36.756  0.00  0.00     0.116 A 
ATOM     23  C   UNL d   1      43.115 -15.829  36.332  0.00  0.00     0.026 A 
ATOM     24  C   UNL d   1      43.827 -16.097  36.645  0.00  0.00     0.002 A 
BRANCH  21  25
ATOM     25  O   UNL d   1      42.439 -14.526  37.925  0.00  0.00    -0.326 OA
ATOM     26  C   UNL d   1      42.734 -14.168  38.587  0.00  0.00     0.181 C 
ENDBRANCH  21  25
BRANCH  22  27
ATOM     27  O   UNL d   1      41.939 -14.937  36.627  0.00  0.00    -0.326 OA
ATOM     28  C   UNL d   1      41.309 -15.354  36.330  0.00  0.00     0.181 C 
ENDBRANCH  22  27
ENDBRANCH  18  19
ENDBRANCH  17  18
ENDBRANCH  10  17
BRANCH   3  29
ATOM     29  C   UNL d   1      46.227 -18.461  42.404  0.00  0.00     0.090 C 
BRANCH  29  30
ATOM     30  C   UNL d   1      46.349 -18.955  43.062  0.00  0.00     0.045 A 
ATOM     31  C   UNL d   1      46.427 -18.613  43.823  0.00  0.00     0.141 A 
ATOM     32  F   UNL d   1      46.382 -17.784  43.919  0.00  0.00    -0.204 F 
ATOM     33  C   UNL d   1      46.550 -19.106  44.489  0.00  0.00     0.030 A 
ATOM     34  C   UNL d   1      46.594 -19.931  44.389  0.00  0.00     0.002 A 
ATOM     35  C   UNL d   1      46.516 -20.267  43.627  0.00  0.00     0.000 A 
ATOM     36  C   UNL d   1      46.394 -19.773  42.968  0.00  0.00     0.004 A 
ENDBRANCH  29  30
ENDBRANCH   3  29
TORSDOF 7
ENDMDL
