MODEL 1
REMARK VINA RESULT:      -9.0      0.000      0.000
REMARK  5 active torsions:
REMARK  status: ('A' for Active; 'I' for Inactive)
REMARK    1  A    between atoms: N_11  and  C_4 
REMARK    2  A    between atoms: C_18  and  N_15 
REMARK    3  A    between atoms: C_21  and  C_18 
REMARK    4  A    between atoms: O_28  and  C_23 
REMARK    5  A    between atoms: C_31  and  O_28 
ROOT
ATOM      1  N   UNL d   1      51.878  33.252  53.100  0.00  0.00    -0.195 N 
ATOM      2  C   UNL d   1      52.638  33.156  53.359  0.00  0.00     0.168 A 
ATOM      3  C   UNL d   1      52.969  32.431  53.389  0.00  0.00     0.073 A 
ATOM      4  C   UNL d   1      51.563  33.983  53.077  0.00  0.00     0.153 A 
ATOM      5  N   UNL d   1      51.776  31.898  52.900  0.00  0.00    -0.143 NA
ATOM      6  C   UNL d   1      52.535  31.803  53.159  0.00  0.00     0.185 A 
ATOM      7  N   UNL d   1      53.063  33.793  53.588  0.00  0.00    -0.227 NA
ATOM      8  C   UNL d   1      53.721  32.336  53.645  0.00  0.00     0.007 A 
ATOM      9  N   UNL d   1      52.857  31.063  53.184  0.00  0.00    -0.225 NA
ATOM     10  C   UNL d   1      51.982  34.617  53.302  0.00  0.00     0.057 A 
ATOM     11  C   UNL d   1      54.051  31.611  53.675  0.00  0.00     0.019 A 
ATOM     12  C   UNL d   1      52.741  34.521  53.561  0.00  0.00     0.086 A 
ATOM     13  C   UNL d   1      53.617  30.967  53.443  0.00  0.00     0.083 A 
ATOM     14  C   UNL d   1      54.147  32.977  53.875  0.00  0.00     0.000 C 
ATOM     15  C   UNL d   1      53.181  35.187  53.799  0.00  0.00     0.021 C 
ATOM     16  C   UNL d   1      53.940  30.243  53.470  0.00  0.00     0.021 C 
ENDROOT
BRANCH   4  17
ATOM     17  N   UNL d   1      50.779  34.074  52.808  0.00  0.00    -0.286 N 
ATOM     18  C   UNL d   1      51.012  34.367  52.071  0.00  0.00     0.101 A 
ATOM     19  C   UNL d   1      50.438  34.573  51.517  0.00  0.00     0.100 A 
ATOM     20  N   UNL d   1      49.628  34.487  51.699  0.00  0.00    -0.300 N 
ATOM     21  C   UNL d   1      49.405  34.190  52.448  0.00  0.00     0.100 A 
ATOM     22  C   UNL d   1      49.987  33.983  53.004  0.00  0.00     0.101 A 
BRANCH  20  23
ATOM     23  C   UNL d   1      49.043  34.695  51.142  0.00  0.00     0.080 C 
BRANCH  23  24
ATOM     24  C   UNL d   1      48.377  35.124  51.386  0.00  0.00     0.018 A 
ATOM     25  C   UNL d   1      48.462  35.812  51.846  0.00  0.00     0.004 A 
ATOM     26  C   UNL d   1      47.789  36.246  52.093  0.00  0.00     0.025 A 
ATOM     27  C   UNL d   1      47.025  35.985  51.875  0.00  0.00     0.100 A 
ATOM     28  C   UNL d   1      46.936  35.287  51.409  0.00  0.00     0.025 A 
ATOM     29  C   UNL d   1      47.615  34.867  51.171  0.00  0.00     0.004 A 
BRANCH  27  30
ATOM     30  O   UNL d   1      46.355  36.408  52.115  0.00  0.00    -0.305 OA
BRANCH  30  31
ATOM     31  C   UNL d   1      46.065  36.324  52.894  0.00  0.00     0.123 C 
ATOM     32  C   UNL d   1      45.356  36.709  53.118  0.00  0.00     0.029 C 
ENDBRANCH  30  31
ENDBRANCH  27  30
ENDBRANCH  23  24
ENDBRANCH  20  23
ENDBRANCH   4  17
TORSDOF 5
ENDMDL
MODEL 2
REMARK VINA RESULT:      -8.8      2.126      6.482
REMARK  5 active torsions:
REMARK  status: ('A' for Active; 'I' for Inactive)
REMARK    1  A    between atoms: N_11  and  C_4 
REMARK    2  A    between atoms: C_18  and  N_15 
REMARK    3  A    between atoms: C_21  and  C_18 
REMARK    4  A    between atoms: O_28  and  C_23 
REMARK    5  A    between atoms: C_31  and  O_28 
ROOT
ATOM      1  N   UNL d   1      47.757  35.523  52.164  0.00  0.00    -0.195 N 
ATOM      2  C   UNL d   1      47.126  35.919  52.477  0.00  0.00     0.168 A 
ATOM      3  C   UNL d   1      46.424  35.928  52.100  0.00  0.00     0.073 A 
ATOM      4  C   UNL d   1      48.451  35.525  52.554  0.00  0.00     0.153 A 
ATOM      5  N   UNL d   1      46.987  35.141  51.095  0.00  0.00    -0.143 NA
ATOM      6  C   UNL d   1      46.356  35.537  51.408  0.00  0.00     0.185 A 
ATOM      7  N   UNL d   1      47.205  36.308  53.172  0.00  0.00    -0.227 NA
ATOM      8  C   UNL d   1      45.799  36.320  52.410  0.00  0.00     0.007 A 
ATOM      9  N   UNL d   1      45.651  35.537  51.015  0.00  0.00    -0.225 NA
ATOM     10  C   UNL d   1      48.534  35.908  53.242  0.00  0.00     0.057 A 
ATOM     11  C   UNL d   1      45.097  36.328  52.032  0.00  0.00     0.019 A 
ATOM     12  C   UNL d   1      47.903  36.304  53.555  0.00  0.00     0.086 A 
ATOM     13  C   UNL d   1      45.020  35.934  51.328  0.00  0.00     0.083 A 
ATOM     14  C   UNL d   1      45.880  36.709  53.108  0.00  0.00     0.000 C 
ATOM     15  C   UNL d   1      47.989  36.707  54.279  0.00  0.00     0.021 C 
ATOM     16  C   UNL d   1      44.324  35.938  50.948  0.00  0.00     0.021 C 
ENDROOT
BRANCH   4  17
ATOM     17  N   UNL d   1      49.098  35.114  52.224  0.00  0.00    -0.286 N 
ATOM     18  C   UNL d   1      49.341  34.810  52.954  0.00  0.00     0.101 A 
ATOM     19  C   UNL d   1      50.004  34.323  52.989  0.00  0.00     0.100 A 
ATOM     20  N   UNL d   1      50.427  34.138  52.295  0.00  0.00    -0.300 N 
ATOM     21  C   UNL d   1      50.172  34.451  51.563  0.00  0.00     0.100 A 
ATOM     22  C   UNL d   1      49.503  34.942  51.531  0.00  0.00     0.101 A 
BRANCH  20  23
ATOM     23  C   UNL d   1      51.100  33.645  52.325  0.00  0.00     0.080 C 
BRANCH  23  24
ATOM     24  C   UNL d   1      51.711  33.817  52.858  0.00  0.00     0.018 A 
ATOM     25  C   UNL d   1      51.845  33.331  53.519  0.00  0.00     0.004 A 
ATOM     26  C   UNL d   1      52.464  33.506  54.058  0.00  0.00     0.025 A 
ATOM     27  C   UNL d   1      52.950  34.172  53.929  0.00  0.00     0.100 A 
ATOM     28  C   UNL d   1      52.816  34.667  53.258  0.00  0.00     0.025 A 
ATOM     29  C   UNL d   1      52.198  34.481  52.732  0.00  0.00     0.004 A 
BRANCH  27  30
ATOM     30  O   UNL d   1      53.563  34.351  54.456  0.00  0.00    -0.305 OA
BRANCH  30  31
ATOM     31  C   UNL d   1      54.075  33.747  54.722  0.00  0.00     0.123 C 
ATOM     32  C   UNL d   1      54.761  33.944  55.160  0.00  0.00     0.029 C 
ENDBRANCH  30  31
ENDBRANCH  27  30
ENDBRANCH  23  24
ENDBRANCH  20  23
ENDBRANCH   4  17
TORSDOF 5
ENDMDL
MODEL 3
REMARK VINA RESULT:      -8.8      2.030      6.260
REMARK  5 active torsions:
REMARK  status: ('A' for Active; 'I' for Inactive)
REMARK    1  A    between atoms: N_11  and  C_4 
REMARK    2  A    between atoms: C_18  and  N_15 
REMARK    3  A    between atoms: C_21  and  C_18 
REMARK    4  A    between atoms: O_28  and  C_23 
REMARK    5  A    between atoms: C_31  and  O_28 
ROOT
ATOM      1  N   UNL d   1      49.286  35.109  52.946  0.00  0.00    -0.195 N 
ATOM      2  C   UNL d   1      48.586  35.212  52.555  0.00  0.00     0.168 A 
ATOM      3  C   UNL d   1      47.975  35.585  52.906  0.00  0.00     0.073 A 
ATOM      4  C   UNL d   1      49.885  34.734  52.580  0.00  0.00     0.153 A 
ATOM      5  N   UNL d   1      48.768  35.752  54.042  0.00  0.00    -0.143 NA
ATOM      6  C   UNL d   1      48.069  35.855  53.651  0.00  0.00     0.185 A 
ATOM      7  N   UNL d   1      48.504  34.937  51.808  0.00  0.00    -0.227 NA
ATOM      8  C   UNL d   1      47.282  35.687  52.519  0.00  0.00     0.007 A 
ATOM      9  N   UNL d   1      47.459  36.234  54.019  0.00  0.00    -0.225 NA
ATOM     10  C   UNL d   1      49.808  34.461  51.840  0.00  0.00     0.057 A 
ATOM     11  C   UNL d   1      46.672  36.060  52.870  0.00  0.00     0.019 A 
ATOM     12  C   UNL d   1      49.109  34.563  51.449  0.00  0.00     0.086 A 
ATOM     13  C   UNL d   1      46.759  36.337  53.627  0.00  0.00     0.083 A 
ATOM     14  C   UNL d   1      47.201  35.411  51.769  0.00  0.00     0.000 C 
ATOM     15  C   UNL d   1      49.026  34.277  50.672  0.00  0.00     0.021 C 
ATOM     16  C   UNL d   1      46.155  36.710  53.983  0.00  0.00     0.021 C 
ENDROOT
BRANCH   4  17
ATOM     17  N   UNL d   1      50.605  34.632  52.990  0.00  0.00    -0.286 N 
ATOM     18  C   UNL d   1      50.992  34.313  52.332  0.00  0.00     0.101 A 
ATOM     19  C   UNL d   1      51.781  34.086  52.398  0.00  0.00     0.100 A 
ATOM     20  N   UNL d   1      52.186  34.176  53.122  0.00  0.00    -0.300 N 
ATOM     21  C   UNL d   1      51.784  34.499  53.779  0.00  0.00     0.100 A 
ATOM     22  C   UNL d   1      50.988  34.727  53.710  0.00  0.00     0.101 A 
BRANCH  20  23
ATOM     23  C   UNL d   1      52.985  33.947  53.193  0.00  0.00     0.080 C 
BRANCH  23  24
ATOM     24  C   UNL d   1      53.172  33.165  53.394  0.00  0.00     0.018 A 
ATOM     25  C   UNL d   1      53.496  32.985  54.138  0.00  0.00     0.004 A 
ATOM     26  C   UNL d   1      53.685  32.194  54.340  0.00  0.00     0.025 A 
ATOM     27  C   UNL d   1      53.547  31.580  53.790  0.00  0.00     0.100 A 
ATOM     28  C   UNL d   1      53.217  31.761  53.034  0.00  0.00     0.025 A 
ATOM     29  C   UNL d   1      53.035  32.552  52.847  0.00  0.00     0.004 A 
BRANCH  27  30
ATOM     30  O   UNL d   1      53.730  30.797  53.983  0.00  0.00    -0.305 OA
BRANCH  30  31
ATOM     31  C   UNL d   1      53.236  30.175  53.722  0.00  0.00     0.123 C 
ATOM     32  C   UNL d   1      53.308  29.414  54.063  0.00  0.00     0.029 C 
ENDBRANCH  30  31
ENDBRANCH  27  30
ENDBRANCH  23  24
ENDBRANCH  20  23
ENDBRANCH   4  17
TORSDOF 5
ENDMDL
MODEL 4
REMARK VINA RESULT:      -7.4      2.215      6.660
REMARK  5 active torsions:
REMARK  status: ('A' for Active; 'I' for Inactive)
REMARK    1  A    between atoms: N_11  and  C_4 
REMARK    2  A    between atoms: C_18  and  N_15 
REMARK    3  A    between atoms: C_21  and  C_18 
REMARK    4  A    between atoms: O_28  and  C_23 
REMARK    5  A    between atoms: C_31  and  O_28 
ROOT
ATOM      1  N   UNL d   1      47.261  35.810  53.198  0.00  0.00    -0.195 N 
ATOM      2  C   UNL d   1      46.481  36.012  53.137  0.00  0.00     0.168 A 
ATOM      3  C   UNL d   1      46.054  36.187  53.788  0.00  0.00     0.073 A 
ATOM      4  C   UNL d   1      47.671  35.638  52.538  0.00  0.00     0.153 A 
ATOM      5  N   UNL d   1      47.193  35.957  54.560  0.00  0.00    -0.143 NA
ATOM      6  C   UNL d   1      46.413  36.159  54.500  0.00  0.00     0.185 A 
ATOM      7  N   UNL d   1      46.131  36.037  52.418  0.00  0.00    -0.227 NA
ATOM      8  C   UNL d   1      45.282  36.388  53.728  0.00  0.00     0.007 A 
ATOM      9  N   UNL d   1      45.994  36.334  55.167  0.00  0.00    -0.225 NA
ATOM     10  C   UNL d   1      47.329  35.661  51.823  0.00  0.00     0.057 A 
ATOM     11  C   UNL d   1      44.856  36.563  54.379  0.00  0.00     0.019 A 
ATOM     12  C   UNL d   1      46.549  35.864  51.763  0.00  0.00     0.086 A 
ATOM     13  C   UNL d   1      45.213  36.536  55.106  0.00  0.00     0.083 A 
ATOM     14  C   UNL d   1      44.932  36.413  53.005  0.00  0.00     0.000 C 
ATOM     15  C   UNL d   1      46.188  35.889  51.013  0.00  0.00     0.021 C 
ATOM     16  C   UNL d   1      44.795  36.709  55.758  0.00  0.00     0.021 C 
ENDROOT
BRANCH   4  17
ATOM     17  N   UNL d   1      48.476  35.430  52.608  0.00  0.00    -0.286 N 
ATOM     18  C   UNL d   1      48.437  34.871  52.000  0.00  0.00     0.101 A 
ATOM     19  C   UNL d   1      49.113  34.447  51.795  0.00  0.00     0.100 A 
ATOM     20  N   UNL d   1      49.831  34.581  52.197  0.00  0.00    -0.300 N 
ATOM     21  C   UNL d   1      49.859  35.148  52.810  0.00  0.00     0.100 A 
ATOM     22  C   UNL d   1      49.175  35.574  53.015  0.00  0.00     0.101 A 
BRANCH  20  23
ATOM     23  C   UNL d   1      50.519  34.155  51.993  0.00  0.00     0.080 C 
BRANCH  23  24
ATOM     24  C   UNL d   1      51.078  33.973  52.577  0.00  0.00     0.018 A 
ATOM     25  C   UNL d   1      50.950  33.344  53.105  0.00  0.00     0.004 A 
ATOM     26  C   UNL d   1      51.515  33.160  53.696  0.00  0.00     0.025 A 
ATOM     27  C   UNL d   1      52.215  33.614  53.755  0.00  0.00     0.100 A 
ATOM     28  C   UNL d   1      52.348  34.254  53.220  0.00  0.00     0.025 A 
ATOM     29  C   UNL d   1      51.776  34.423  52.639  0.00  0.00     0.004 A 
BRANCH  27  30
ATOM     30  O   UNL d   1      52.778  33.439  54.336  0.00  0.00    -0.305 OA
BRANCH  30  31
ATOM     31  C   UNL d   1      53.477  33.030  54.130  0.00  0.00     0.123 C 
ATOM     32  C   UNL d   1      54.087  32.936  54.696  0.00  0.00     0.029 C 
ENDBRANCH  30  31
ENDBRANCH  27  30
ENDBRANCH  23  24
ENDBRANCH  20  23
ENDBRANCH   4  17
TORSDOF 5
ENDMDL
MODEL 5
REMARK VINA RESULT:      -7.3      2.026      6.349
REMARK  5 active torsions:
REMARK  status: ('A' for Active; 'I' for Inactive)
REMARK    1  A    between atoms: N_11  and  C_4 
REMARK    2  A    between atoms: C_18  and  N_15 
REMARK    3  A    between atoms: C_21  and  C_18 
REMARK    4  A    between atoms: O_28  and  C_23 
REMARK    5  A    between atoms: C_31  and  O_28 
ROOT
ATOM      1  N   UNL d   1      48.257  35.210  52.258  0.00  0.00    -0.195 N 
ATOM      2  C   UNL d   1      47.589  35.587  52.514  0.00  0.00     0.168 A 
ATOM      3  C   UNL d   1      46.935  35.609  52.059  0.00  0.00     0.073 A 
ATOM      4  C   UNL d   1      48.901  35.198  52.726  0.00  0.00     0.153 A 
ATOM      5  N   UNL d   1      47.621  34.877  51.089  0.00  0.00    -0.143 NA
ATOM      6  C   UNL d   1      46.953  35.253  51.345  0.00  0.00     0.185 A 
ATOM      7  N   UNL d   1      47.582  35.941  53.232  0.00  0.00    -0.227 NA
ATOM      8  C   UNL d   1      46.274  35.982  52.312  0.00  0.00     0.007 A 
ATOM      9  N   UNL d   1      46.299  35.268  50.873  0.00  0.00    -0.225 NA
ATOM     10  C   UNL d   1      48.899  35.547  53.437  0.00  0.00     0.057 A 
ATOM     11  C   UNL d   1      45.620  36.004  51.857  0.00  0.00     0.019 A 
ATOM     12  C   UNL d   1      48.231  35.923  53.693  0.00  0.00     0.086 A 
ATOM     13  C   UNL d   1      45.630  35.645  51.130  0.00  0.00     0.083 A 
ATOM     14  C   UNL d   1      46.269  36.337  53.033  0.00  0.00     0.000 C 
ATOM     15  C   UNL d   1      48.227  36.291  54.440  0.00  0.00     0.021 C 
ATOM     16  C   UNL d   1      44.983  35.663  50.672  0.00  0.00     0.021 C 
ENDROOT
BRANCH   4  17
ATOM     17  N   UNL d   1      49.586  34.807  52.455  0.00  0.00    -0.286 N 
ATOM     18  C   UNL d   1      50.064  35.127  53.049  0.00  0.00     0.101 A 
ATOM     19  C   UNL d   1      50.864  34.930  53.076  0.00  0.00     0.100 A 
ATOM     20  N   UNL d   1      51.188  34.413  52.507  0.00  0.00    -0.300 N 
ATOM     21  C   UNL d   1      50.696  34.096  51.911  0.00  0.00     0.100 A 
ATOM     22  C   UNL d   1      49.890  34.297  51.887  0.00  0.00     0.101 A 
BRANCH  20  23
ATOM     23  C   UNL d   1      51.998  34.210  52.530  0.00  0.00     0.080 C 
BRANCH  23  24
ATOM     24  C   UNL d   1      52.231  33.489  52.864  0.00  0.00     0.018 A 
ATOM     25  C   UNL d   1      52.156  32.780  52.437  0.00  0.00     0.004 A 
ATOM     26  C   UNL d   1      52.392  32.050  52.775  0.00  0.00     0.025 A 
ATOM     27  C   UNL d   1      52.707  32.035  53.549  0.00  0.00     0.100 A 
ATOM     28  C   UNL d   1      52.785  32.754  53.986  0.00  0.00     0.025 A 
ATOM     29  C   UNL d   1      52.545  33.471  53.635  0.00  0.00     0.004 A 
BRANCH  27  30
ATOM     30  O   UNL d   1      52.943  31.319  53.891  0.00  0.00    -0.305 OA
BRANCH  30  31
ATOM     31  C   UNL d   1      53.209  30.693  53.406  0.00  0.00     0.123 C 
ATOM     32  C   UNL d   1      53.228  29.912  53.707  0.00  0.00     0.029 C 
ENDBRANCH  30  31
ENDBRANCH  27  30
ENDBRANCH  23  24
ENDBRANCH  20  23
ENDBRANCH   4  17
TORSDOF 5
ENDMDL
MODEL 6
REMARK VINA RESULT:      -6.8     10.229     11.478
REMARK  5 active torsions:
REMARK  status: ('A' for Active; 'I' for Inactive)
REMARK    1  A    between atoms: N_11  and  C_4 
REMARK    2  A    between atoms: C_18  and  N_15 
REMARK    3  A    between atoms: C_21  and  C_18 
REMARK    4  A    between atoms: O_28  and  C_23 
REMARK    5  A    between atoms: C_31  and  O_28 
ROOT
ATOM      1  N   UNL d   1      44.915  28.966  58.791  0.00  0.00    -0.195 N 
ATOM      2  C   UNL d   1      44.744  29.677  59.135  0.00  0.00     0.168 A 
ATOM      3  C   UNL d   1      44.641  29.733  59.924  0.00  0.00     0.073 A 
ATOM      4  C   UNL d   1      45.014  28.928  58.002  0.00  0.00     0.153 A 
ATOM      5  N   UNL d   1      44.881  28.362  60.022  0.00  0.00    -0.143 NA
ATOM      6  C   UNL d   1      44.710  29.073  60.366  0.00  0.00     0.185 A 
ATOM      7  N   UNL d   1      44.677  30.332  58.681  0.00  0.00    -0.227 NA
ATOM      8  C   UNL d   1      44.472  30.437  60.264  0.00  0.00     0.007 A 
ATOM      9  N   UNL d   1      44.608  29.114  61.166  0.00  0.00    -0.225 NA
ATOM     10  C   UNL d   1      44.949  29.575  57.549  0.00  0.00     0.057 A 
ATOM     11  C   UNL d   1      44.369  30.492  61.053  0.00  0.00     0.019 A 
ATOM     12  C   UNL d   1      44.778  30.286  57.893  0.00  0.00     0.086 A 
ATOM     13  C   UNL d   1      44.437  29.826  61.510  0.00  0.00     0.083 A 
ATOM     14  C   UNL d   1      44.405  31.094  59.807  0.00  0.00     0.000 C 
ATOM     15  C   UNL d   1      44.709  30.966  57.418  0.00  0.00     0.021 C 
ATOM     16  C   UNL d   1      44.336  29.874  62.295  0.00  0.00     0.021 C 
ENDROOT
BRANCH   4  17
ATOM     17  N   UNL d   1      45.190  28.191  57.654  0.00  0.00    -0.286 N 
ATOM     18  C   UNL d   1      44.476  28.161  57.238  0.00  0.00     0.101 A 
ATOM     19  C   UNL d   1      44.316  27.512  56.756  0.00  0.00     0.100 A 
ATOM     20  N   UNL d   1      44.869  26.891  56.689  0.00  0.00    -0.300 N 
ATOM     21  C   UNL d   1      45.587  26.933  57.114  0.00  0.00     0.100 A 
ATOM     22  C   UNL d   1      45.746  27.589  57.600  0.00  0.00     0.101 A 
BRANCH  20  23
ATOM     23  C   UNL d   1      44.712  26.232  56.202  0.00  0.00     0.080 C 
BRANCH  23  24
ATOM     24  C   UNL d   1      44.699  25.472  56.532  0.00  0.00     0.018 A 
ATOM     25  C   UNL d   1      44.327  25.333  57.262  0.00  0.00     0.004 A 
ATOM     26  C   UNL d   1      44.314  24.564  57.595  0.00  0.00     0.025 A 
ATOM     27  C   UNL d   1      44.678  23.931  57.190  0.00  0.00     0.100 A 
ATOM     28  C   UNL d   1      45.057  24.068  56.448  0.00  0.00     0.025 A 
ATOM     29  C   UNL d   1      45.061  24.838  56.130  0.00  0.00     0.004 A 
BRANCH  27  30
ATOM     30  O   UNL d   1      44.670  23.168  57.513  0.00  0.00    -0.305 OA
BRANCH  30  31
ATOM     31  C   UNL d   1      45.322  22.896  57.957  0.00  0.00     0.123 C 
ATOM     32  C   UNL d   1      45.437  22.074  58.068  0.00  0.00     0.029 C 
ENDBRANCH  30  31
ENDBRANCH  27  30
ENDBRANCH  23  24
ENDBRANCH  20  23
ENDBRANCH   4  17
TORSDOF 5
ENDMDL
