MODEL 1
REMARK VINA RESULT:      -9.6      0.000      0.000
REMARK  3 active torsions:
REMARK  status: ('A' for Active; 'I' for Inactive)
REMARK    1  A    between atoms: N_9  and  C_3 
REMARK    2  A    between atoms: C_14  and  C_5 
REMARK       I    between atoms: C_10  and  N_11 
REMARK    3  A    between atoms: C_13  and  C_10 
ROOT
ATOM      1  N   UNL d   1      52.030  33.860  53.376  0.00  0.00    -0.196 N 
ATOM      2  C   UNL d   1      52.682  33.440  53.655  0.00  0.00     0.167 A 
ATOM      3  C   UNL d   1      51.433  33.471  52.965  0.00  0.00     0.152 A 
ATOM      4  N   UNL d   1      52.125  34.646  53.588  0.00  0.00    -0.163 NA
ATOM      5  C   UNL d   1      53.176  33.969  54.037  0.00  0.00     0.055 A 
ATOM      6  C   UNL d   1      52.836  34.713  53.998  0.00  0.00     0.104 A 
ATOM      7  N   UNL d   1      52.737  32.630  53.523  0.00  0.00    -0.227 NA
ATOM      8  C   UNL d   1      51.486  32.652  52.830  0.00  0.00     0.057 A 
ATOM      9  C   UNL d   1      52.138  32.232  53.108  0.00  0.00     0.086 A 
ATOM     10  C   UNL d   1      53.155  35.404  54.315  0.00  0.00     0.023 C 
ATOM     11  C   UNL d   1      52.199  31.414  52.978  0.00  0.00     0.021 C 
ENDROOT
BRANCH   3  12
ATOM     12  N   UNL d   1      50.778  33.893  52.684  0.00  0.00    -0.286 N 
ATOM     13  C   UNL d   1      50.256  34.273  53.195  0.00  0.00     0.101 A 
ATOM     14  C   UNL d   1      49.611  34.687  52.893  0.00  0.00     0.102 A 
ATOM     15  N   UNL d   1      49.483  34.726  52.091  0.00  0.00    -0.267 N 
ATOM     16  C   UNL d   1      48.829  35.146  51.793  0.00  0.00     0.288 C 
ATOM     17  C   UNL d   1      50.005  34.345  51.567  0.00  0.00     0.102 A 
ATOM     18  O   UNL d   1      48.692  35.191  50.987  0.00  0.00    -0.264 OA
ATOM     19  C   UNL d   1      50.651  33.930  51.870  0.00  0.00     0.101 A 
BRANCH  16  20
ATOM     20  C   UNL d   1      48.317  35.520  52.321  0.00  0.00     0.156 A 
ATOM     21  O   UNL d   1      48.438  35.885  53.040  0.00  0.00    -0.300 OA
ATOM     22  C   UNL d   1      47.710  36.157  53.309  0.00  0.00     0.123 A 
ATOM     23  C   UNL d   1      47.145  35.966  52.769  0.00  0.00     0.029 A 
ATOM     24  C   UNL d   1      47.512  35.567  52.147  0.00  0.00     0.032 A 
ENDBRANCH  16  20
ENDBRANCH   3  12
BRANCH   5  25
ATOM     25  C   UNL d   1      53.903  33.866  54.423  0.00  0.00     0.004 A 
ATOM     26  C   UNL d   1      53.921  33.716  55.234  0.00  0.00     0.000 A 
ATOM     27  C   UNL d   1      54.648  33.613  55.619  0.00  0.00     0.000 A 
ATOM     28  C   UNL d   1      55.353  33.662  55.192  0.00  0.00     0.000 A 
ATOM     29  C   UNL d   1      55.333  33.813  54.377  0.00  0.00     0.000 A 
ATOM     30  C   UNL d   1      54.607  33.915  53.996  0.00  0.00     0.000 A 
ENDBRANCH   5  25
TORSDOF 3
ENDMDL
MODEL 2
REMARK VINA RESULT:      -7.2      1.348      2.210
REMARK  3 active torsions:
REMARK  status: ('A' for Active; 'I' for Inactive)
REMARK    1  A    between atoms: N_9  and  C_3 
REMARK    2  A    between atoms: C_14  and  C_5 
REMARK       I    between atoms: C_10  and  N_11 
REMARK    3  A    between atoms: C_13  and  C_10 
ROOT
ATOM      1  N   UNL d   1      51.458  33.441  53.069  0.00  0.00    -0.196 N 
ATOM      2  C   UNL d   1      52.220  33.150  53.186  0.00  0.00     0.167 A 
ATOM      3  C   UNL d   1      51.336  34.247  52.959  0.00  0.00     0.152 A 
ATOM      4  N   UNL d   1      50.938  32.807  53.091  0.00  0.00    -0.163 NA
ATOM      5  C   UNL d   1      52.166  32.338  53.278  0.00  0.00     0.055 A 
ATOM      6  C   UNL d   1      51.377  32.124  53.220  0.00  0.00     0.104 A 
ATOM      7  N   UNL d   1      52.861  33.665  53.191  0.00  0.00    -0.227 NA
ATOM      8  C   UNL d   1      51.981  34.770  52.964  0.00  0.00     0.057 A 
ATOM      9  C   UNL d   1      52.744  34.479  53.081  0.00  0.00     0.086 A 
ATOM     10  C   UNL d   1      51.084  31.357  53.281  0.00  0.00     0.023 C 
ATOM     11  C   UNL d   1      53.395  34.995  53.087  0.00  0.00     0.021 C 
ENDROOT
BRANCH   3  12
ATOM     12  N   UNL d   1      50.569  34.540  52.842  0.00  0.00    -0.286 N 
ATOM     13  C   UNL d   1      50.150  34.909  53.447  0.00  0.00     0.101 A 
ATOM     14  C   UNL d   1      49.388  35.192  53.307  0.00  0.00     0.102 A 
ATOM     15  N   UNL d   1      49.045  35.111  52.575  0.00  0.00    -0.267 N 
ATOM     16  C   UNL d   1      48.275  35.400  52.441  0.00  0.00     0.288 C 
ATOM     17  C   UNL d   1      49.461  34.740  51.958  0.00  0.00     0.102 A 
ATOM     18  O   UNL d   1      47.921  35.323  51.707  0.00  0.00    -0.264 OA
ATOM     19  C   UNL d   1      50.223  34.456  52.098  0.00  0.00     0.101 A 
BRANCH  16  20
ATOM     20  C   UNL d   1      47.871  35.766  53.060  0.00  0.00     0.156 A 
ATOM     21  O   UNL d   1      47.764  35.567  53.843  0.00  0.00    -0.300 OA
ATOM     22  C   UNL d   1      47.305  36.153  54.191  0.00  0.00     0.123 A 
ATOM     23  C   UNL d   1      47.128  36.709  53.636  0.00  0.00     0.029 A 
ATOM     24  C   UNL d   1      47.477  36.479  52.926  0.00  0.00     0.032 A 
ENDBRANCH  16  20
ENDBRANCH   3  12
BRANCH   5  25
ATOM     25  C   UNL d   1      52.744  31.758  53.409  0.00  0.00     0.004 A 
ATOM     26  C   UNL d   1      52.953  31.241  52.801  0.00  0.00     0.000 A 
ATOM     27  C   UNL d   1      53.531  30.661  52.933  0.00  0.00     0.000 A 
ATOM     28  C   UNL d   1      53.896  30.600  53.670  0.00  0.00     0.000 A 
ATOM     29  C   UNL d   1      53.684  31.121  54.280  0.00  0.00     0.000 A 
ATOM     30  C   UNL d   1      53.109  31.697  54.146  0.00  0.00     0.000 A 
ENDBRANCH   5  25
TORSDOF 3
ENDMDL
MODEL 3
REMARK VINA RESULT:      -6.8      1.711      3.106
REMARK  3 active torsions:
REMARK  status: ('A' for Active; 'I' for Inactive)
REMARK    1  A    between atoms: N_9  and  C_3 
REMARK    2  A    between atoms: C_14  and  C_5 
REMARK       I    between atoms: C_10  and  N_11 
REMARK    3  A    between atoms: C_13  and  C_10 
ROOT
ATOM      1  N   UNL d   1      52.615  31.834  53.559  0.00  0.00    -0.196 N 
ATOM      2  C   UNL d   1      53.152  31.374  53.981  0.00  0.00     0.167 A 
ATOM      3  C   UNL d   1      52.653  32.656  53.601  0.00  0.00     0.152 A 
ATOM      4  N   UNL d   1      52.112  31.331  53.152  0.00  0.00    -0.163 NA
ATOM      5  C   UNL d   1      52.978  30.588  53.832  0.00  0.00     0.055 A 
ATOM      6  C   UNL d   1      52.338  30.558  53.322  0.00  0.00     0.104 A 
ATOM      7  N   UNL d   1      53.728  31.733  54.445  0.00  0.00    -0.227 NA
ATOM      8  C   UNL d   1      53.234  33.022  54.069  0.00  0.00     0.057 A 
ATOM      9  C   UNL d   1      53.771  32.561  54.490  0.00  0.00     0.086 A 
ATOM     10  C   UNL d   1      51.987  29.871  53.033  0.00  0.00     0.023 C 
ATOM     11  C   UNL d   1      54.355  32.919  54.960  0.00  0.00     0.021 C 
ENDROOT
BRANCH   3  12
ATOM     12  N   UNL d   1      52.112  33.119  53.177  0.00  0.00    -0.286 N 
ATOM     13  C   UNL d   1      51.404  33.372  53.510  0.00  0.00     0.101 A 
ATOM     14  C   UNL d   1      50.882  33.833  53.069  0.00  0.00     0.102 A 
ATOM     15  N   UNL d   1      51.060  34.041  52.304  0.00  0.00    -0.267 N 
ATOM     16  C   UNL d   1      50.527  34.507  51.864  0.00  0.00     0.288 C 
ATOM     17  C   UNL d   1      51.773  33.790  51.959  0.00  0.00     0.102 A 
ATOM     18  O   UNL d   1      50.697  34.722  51.093  0.00  0.00    -0.264 OA
ATOM     19  C   UNL d   1      52.296  33.329  52.401  0.00  0.00     0.101 A 
BRANCH  16  20
ATOM     20  C   UNL d   1      49.822  34.750  52.216  0.00  0.00     0.156 A 
ATOM     21  O   UNL d   1      49.654  35.084  52.941  0.00  0.00    -0.300 OA
ATOM     22  C   UNL d   1      48.842  35.207  52.978  0.00  0.00     0.123 A 
ATOM     23  C   UNL d   1      48.508  34.955  52.290  0.00  0.00     0.029 A 
ATOM     24  C   UNL d   1      49.110  34.668  51.806  0.00  0.00     0.032 A 
ENDBRANCH  16  20
ENDBRANCH   3  12
BRANCH   5  25
ATOM     25  C   UNL d   1      53.327  29.885  54.100  0.00  0.00     0.004 A 
ATOM     26  C   UNL d   1      53.962  29.557  53.687  0.00  0.00     0.000 A 
ATOM     27  C   UNL d   1      54.311  28.854  53.955  0.00  0.00     0.000 A 
ATOM     28  C   UNL d   1      54.023  28.482  54.634  0.00  0.00     0.000 A 
ATOM     29  C   UNL d   1      53.385  28.813  55.047  0.00  0.00     0.000 A 
ATOM     30  C   UNL d   1      53.040  29.513  54.778  0.00  0.00     0.000 A 
ENDBRANCH   5  25
TORSDOF 3
ENDMDL
