MODEL 1
REMARK VINA RESULT:      -4.6      0.000      0.000
REMARK  11 active torsions:
REMARK  status: ('A' for Active; 'I' for Inactive)
REMARK    1  A    between atoms: C_3  and  C_1 
REMARK    2  A    between atoms: N_4  and  C_1 
REMARK    3  A    between atoms: C_5  and  C_1 
REMARK       I    between atoms: C_2  and  N_4 
REMARK    4  A    between atoms: O_10  and  C_2 
REMARK    5  A    between atoms: O_7  and  C_3 
REMARK    6  A    between atoms: C_12  and  C_5 
REMARK    7  A    between atoms: C_6  and  C_12 
REMARK    8  A    between atoms: C_13  and  O_7 
REMARK    9  A    between atoms: C_15  and  O_10 
REMARK   10  A    between atoms: C_16  and  C_13 
REMARK   11  A    between atoms: C_17  and  C_15 
ROOT
ATOM      1  C   UNL d   1     -46.904  12.974  22.609  0.00  0.00     0.150 C 
ENDROOT
BRANCH   1   2
ATOM      2  C   UNL d   1     -47.463  12.715  22.060  0.00  0.00     0.318 C 
ATOM      3  O   UNL d   1     -47.291  12.740  21.251  0.00  0.00    -0.257 OA
BRANCH   2   4
ATOM      4  O   UNL d   1     -48.200  12.429  22.317  0.00  0.00    -0.270 OA
BRANCH   4   5
ATOM      5  C   UNL d   1     -48.803  11.863  22.295  0.00  0.00     0.126 C 
BRANCH   5   6
ATOM      6  C   UNL d   1     -49.545  12.049  22.603  0.00  0.00     0.025 A 
ATOM      7  C   UNL d   1     -49.775  11.746  23.328  0.00  0.00     0.002 A 
ATOM      8  C   UNL d   1     -50.507  11.926  23.637  0.00  0.00     0.000 A 
ATOM      9  C   UNL d   1     -51.030  12.420  23.220  0.00  0.00     0.000 A 
ATOM     10  C   UNL d   1     -50.791  12.727  22.481  0.00  0.00     0.000 A 
ATOM     11  C   UNL d   1     -50.055  12.540  22.180  0.00  0.00     0.002 A 
ENDBRANCH   5   6
ENDBRANCH   4   5
ENDBRANCH   2   4
ENDBRANCH   1   2
BRANCH   1  12
ATOM     12  N   UNL d   1     -46.610  12.451  23.175  0.00  0.00    -0.180 NA
ATOM     13  C   UNL d   1     -45.827  12.189  23.129  0.00  0.00     0.393 C 
ATOM     14  O   UNL d   1     -45.534  11.664  23.698  0.00  0.00    -0.236 OA
BRANCH  13  15
ATOM     15  O   UNL d   1     -45.339  12.451  22.518  0.00  0.00    -0.256 OA
BRANCH  15  16
ATOM     16  C   UNL d   1     -44.717  11.975  22.253  0.00  0.00     0.128 C 
BRANCH  16  17
ATOM     17  C   UNL d   1     -44.049  12.329  21.923  0.00  0.00     0.025 A 
ATOM     18  C   UNL d   1     -43.302  12.145  22.225  0.00  0.00     0.002 A 
ATOM     19  C   UNL d   1     -42.624  12.500  21.895  0.00  0.00     0.000 A 
ATOM     20  C   UNL d   1     -42.698  13.033  21.270  0.00  0.00     0.000 A 
ATOM     21  C   UNL d   1     -43.453  13.213  20.973  0.00  0.00     0.000 A 
ATOM     22  C   UNL d   1     -44.125  12.860  21.301  0.00  0.00     0.002 A 
ENDBRANCH  16  17
ENDBRANCH  15  16
ENDBRANCH  13  15
ENDBRANCH   1  12
BRANCH   1  23
ATOM     23  C   UNL d   1     -46.640  13.758  22.592  0.00  0.00     0.031 C 
BRANCH  23  24
ATOM     24  C   UNL d   1     -47.090  14.354  22.942  0.00  0.00     0.072 C 
BRANCH  24  25
ATOM     25  C   UNL d   1     -47.008  15.137  22.691  0.00  0.00     0.211 C 
ATOM     26  O   UNL d   1     -46.257  15.482  22.622  0.00  0.00    -0.644 OA
ATOM     27  O   UNL d   1     -47.676  15.592  22.503  0.00  0.00    -0.644 OA
ENDBRANCH  24  25
ENDBRANCH  23  24
ENDBRANCH   1  23
TORSDOF 11
ENDMDL
MODEL 2
REMARK VINA RESULT:      -4.3      1.705      4.816
REMARK  11 active torsions:
REMARK  status: ('A' for Active; 'I' for Inactive)
REMARK    1  A    between atoms: C_3  and  C_1 
REMARK    2  A    between atoms: N_4  and  C_1 
REMARK    3  A    between atoms: C_5  and  C_1 
REMARK       I    between atoms: C_2  and  N_4 
REMARK    4  A    between atoms: O_10  and  C_2 
REMARK    5  A    between atoms: O_7  and  C_3 
REMARK    6  A    between atoms: C_12  and  C_5 
REMARK    7  A    between atoms: C_6  and  C_12 
REMARK    8  A    between atoms: C_13  and  O_7 
REMARK    9  A    between atoms: C_15  and  O_10 
REMARK   10  A    between atoms: C_16  and  C_13 
REMARK   11  A    between atoms: C_17  and  C_15 
ROOT
ATOM      1  C   UNL d   1     -48.552  14.822  22.239  0.00  0.00     0.150 C 
ENDROOT
BRANCH   1   2
ATOM      2  C   UNL d   1     -47.773  14.962  22.472  0.00  0.00     0.318 C 
ATOM      3  O   UNL d   1     -47.388  15.654  22.233  0.00  0.00    -0.257 OA
BRANCH   2   4
ATOM      4  O   UNL d   1     -47.373  14.410  22.947  0.00  0.00    -0.270 OA
BRANCH   4   5
ATOM      5  C   UNL d   1     -46.697  14.164  23.355  0.00  0.00     0.126 C 
BRANCH   5   6
ATOM      6  C   UNL d   1     -46.281  13.503  23.089  0.00  0.00     0.025 A 
ATOM      7  C   UNL d   1     -46.378  12.780  23.462  0.00  0.00     0.002 A 
ATOM      8  C   UNL d   1     -45.970  12.124  23.204  0.00  0.00     0.000 A 
ATOM      9  C   UNL d   1     -45.449  12.180  22.558  0.00  0.00     0.000 A 
ATOM     10  C   UNL d   1     -45.353  12.919  22.181  0.00  0.00     0.000 A 
ATOM     11  C   UNL d   1     -45.767  13.571  22.448  0.00  0.00     0.002 A 
ENDBRANCH   5   6
ENDBRANCH   4   5
ENDBRANCH   2   4
ENDBRANCH   1   2
BRANCH   1  12
ATOM     12  N   UNL d   1     -48.711  14.548  21.478  0.00  0.00    -0.180 NA
ATOM     13  C   UNL d   1     -49.074  13.812  21.370  0.00  0.00     0.393 C 
ATOM     14  O   UNL d   1     -49.233  13.539  20.604  0.00  0.00    -0.236 OA
BRANCH  13  15
ATOM     15  O   UNL d   1     -49.278  13.352  22.023  0.00  0.00    -0.256 OA
BRANCH  15  16
ATOM     16  C   UNL d   1     -49.420  12.543  21.932  0.00  0.00     0.128 C 
BRANCH  16  17
ATOM     17  C   UNL d   1     -49.833  12.135  22.517  0.00  0.00     0.025 A 
ATOM     18  C   UNL d   1     -49.455  11.530  22.933  0.00  0.00     0.002 A 
ATOM     19  C   UNL d   1     -49.868  11.115  23.526  0.00  0.00     0.000 A 
ATOM     20  C   UNL d   1     -50.652  11.309  23.698  0.00  0.00     0.000 A 
ATOM     21  C   UNL d   1     -51.024  11.919  23.274  0.00  0.00     0.000 A 
ATOM     22  C   UNL d   1     -50.614  12.330  22.686  0.00  0.00     0.002 A 
ENDBRANCH  16  17
ENDBRANCH  15  16
ENDBRANCH  13  15
ENDBRANCH   1  12
BRANCH   1  23
ATOM     23  C   UNL d   1     -49.173  14.956  22.769  0.00  0.00     0.031 C 
BRANCH  23  24
ATOM     24  C   UNL d   1     -49.512  15.706  22.829  0.00  0.00     0.072 C 
BRANCH  24  25
ATOM     25  C   UNL d   1     -50.327  15.785  22.937  0.00  0.00     0.211 C 
ATOM     26  O   UNL d   1     -50.644  15.882  23.697  0.00  0.00    -0.644 OA
ATOM     27  O   UNL d   1     -50.842  15.769  22.287  0.00  0.00    -0.644 OA
ENDBRANCH  24  25
ENDBRANCH  23  24
ENDBRANCH   1  23
TORSDOF 11
ENDMDL
MODEL 3
REMARK VINA RESULT:      -4.2      6.824      9.141
REMARK  11 active torsions:
REMARK  status: ('A' for Active; 'I' for Inactive)
REMARK    1  A    between atoms: C_3  and  C_1 
REMARK    2  A    between atoms: N_4  and  C_1 
REMARK    3  A    between atoms: C_5  and  C_1 
REMARK       I    between atoms: C_2  and  N_4 
REMARK    4  A    between atoms: O_10  and  C_2 
REMARK    5  A    between atoms: O_7  and  C_3 
REMARK    6  A    between atoms: C_12  and  C_5 
REMARK    7  A    between atoms: C_6  and  C_12 
REMARK    8  A    between atoms: C_13  and  O_7 
REMARK    9  A    between atoms: C_15  and  O_10 
REMARK   10  A    between atoms: C_16  and  C_13 
REMARK   11  A    between atoms: C_17  and  C_15 
ROOT
ATOM      1  C   UNL d   1     -38.287  14.330  18.923  0.00  0.00     0.150 C 
ENDROOT
BRANCH   1   2
ATOM      2  C   UNL d   1     -38.408  15.130  18.764  0.00  0.00     0.318 C 
ATOM      3  O   UNL d   1     -37.981  15.704  19.179  0.00  0.00    -0.257 OA
BRANCH   2   4
ATOM      4  O   UNL d   1     -38.958  15.362  18.185  0.00  0.00    -0.270 OA
BRANCH   4   5
ATOM      5  C   UNL d   1     -39.203  15.879  17.587  0.00  0.00     0.126 C 
BRANCH   5   6
ATOM      6  C   UNL d   1     -39.966  15.813  17.283  0.00  0.00     0.025 A 
ATOM      7  C   UNL d   1     -40.614  15.922  17.772  0.00  0.00     0.002 A 
ATOM      8  C   UNL d   1     -41.370  15.858  17.477  0.00  0.00     0.000 A 
ATOM      9  C   UNL d   1     -41.495  15.681  16.674  0.00  0.00     0.000 A 
ATOM     10  C   UNL d   1     -40.832  15.571  16.178  0.00  0.00     0.000 A 
ATOM     11  C   UNL d   1     -40.077  15.637  16.484  0.00  0.00     0.002 A 
ENDBRANCH   5   6
ENDBRANCH   4   5
ENDBRANCH   2   4
ENDBRANCH   1   2
BRANCH   1  12
ATOM     12  N   UNL d   1     -37.940  14.100  19.636  0.00  0.00    -0.180 NA
ATOM     13  C   UNL d   1     -38.393  14.068  20.326  0.00  0.00     0.393 C 
ATOM     14  O   UNL d   1     -38.043  13.837  21.040  0.00  0.00    -0.236 OA
BRANCH  13  15
ATOM     15  O   UNL d   1     -39.194  14.264  20.304  0.00  0.00    -0.256 OA
BRANCH  15  16
ATOM     16  C   UNL d   1     -39.649  14.226  20.993  0.00  0.00     0.128 C 
BRANCH  16  17
ATOM     17  C   UNL d   1     -40.427  14.501  20.981  0.00  0.00     0.025 A 
ATOM     18  C   UNL d   1     -41.039  13.976  20.802  0.00  0.00     0.002 A 
ATOM     19  C   UNL d   1     -41.826  14.248  20.788  0.00  0.00     0.000 A 
ATOM     20  C   UNL d   1     -41.994  15.040  20.953  0.00  0.00     0.000 A 
ATOM     21  C   UNL d   1     -41.372  15.561  21.132  0.00  0.00     0.000 A 
ATOM     22  C   UNL d   1     -40.591  15.289  21.145  0.00  0.00     0.002 A 
ENDBRANCH  16  17
ENDBRANCH  15  16
ENDBRANCH  13  15
ENDBRANCH   1  12
BRANCH   1  23
ATOM     23  C   UNL d   1     -38.514  13.758  18.371  0.00  0.00     0.031 C 
BRANCH  23  24
ATOM     24  C   UNL d   1     -38.056  13.079  18.265  0.00  0.00     0.072 C 
BRANCH  24  25
ATOM     25  C   UNL d   1     -38.300  12.494  17.736  0.00  0.00     0.211 C 
ATOM     26  O   UNL d   1     -38.787  12.683  17.092  0.00  0.00    -0.644 OA
ATOM     27  O   UNL d   1     -38.061  11.706  17.839  0.00  0.00    -0.644 OA
ENDBRANCH  24  25
ENDBRANCH  23  24
ENDBRANCH   1  23
TORSDOF 11
ENDMDL
MODEL 4
REMARK VINA RESULT:      -4.1      6.312      8.991
REMARK  11 active torsions:
REMARK  status: ('A' for Active; 'I' for Inactive)
REMARK    1  A    between atoms: C_3  and  C_1 
REMARK    2  A    between atoms: N_4  and  C_1 
REMARK    3  A    between atoms: C_5  and  C_1 
REMARK       I    between atoms: C_2  and  N_4 
REMARK    4  A    between atoms: O_10  and  C_2 
REMARK    5  A    between atoms: O_7  and  C_3 
REMARK    6  A    between atoms: C_12  and  C_5 
REMARK    7  A    between atoms: C_6  and  C_12 
REMARK    8  A    between atoms: C_13  and  O_7 
REMARK    9  A    between atoms: C_15  and  O_10 
REMARK   10  A    between atoms: C_16  and  C_13 
REMARK   11  A    between atoms: C_17  and  C_15 
ROOT
ATOM      1  C   UNL d   1     -38.865  14.743  18.810  0.00  0.00     0.150 C 
ENDROOT
BRANCH   1   2
ATOM      2  C   UNL d   1     -38.400  15.072  19.407  0.00  0.00     0.318 C 
ATOM      3  O   UNL d   1     -37.962  15.758  19.259  0.00  0.00    -0.257 OA
BRANCH   2   4
ATOM      4  O   UNL d   1     -38.369  14.716  20.158  0.00  0.00    -0.270 OA
BRANCH   4   5
ATOM      5  C   UNL d   1     -37.940  14.399  20.789  0.00  0.00     0.126 C 
BRANCH   5   6
ATOM      6  C   UNL d   1     -38.268  14.406  21.546  0.00  0.00     0.025 A 
ATOM      7  C   UNL d   1     -38.472  13.701  21.911  0.00  0.00     0.002 A 
ATOM      8  C   UNL d   1     -38.796  13.702  22.658  0.00  0.00     0.000 A 
ATOM      9  C   UNL d   1     -38.925  14.419  23.060  0.00  0.00     0.000 A 
ATOM     10  C   UNL d   1     -38.716  15.135  22.684  0.00  0.00     0.000 A 
ATOM     11  C   UNL d   1     -38.391  15.123  21.934  0.00  0.00     0.002 A 
ENDBRANCH   5   6
ENDBRANCH   4   5
ENDBRANCH   2   4
ENDBRANCH   1   2
BRANCH   1  12
ATOM     12  N   UNL d   1     -39.355  15.228  18.357  0.00  0.00    -0.180 NA
ATOM     13  C   UNL d   1     -40.158  15.297  18.545  0.00  0.00     0.393 C 
ATOM     14  O   UNL d   1     -40.648  15.784  18.089  0.00  0.00    -0.236 OA
BRANCH  13  15
ATOM     15  O   UNL d   1     -40.468  14.882  19.187  0.00  0.00    -0.256 OA
BRANCH  15  16
ATOM     16  C   UNL d   1     -41.285  14.870  19.316  0.00  0.00     0.128 C 
BRANCH  16  17
ATOM     17  C   UNL d   1     -41.582  14.520  20.000  0.00  0.00     0.025 A 
ATOM     18  C   UNL d   1     -41.786  14.996  20.644  0.00  0.00     0.002 A 
ATOM     19  C   UNL d   1     -42.087  14.647  21.338  0.00  0.00     0.000 A 
ATOM     20  C   UNL d   1     -42.180  13.828  21.383  0.00  0.00     0.000 A 
ATOM     21  C   UNL d   1     -41.973  13.356  20.730  0.00  0.00     0.000 A 
ATOM     22  C   UNL d   1     -41.675  13.704  20.043  0.00  0.00     0.002 A 
ENDBRANCH  16  17
ENDBRANCH  15  16
ENDBRANCH  13  15
ENDBRANCH   1  12
BRANCH   1  23
ATOM     23  C   UNL d   1     -38.840  13.929  18.667  0.00  0.00     0.031 C 
BRANCH  23  24
ATOM     24  C   UNL d   1     -38.422  13.636  18.018  0.00  0.00     0.072 C 
BRANCH  24  25
ATOM     25  C   UNL d   1     -38.517  12.849  17.786  0.00  0.00     0.211 C 
ATOM     26  O   UNL d   1     -38.068  12.247  18.138  0.00  0.00    -0.644 OA
ATOM     27  O   UNL d   1     -39.064  12.647  17.196  0.00  0.00    -0.644 OA
ENDBRANCH  24  25
ENDBRANCH  23  24
ENDBRANCH   1  23
TORSDOF 11
ENDMDL
MODEL 5
REMARK VINA RESULT:      -3.9      1.318      5.323
REMARK  11 active torsions:
REMARK  status: ('A' for Active; 'I' for Inactive)
REMARK    1  A    between atoms: C_3  and  C_1 
REMARK    2  A    between atoms: N_4  and  C_1 
REMARK    3  A    between atoms: C_5  and  C_1 
REMARK       I    between atoms: C_2  and  N_4 
REMARK    4  A    between atoms: O_10  and  C_2 
REMARK    5  A    between atoms: O_7  and  C_3 
REMARK    6  A    between atoms: C_12  and  C_5 
REMARK    7  A    between atoms: C_6  and  C_12 
REMARK    8  A    between atoms: C_13  and  O_7 
REMARK    9  A    between atoms: C_15  and  O_10 
REMARK   10  A    between atoms: C_16  and  C_13 
REMARK   11  A    between atoms: C_17  and  C_15 
ROOT
ATOM      1  C   UNL d   1     -46.946  13.182  22.687  0.00  0.00     0.150 C 
ENDROOT
BRANCH   1   2
ATOM      2  C   UNL d   1     -46.458  12.926  22.073  0.00  0.00     0.318 C 
ATOM      3  O   UNL d   1     -46.790  12.616  21.382  0.00  0.00    -0.257 OA
BRANCH   2   4
ATOM      4  O   UNL d   1     -45.631  12.978  22.147  0.00  0.00    -0.270 OA
BRANCH   4   5
ATOM      5  C   UNL d   1     -44.925  13.402  22.076  0.00  0.00     0.126 C 
BRANCH   5   6
ATOM      6  C   UNL d   1     -44.226  13.000  21.900  0.00  0.00     0.025 A 
ATOM      7  C   UNL d   1     -44.022  12.328  22.321  0.00  0.00     0.002 A 
ATOM      8  C   UNL d   1     -43.334  11.927  22.151  0.00  0.00     0.000 A 
ATOM      9  C   UNL d   1     -42.829  12.196  21.547  0.00  0.00     0.000 A 
ATOM     10  C   UNL d   1     -43.041  12.881  21.120  0.00  0.00     0.000 A 
ATOM     11  C   UNL d   1     -43.734  13.276  21.298  0.00  0.00     0.002 A 
ENDBRANCH   5   6
ENDBRANCH   4   5
ENDBRANCH   2   4
ENDBRANCH   1   2
BRANCH   1  12
ATOM     12  N   UNL d   1     -46.861  13.945  22.988  0.00  0.00    -0.180 NA
ATOM     13  C   UNL d   1     -47.471  14.496  22.898  0.00  0.00     0.393 C 
ATOM     14  O   UNL d   1     -47.384  15.262  23.201  0.00  0.00    -0.236 OA
BRANCH  13  15
ATOM     15  O   UNL d   1     -48.166  14.283  22.507  0.00  0.00    -0.256 OA
BRANCH  15  16
ATOM     16  C   UNL d   1     -48.760  14.845  22.382  0.00  0.00     0.128 C 
BRANCH  16  17
ATOM     17  C   UNL d   1     -49.527  14.593  22.215  0.00  0.00     0.025 A 
ATOM     18  C   UNL d   1     -49.683  14.216  21.497  0.00  0.00     0.002 A 
ATOM     19  C   UNL d   1     -50.456  13.960  21.323  0.00  0.00     0.000 A 
ATOM     20  C   UNL d   1     -51.064  14.082  21.867  0.00  0.00     0.000 A 
ATOM     21  C   UNL d   1     -50.899  14.461  22.588  0.00  0.00     0.000 A 
ATOM     22  C   UNL d   1     -50.131  14.715  22.758  0.00  0.00     0.002 A 
ENDBRANCH  16  17
ENDBRANCH  15  16
ENDBRANCH  13  15
ENDBRANCH   1  12
BRANCH   1  23
ATOM     23  C   UNL d   1     -47.519  12.675  22.999  0.00  0.00     0.031 C 
BRANCH  23  24
ATOM     24  C   UNL d   1     -47.295  12.046  23.484  0.00  0.00     0.072 C 
BRANCH  24  25
ATOM     25  C   UNL d   1     -47.805  11.405  23.593  0.00  0.00     0.211 C 
ATOM     26  O   UNL d   1     -47.504  10.639  23.698  0.00  0.00    -0.644 OA
ATOM     27  O   UNL d   1     -48.627  11.516  23.600  0.00  0.00    -0.644 OA
ENDBRANCH  24  25
ENDBRANCH  23  24
ENDBRANCH   1  23
TORSDOF 11
ENDMDL
MODEL 6
REMARK VINA RESULT:      -3.7      1.204      5.551
REMARK  11 active torsions:
REMARK  status: ('A' for Active; 'I' for Inactive)
REMARK    1  A    between atoms: C_3  and  C_1 
REMARK    2  A    between atoms: N_4  and  C_1 
REMARK    3  A    between atoms: C_5  and  C_1 
REMARK       I    between atoms: C_2  and  N_4 
REMARK    4  A    between atoms: O_10  and  C_2 
REMARK    5  A    between atoms: O_7  and  C_3 
REMARK    6  A    between atoms: C_12  and  C_5 
REMARK    7  A    between atoms: C_6  and  C_12 
REMARK    8  A    between atoms: C_13  and  O_7 
REMARK    9  A    between atoms: C_15  and  O_10 
REMARK   10  A    between atoms: C_16  and  C_13 
REMARK   11  A    between atoms: C_17  and  C_15 
ROOT
ATOM      1  C   UNL d   1     -45.161  12.674  22.412  0.00  0.00     0.150 C 
ENDROOT
BRANCH   1   2
ATOM      2  C   UNL d   1     -44.789  12.673  21.675  0.00  0.00     0.318 C 
ATOM      3  O   UNL d   1     -45.232  12.541  20.989  0.00  0.00    -0.257 OA
BRANCH   2   4
ATOM      4  O   UNL d   1     -43.970  12.805  21.619  0.00  0.00    -0.270 OA
BRANCH   4   5
ATOM      5  C   UNL d   1     -43.217  12.574  21.369  0.00  0.00     0.126 C 
BRANCH   5   6
ATOM      6  C   UNL d   1     -42.626  13.143  21.283  0.00  0.00     0.025 A 
ATOM      7  C   UNL d   1     -42.799  13.863  20.933  0.00  0.00     0.002 A 
ATOM      8  C   UNL d   1     -42.219  14.429  20.845  0.00  0.00     0.000 A 
ATOM      9  C   UNL d   1     -41.445  14.282  21.109  0.00  0.00     0.000 A 
ATOM     10  C   UNL d   1     -41.272  13.547  21.465  0.00  0.00     0.000 A 
ATOM     11  C   UNL d   1     -41.861  12.986  21.549  0.00  0.00     0.002 A 
ENDBRANCH   5   6
ENDBRANCH   4   5
ENDBRANCH   2   4
ENDBRANCH   1   2
BRANCH   1  12
ATOM     12  N   UNL d   1     -45.281  13.385  22.811  0.00  0.00    -0.180 NA
ATOM     13  C   UNL d   1     -46.041  13.707  22.863  0.00  0.00     0.393 C 
ATOM     14  O   UNL d   1     -46.161  14.422  23.265  0.00  0.00    -0.236 OA
BRANCH  13  15
ATOM     15  O   UNL d   1     -46.680  13.316  22.517  0.00  0.00    -0.256 OA
BRANCH  15  16
ATOM     16  C   UNL d   1     -47.437  13.648  22.553  0.00  0.00     0.128 C 
BRANCH  16  17
ATOM     17  C   UNL d   1     -48.086  13.201  22.311  0.00  0.00     0.025 A 
ATOM     18  C   UNL d   1     -48.488  12.737  22.864  0.00  0.00     0.002 A 
ATOM     19  C   UNL d   1     -49.145  12.284  22.624  0.00  0.00     0.000 A 
ATOM     20  C   UNL d   1     -49.393  12.299  21.837  0.00  0.00     0.000 A 
ATOM     21  C   UNL d   1     -48.983  12.768  21.288  0.00  0.00     0.000 A 
ATOM     22  C   UNL d   1     -48.332  13.217  21.527  0.00  0.00     0.002 A 
ENDBRANCH  16  17
ENDBRANCH  15  16
ENDBRANCH  13  15
ENDBRANCH   1  12
BRANCH   1  23
ATOM     23  C   UNL d   1     -45.412  11.962  22.749  0.00  0.00     0.031 C 
BRANCH  23  24
ATOM     24  C   UNL d   1     -44.903  11.534  23.238  0.00  0.00     0.072 C 
BRANCH  24  25
ATOM     25  C   UNL d   1     -45.137  10.802  23.541  0.00  0.00     0.211 C 
ATOM     26  O   UNL d   1     -45.937  10.644  23.693  0.00  0.00    -0.644 OA
ATOM     27  O   UNL d   1     -44.577  10.211  23.697  0.00  0.00    -0.644 OA
ENDBRANCH  24  25
ENDBRANCH  23  24
ENDBRANCH   1  23
TORSDOF 11
ENDMDL
MODEL 7
REMARK VINA RESULT:      -3.7      1.153      4.826
REMARK  11 active torsions:
REMARK  status: ('A' for Active; 'I' for Inactive)
REMARK    1  A    between atoms: C_3  and  C_1 
REMARK    2  A    between atoms: N_4  and  C_1 
REMARK    3  A    between atoms: C_5  and  C_1 
REMARK       I    between atoms: C_2  and  N_4 
REMARK    4  A    between atoms: O_10  and  C_2 
REMARK    5  A    between atoms: O_7  and  C_3 
REMARK    6  A    between atoms: C_12  and  C_5 
REMARK    7  A    between atoms: C_6  and  C_12 
REMARK    8  A    between atoms: C_13  and  O_7 
REMARK    9  A    between atoms: C_15  and  O_10 
REMARK   10  A    between atoms: C_16  and  C_13 
REMARK   11  A    between atoms: C_17  and  C_15 
ROOT
ATOM      1  C   UNL d   1     -46.848  12.862  22.659  0.00  0.00     0.150 C 
ENDROOT
BRANCH   1   2
ATOM      2  C   UNL d   1     -46.207  12.567  22.232  0.00  0.00     0.318 C 
ATOM      3  O   UNL d   1     -46.174  12.667  21.412  0.00  0.00    -0.257 OA
BRANCH   2   4
ATOM      4  O   UNL d   1     -45.591  12.168  22.625  0.00  0.00    -0.270 OA
BRANCH   4   5
ATOM      5  C   UNL d   1     -44.842  12.162  22.974  0.00  0.00     0.126 C 
BRANCH   5   6
ATOM      6  C   UNL d   1     -44.478  11.440  23.141  0.00  0.00     0.025 A 
ATOM      7  C   UNL d   1     -43.700  11.313  22.921  0.00  0.00     0.002 A 
ATOM      8  C   UNL d   1     -43.336  10.602  23.084  0.00  0.00     0.000 A 
ATOM      9  C   UNL d   1     -43.751   9.998  23.475  0.00  0.00     0.000 A 
ATOM     10  C   UNL d   1     -44.544  10.131  23.698  0.00  0.00     0.000 A 
ATOM     11  C   UNL d   1     -44.900  10.848  23.530  0.00  0.00     0.002 A 
ENDBRANCH   5   6
ENDBRANCH   4   5
ENDBRANCH   2   4
ENDBRANCH   1   2
BRANCH   1  12
ATOM     12  N   UNL d   1     -47.211  12.393  23.232  0.00  0.00    -0.180 NA
ATOM     13  C   UNL d   1     -47.984  12.122  23.117  0.00  0.00     0.393 C 
ATOM     14  O   UNL d   1     -48.347  11.651  23.694  0.00  0.00    -0.236 OA
BRANCH  13  15
ATOM     15  O   UNL d   1     -48.393  12.321  22.429  0.00  0.00    -0.256 OA
BRANCH  15  16
ATOM     16  C   UNL d   1     -49.119  11.961  22.260  0.00  0.00     0.128 C 
BRANCH  16  17
ATOM     17  C   UNL d   1     -49.746  12.423  21.990  0.00  0.00     0.025 A 
ATOM     18  C   UNL d   1     -50.275  12.748  22.535  0.00  0.00     0.002 A 
ATOM     19  C   UNL d   1     -50.910  13.215  22.267  0.00  0.00     0.000 A 
ATOM     20  C   UNL d   1     -51.011  13.353  21.460  0.00  0.00     0.000 A 
ATOM     21  C   UNL d   1     -50.475  13.023  20.918  0.00  0.00     0.000 A 
ATOM     22  C   UNL d   1     -49.845  12.559  21.186  0.00  0.00     0.002 A 
ENDBRANCH  16  17
ENDBRANCH  15  16
ENDBRANCH  13  15
ENDBRANCH   1  12
BRANCH   1  23
ATOM     23  C   UNL d   1     -47.127  13.626  22.512  0.00  0.00     0.031 C 
BRANCH  23  24
ATOM     24  C   UNL d   1     -46.824  14.266  22.937  0.00  0.00     0.072 C 
BRANCH  24  25
ATOM     25  C   UNL d   1     -46.979  15.039  22.689  0.00  0.00     0.211 C 
ATOM     26  O   UNL d   1     -47.747  15.266  22.474  0.00  0.00    -0.644 OA
ATOM     27  O   UNL d   1     -46.370  15.600  22.651  0.00  0.00    -0.644 OA
ENDBRANCH  24  25
ENDBRANCH  23  24
ENDBRANCH   1  23
TORSDOF 11
ENDMDL
MODEL 8
REMARK VINA RESULT:      -3.5      0.661      5.004
REMARK  11 active torsions:
REMARK  status: ('A' for Active; 'I' for Inactive)
REMARK    1  A    between atoms: C_3  and  C_1 
REMARK    2  A    between atoms: N_4  and  C_1 
REMARK    3  A    between atoms: C_5  and  C_1 
REMARK       I    between atoms: C_2  and  N_4 
REMARK    4  A    between atoms: O_10  and  C_2 
REMARK    5  A    between atoms: O_7  and  C_3 
REMARK    6  A    between atoms: C_12  and  C_5 
REMARK    7  A    between atoms: C_6  and  C_12 
REMARK    8  A    between atoms: C_13  and  O_7 
REMARK    9  A    between atoms: C_15  and  O_10 
REMARK   10  A    between atoms: C_16  and  C_13 
REMARK   11  A    between atoms: C_17  and  C_15 
ROOT
ATOM      1  C   UNL d   1     -46.730  13.010  22.494  0.00  0.00     0.150 C 
ENDROOT
BRANCH   1   2
ATOM      2  C   UNL d   1     -46.197  12.892  21.876  0.00  0.00     0.318 C 
ATOM      3  O   UNL d   1     -46.461  12.914  21.092  0.00  0.00    -0.257 OA
BRANCH   2   4
ATOM      4  O   UNL d   1     -45.394  12.750  22.038  0.00  0.00    -0.270 OA
BRANCH   4   5
ATOM      5  C   UNL d   1     -44.747  12.238  22.088  0.00  0.00     0.126 C 
BRANCH   5   6
ATOM      6  C   UNL d   1     -44.003  12.499  21.845  0.00  0.00     0.025 A 
ATOM      7  C   UNL d   1     -43.328  12.115  22.105  0.00  0.00     0.002 A 
ATOM      8  C   UNL d   1     -42.591  12.368  21.868  0.00  0.00     0.000 A 
ATOM      9  C   UNL d   1     -42.515  13.020  21.357  0.00  0.00     0.000 A 
ATOM     10  C   UNL d   1     -43.206  13.409  21.094  0.00  0.00     0.000 A 
ATOM     11  C   UNL d   1     -43.940  13.147  21.338  0.00  0.00     0.002 A 
ENDBRANCH   5   6
ENDBRANCH   4   5
ENDBRANCH   2   4
ENDBRANCH   1   2
BRANCH   1  12
ATOM     12  N   UNL d   1     -46.839  12.422  23.062  0.00  0.00    -0.180 NA
ATOM     13  C   UNL d   1     -47.567  12.034  23.123  0.00  0.00     0.393 C 
ATOM     14  O   UNL d   1     -47.674  11.444  23.694  0.00  0.00    -0.236 OA
BRANCH  13  15
ATOM     15  O   UNL d   1     -48.186  12.236  22.617  0.00  0.00    -0.256 OA
BRANCH  15  16
ATOM     16  C   UNL d   1     -48.882  11.789  22.615  0.00  0.00     0.128 C 
BRANCH  16  17
ATOM     17  C   UNL d   1     -49.594  12.150  22.409  0.00  0.00     0.025 A 
ATOM     18  C   UNL d   1     -50.118  12.383  23.004  0.00  0.00     0.002 A 
ATOM     19  C   UNL d   1     -50.839  12.747  22.801  0.00  0.00     0.000 A 
ATOM     20  C   UNL d   1     -51.029  12.876  22.008  0.00  0.00     0.000 A 
ATOM     21  C   UNL d   1     -50.496  12.639  21.416  0.00  0.00     0.000 A 
ATOM     22  C   UNL d   1     -49.781  12.277  21.619  0.00  0.00     0.002 A 
ENDBRANCH  16  17
ENDBRANCH  15  16
ENDBRANCH  13  15
ENDBRANCH   1  12
BRANCH   1  23
ATOM     23  C   UNL d   1     -47.155  13.717  22.545  0.00  0.00     0.031 C 
BRANCH  23  24
ATOM     24  C   UNL d   1     -46.817  14.379  22.903  0.00  0.00     0.072 C 
BRANCH  24  25
ATOM     25  C   UNL d   1     -47.148  15.127  22.788  0.00  0.00     0.211 C 
ATOM     26  O   UNL d   1     -46.674  15.767  22.556  0.00  0.00    -0.644 OA
ATOM     27  O   UNL d   1     -47.959  15.252  22.904  0.00  0.00    -0.644 OA
ENDBRANCH  24  25
ENDBRANCH  23  24
ENDBRANCH   1  23
TORSDOF 11
ENDMDL
MODEL 9
REMARK VINA RESULT:      -2.0      8.170      9.726
REMARK  11 active torsions:
REMARK  status: ('A' for Active; 'I' for Inactive)
REMARK    1  A    between atoms: C_3  and  C_1 
REMARK    2  A    between atoms: N_4  and  C_1 
REMARK    3  A    between atoms: C_5  and  C_1 
REMARK       I    between atoms: C_2  and  N_4 
REMARK    4  A    between atoms: O_10  and  C_2 
REMARK    5  A    between atoms: O_7  and  C_3 
REMARK    6  A    between atoms: C_12  and  C_5 
REMARK    7  A    between atoms: C_6  and  C_12 
REMARK    8  A    between atoms: C_13  and  O_7 
REMARK    9  A    between atoms: C_15  and  O_10 
REMARK   10  A    between atoms: C_16  and  C_13 
REMARK   11  A    between atoms: C_17  and  C_15 
ROOT
ATOM      1  C   UNL d   1     -38.327  14.470  18.046  0.00  0.00     0.150 C 
ENDROOT
BRANCH   1   2
ATOM      2  C   UNL d   1     -38.342  14.932  18.729  0.00  0.00     0.318 C 
ATOM      3  O   UNL d   1     -37.941  15.655  18.749  0.00  0.00    -0.257 OA
BRANCH   2   4
ATOM      4  O   UNL d   1     -38.761  14.674  19.399  0.00  0.00    -0.270 OA
BRANCH   4   5
ATOM      5  C   UNL d   1     -39.217  14.831  20.071  0.00  0.00     0.126 C 
BRANCH   5   6
ATOM      6  C   UNL d   1     -39.106  14.379  20.752  0.00  0.00     0.025 A 
ATOM      7  C   UNL d   1     -38.351  14.152  20.974  0.00  0.00     0.002 A 
ATOM      8  C   UNL d   1     -38.235  13.705  21.645  0.00  0.00     0.000 A 
ATOM      9  C   UNL d   1     -38.882  13.473  22.113  0.00  0.00     0.000 A 
ATOM     10  C   UNL d   1     -39.650  13.706  21.883  0.00  0.00     0.000 A 
ATOM     11  C   UNL d   1     -39.756  14.154  21.207  0.00  0.00     0.002 A 
ENDBRANCH   5   6
ENDBRANCH   4   5
ENDBRANCH   2   4
ENDBRANCH   1   2
BRANCH   1  12
ATOM     12  N   UNL d   1     -37.995  14.771  17.353  0.00  0.00    -0.180 NA
ATOM     13  C   UNL d   1     -38.454  15.228  16.839  0.00  0.00     0.393 C 
ATOM     14  O   UNL d   1     -38.119  15.530  16.144  0.00  0.00    -0.236 OA
BRANCH  13  15
ATOM     15  O   UNL d   1     -39.244  15.384  17.019  0.00  0.00    -0.256 OA
BRANCH  15  16
ATOM     16  C   UNL d   1     -39.676  15.916  16.556  0.00  0.00     0.128 C 
BRANCH  16  17
ATOM     17  C   UNL d   1     -40.500  15.901  16.584  0.00  0.00     0.025 A 
ATOM     18  C   UNL d   1     -40.881  15.863  17.316  0.00  0.00     0.002 A 
ATOM     19  C   UNL d   1     -41.713  15.847  17.349  0.00  0.00     0.000 A 
ATOM     20  C   UNL d   1     -42.155  15.868  16.653  0.00  0.00     0.000 A 
ATOM     21  C   UNL d   1     -41.764  15.906  15.920  0.00  0.00     0.000 A 
ATOM     22  C   UNL d   1     -40.939  15.922  15.889  0.00  0.00     0.002 A 
ENDBRANCH  16  17
ENDBRANCH  15  16
ENDBRANCH  13  15
ENDBRANCH   1  12
BRANCH   1  23
ATOM     23  C   UNL d   1     -38.643  13.706  18.056  0.00  0.00     0.031 C 
BRANCH  23  24
ATOM     24  C   UNL d   1     -38.221  13.079  17.723  0.00  0.00     0.072 C 
BRANCH  24  25
ATOM     25  C   UNL d   1     -38.595  12.356  17.586  0.00  0.00     0.211 C 
ATOM     26  O   UNL d   1     -38.606  11.769  18.172  0.00  0.00    -0.644 OA
ATOM     27  O   UNL d   1     -38.966  12.203  16.860  0.00  0.00    -0.644 OA
ENDBRANCH  24  25
ENDBRANCH  23  24
ENDBRANCH   1  23
TORSDOF 11
ENDMDL
