MODEL 1
REMARK VINA RESULT:     113.9      0.000      0.000
REMARK  4 active torsions:
REMARK  status: ('A' for Active; 'I' for Inactive)
REMARK    1  A    between atoms: C_4  and  C_1 
REMARK    2  A    between atoms: N_5  and  C_2 
REMARK       I    between atoms: N_9  and  C_4 
REMARK       I    between atoms: C_7  and  N_5 
REMARK    3  A    between atoms: C_13  and  C_7 
REMARK    4  A    between atoms: C_11  and  N_9 
ROOT
ATOM      1  C   UNL d   1      59.659  47.447  51.110  0.00  0.00     0.175 A 
ATOM      2  C   UNL d   1      60.210  47.505  50.571  0.00  0.00     0.114 A 
ATOM      3  O   UNL d   1      59.594  48.133  51.456  0.00  0.00    -0.301 OA
ATOM      4  C   UNL d   1      60.486  48.225  50.582  0.00  0.00     0.043 A 
ATOM      5  C   UNL d   1      60.104  48.616  51.132  0.00  0.00     0.102 A 
ATOM      6  C   UNL d   1      61.029  48.577  50.171  0.00  0.00     0.004 A 
ATOM      7  C   UNL d   1      60.266  49.352  51.265  0.00  0.00     0.025 A 
ATOM      8  C   UNL d   1      61.193  49.320  50.306  0.00  0.00     0.000 A 
ATOM      9  C   UNL d   1      60.812  49.705  50.851  0.00  0.00     0.002 A 
ENDROOT
BRANCH   1  10
ATOM     10  C   UNL d   1      59.251  46.823  51.273  0.00  0.00     0.303 C 
ATOM     11  N   UNL d   1      57.799  46.907  50.931  0.00  0.00    -0.206 NA
ATOM     12  O   UNL d   1      59.500  46.170  51.588  0.00  0.00    -0.263 OA
BRANCH  11  13
ATOM     13  C   UNL d   1      57.495  47.598  50.589  0.00  0.00     0.085 A 
ATOM     14  C   UNL d   1      57.149  48.178  51.068  0.00  0.00     0.019 A 
ATOM     15  C   UNL d   1      56.844  48.870  50.727  0.00  0.00     0.002 A 
ATOM     16  C   UNL d   1      56.496  49.454  51.205  0.00  0.00     0.000 C 
ATOM     17  C   UNL d   1      56.883  48.990  49.902  0.00  0.00     0.000 A 
ATOM     18  C   UNL d   1      57.235  48.401  49.418  0.00  0.00     0.002 A 
ATOM     19  C   UNL d   1      56.581  49.678  49.561  0.00  0.00     0.000 C 
ATOM     20  C   UNL d   1      57.541  47.702  49.772  0.00  0.00     0.019 A 
ENDBRANCH  11  13
ENDBRANCH   1  10
BRANCH   2  21
ATOM     21  N   UNL d   1      60.441  46.937  50.104  0.00  0.00    -0.204 NA
ATOM     22  C   UNL d   1      61.181  46.580  50.216  0.00  0.00     0.302 C 
ATOM     23  O   UNL d   1      61.680  46.835  50.837  0.00  0.00    -0.263 OA
BRANCH  22  24
ATOM     24  C   UNL d   1      61.429  45.965  49.709  0.00  0.00     0.158 A 
ATOM     25  O   UNL d   1      60.998  45.280  49.505  0.00  0.00    -0.300 OA
ATOM     26  C   UNL d   1      61.458  44.828  48.990  0.00  0.00     0.123 A 
ATOM     27  C   UNL d   1      62.182  45.224  48.864  0.00  0.00     0.029 A 
ATOM     28  C   UNL d   1      62.168  45.919  49.301  0.00  0.00     0.032 A 
ENDBRANCH  22  24
ENDBRANCH   2  21
TORSDOF 4
ENDMDL
