MODEL 1
REMARK VINA RESULT:      -5.0      0.000      0.000
REMARK  2 active torsions:
REMARK  status: ('A' for Active; 'I' for Inactive)
REMARK    1  A    between atoms: C_4  and  S_1 
REMARK    2  A    between atoms: C_6  and  C_4 
ROOT
ATOM      1  C   UNL d   1     -41.511-122.439 -53.864  0.00  0.00     0.013 A 
ATOM      2  C   UNL d   1     -41.449-122.333 -53.046  0.00  0.00     0.001 A 
ATOM      3  C   UNL d   1     -41.391-123.175 -54.197  0.00  0.00     0.001 A 
ATOM      4  C   UNL d   1     -41.209-123.817 -53.720  0.00  0.00     0.000 A 
ATOM      5  C   UNL d   1     -41.266-122.975 -52.564  0.00  0.00     0.000 A 
ATOM      6  C   UNL d   1     -41.145-123.721 -52.897  0.00  0.00     0.000 A 
ENDROOT
BRANCH   1   7
ATOM      7  C   UNL d   1     -41.694-121.793 -54.343  0.00  0.00     0.119 C 
BRANCH   7   8
ATOM      8  S   UNL d   1     -42.163-121.895 -55.015  0.00  0.00     0.303 S 
ATOM      9  O   UNL d   1     -41.426-121.938 -55.508  0.00  0.00    -0.197 OA
ATOM     10  O   UNL d   1     -42.953-121.859 -54.567  0.00  0.00    -0.197 OA
ATOM     11  N   UNL d   1     -42.595-121.993 -55.666  0.00  0.00    -0.043 N 
ENDBRANCH   7   8
ENDBRANCH   1   7
TORSDOF 2
ENDMDL
MODEL 2
REMARK VINA RESULT:      -4.5      1.021      1.347
REMARK  2 active torsions:
REMARK  status: ('A' for Active; 'I' for Inactive)
REMARK    1  A    between atoms: C_4  and  S_1 
REMARK    2  A    between atoms: C_6  and  C_4 
ROOT
ATOM      1  C   UNL d   1     -41.146-122.914 -53.015  0.00  0.00     0.013 A 
ATOM      2  C   UNL d   1     -41.186-122.237 -52.543  0.00  0.00     0.001 A 
ATOM      3  C   UNL d   1     -41.130-123.657 -52.675  0.00  0.00     0.001 A 
ATOM      4  C   UNL d   1     -41.153-123.735 -51.859  0.00  0.00     0.000 A 
ATOM      5  C   UNL d   1     -41.210-122.312 -51.724  0.00  0.00     0.000 A 
ATOM      6  C   UNL d   1     -41.194-123.061 -51.376  0.00  0.00     0.000 A 
ENDROOT
BRANCH   1   7
ATOM      7  C   UNL d   1     -41.123-122.834 -53.836  0.00  0.00     0.119 C 
BRANCH   7   8
ATOM      8  S   UNL d   1     -41.794-122.585 -54.248  0.00  0.00     0.303 S 
ATOM      9  O   UNL d   1     -41.442-121.772 -54.305  0.00  0.00    -0.197 OA
ATOM     10  O   UNL d   1     -42.207-123.394 -54.224  0.00  0.00    -0.197 OA
ATOM     11  N   UNL d   1     -42.426-122.330 -54.642  0.00  0.00    -0.043 N 
ENDBRANCH   7   8
ENDBRANCH   1   7
TORSDOF 2
ENDMDL
MODEL 3
REMARK VINA RESULT:      -4.5      2.017      2.602
REMARK  2 active torsions:
REMARK  status: ('A' for Active; 'I' for Inactive)
REMARK    1  A    between atoms: C_4  and  S_1 
REMARK    2  A    between atoms: C_6  and  C_4 
ROOT
ATOM      1  C   UNL d   1     -41.497-122.453 -53.895  0.00  0.00     0.013 A 
ATOM      2  C   UNL d   1     -41.338-122.885 -54.582  0.00  0.00     0.001 A 
ATOM      3  C   UNL d   1     -42.020-121.826 -53.911  0.00  0.00     0.001 A 
ATOM      4  C   UNL d   1     -42.392-121.620 -54.612  0.00  0.00     0.000 A 
ATOM      5  C   UNL d   1     -41.709-122.681 -55.287  0.00  0.00     0.000 A 
ATOM      6  C   UNL d   1     -42.239-122.047 -55.308  0.00  0.00     0.000 A 
ENDROOT
BRANCH   1   7
ATOM      7  C   UNL d   1     -41.123-122.661 -53.189  0.00  0.00     0.119 C 
BRANCH   7   8
ATOM      8  S   UNL d   1     -41.467-122.467 -52.464  0.00  0.00     0.303 S 
ATOM      9  O   UNL d   1     -41.832-123.276 -52.434  0.00  0.00    -0.197 OA
ATOM     10  O   UNL d   1     -41.123-121.626 -52.436  0.00  0.00    -0.197 OA
ATOM     11  N   UNL d   1     -41.803-122.299 -51.772  0.00  0.00    -0.043 N 
ENDBRANCH   7   8
ENDBRANCH   1   7
TORSDOF 2
ENDMDL
MODEL 4
REMARK VINA RESULT:      -4.0      3.081      3.474
REMARK  2 active torsions:
REMARK  status: ('A' for Active; 'I' for Inactive)
REMARK    1  A    between atoms: C_4  and  S_1 
REMARK    2  A    between atoms: C_6  and  C_4 
ROOT
ATOM      1  C   UNL d   1     -41.269-122.666 -51.560  0.00  0.00     0.013 A 
ATOM      2  C   UNL d   1     -41.276-122.184 -52.231  0.00  0.00     0.001 A 
ATOM      3  C   UNL d   1     -41.193-123.477 -51.632  0.00  0.00     0.001 A 
ATOM      4  C   UNL d   1     -41.123-123.817 -52.375  0.00  0.00     0.000 A 
ATOM      5  C   UNL d   1     -41.206-122.523 -52.977  0.00  0.00     0.000 A 
ATOM      6  C   UNL d   1     -41.129-123.341 -53.055  0.00  0.00     0.000 A 
ENDROOT
BRANCH   1   7
ATOM      7  C   UNL d   1     -41.340-122.322 -50.813  0.00  0.00     0.119 C 
BRANCH   7   8
ATOM      8  S   UNL d   1     -41.975-122.522 -50.323  0.00  0.00     0.303 S 
ATOM      9  O   UNL d   1     -41.435-123.054 -49.861  0.00  0.00    -0.197 OA
ATOM     10  O   UNL d   1     -42.577-121.996 -50.755  0.00  0.00    -0.197 OA
ATOM     11  N   UNL d   1     -42.568-122.724 -49.846  0.00  0.00    -0.043 N 
ENDBRANCH   7   8
ENDBRANCH   1   7
TORSDOF 2
ENDMDL
MODEL 5
REMARK VINA RESULT:      -4.0      2.647      2.986
REMARK  2 active torsions:
REMARK  status: ('A' for Active; 'I' for Inactive)
REMARK    1  A    between atoms: C_4  and  S_1 
REMARK    2  A    between atoms: C_6  and  C_4 
ROOT
ATOM      1  C   UNL d   1     -41.166-122.879 -52.236  0.00  0.00     0.013 A 
ATOM      2  C   UNL d   1     -41.186-123.658 -52.513  0.00  0.00     0.001 A 
ATOM      3  C   UNL d   1     -41.189-122.252 -52.760  0.00  0.00     0.001 A 
ATOM      4  C   UNL d   1     -41.232-122.393 -53.566  0.00  0.00     0.000 A 
ATOM      5  C   UNL d   1     -41.229-123.802 -53.321  0.00  0.00     0.000 A 
ATOM      6  C   UNL d   1     -41.252-123.172 -53.854  0.00  0.00     0.000 A 
ENDROOT
BRANCH   1   7
ATOM      7  C   UNL d   1     -41.123-122.738 -51.424  0.00  0.00     0.119 C 
BRANCH   7   8
ATOM      8  S   UNL d   1     -41.734-122.336 -51.040  0.00  0.00     0.303 S 
ATOM      9  O   UNL d   1     -41.283-121.579 -51.141  0.00  0.00    -0.197 OA
ATOM     10  O   UNL d   1     -42.244-123.076 -50.906  0.00  0.00    -0.197 OA
ATOM     11  N   UNL d   1     -42.307-121.937 -50.676  0.00  0.00    -0.043 N 
ENDBRANCH   7   8
ENDBRANCH   1   7
TORSDOF 2
ENDMDL
MODEL 6
REMARK VINA RESULT:      -3.6      3.126      3.756
REMARK  2 active torsions:
REMARK  status: ('A' for Active; 'I' for Inactive)
REMARK    1  A    between atoms: C_4  and  S_1 
REMARK    2  A    between atoms: C_6  and  C_4 
ROOT
ATOM      1  C   UNL d   1     -41.713-122.864 -50.342  0.00  0.00     0.013 A 
ATOM      2  C   UNL d   1     -41.644-123.576 -49.928  0.00  0.00     0.001 A 
ATOM      3  C   UNL d   1     -42.357-122.375 -50.224  0.00  0.00     0.001 A 
ATOM      4  C   UNL d   1     -42.942-122.590 -49.691  0.00  0.00     0.000 A 
ATOM      5  C   UNL d   1     -42.229-123.794 -49.392  0.00  0.00     0.000 A 
ATOM      6  C   UNL d   1     -42.882-123.304 -49.270  0.00  0.00     0.000 A 
ENDROOT
BRANCH   1   7
ATOM      7  C   UNL d   1     -41.123-122.648 -50.878  0.00  0.00     0.119 C 
BRANCH   7   8
ATOM      8  S   UNL d   1     -41.322-122.448 -51.655  0.00  0.00     0.303 S 
ATOM      9  O   UNL d   1     -41.182-121.594 -51.457  0.00  0.00    -0.197 OA
ATOM     10  O   UNL d   1     -41.480-123.303 -51.919  0.00  0.00    -0.197 OA
ATOM     11  N   UNL d   1     -41.508-122.239 -52.390  0.00  0.00    -0.043 N 
ENDBRANCH   7   8
ENDBRANCH   1   7
TORSDOF 2
ENDMDL
