MODEL 1
REMARK VINA RESULT:      16.5      0.000      0.000
REMARK  3 active torsions:
REMARK  status: ('A' for Active; 'I' for Inactive)
REMARK    1  A    between atoms: C_6  and  N_1 
REMARK    2  A    between atoms: C_5  and  C_9 
REMARK    3  A    between atoms: C_14  and  C_6 
ROOT
ATOM      1  C   UNL d   1      45.764 -16.412  44.264  0.00  0.00     0.064 A 
ATOM      2  C   UNL d   1      45.923 -16.753  43.529  0.00  0.00     0.006 A 
ATOM      3  C   UNL d   1      45.898 -16.839  44.954  0.00  0.00     0.006 A 
ATOM      4  C   UNL d   1      46.352 -17.952  44.179  0.00  0.00     0.018 A 
ATOM      5  C   UNL d   1      46.216 -17.521  43.485  0.00  0.00     0.002 A 
ATOM      6  C   UNL d   1      46.193 -17.611  44.913  0.00  0.00     0.002 A 
ENDROOT
BRANCH   4   7
ATOM      7  C   UNL d   1      46.645 -18.720  44.135  0.00  0.00     0.084 C 
BRANCH   7   8
ATOM      8  N   UNL d   1      46.320 -19.257  43.600  0.00  0.00    -0.259 N 
ATOM      9  C   UNL d   1      45.952 -19.974  43.799  0.00  0.00     0.153 A 
ATOM     10  S   UNL d   1      45.712 -20.329  43.100  0.00  0.00    -0.053 SA
ATOM     11  S   UNL d   1      45.849 -20.270  44.563  0.00  0.00    -0.052 SA
ATOM     12  C   UNL d   1      45.929 -19.837  42.474  0.00  0.00     0.099 A 
ATOM     13  C   UNL d   1      46.304 -19.177  42.784  0.00  0.00     0.272 A 
ATOM     14  O   UNL d   1      46.613 -18.539  42.354  0.00  0.00    -0.266 OA
ENDBRANCH   7   8
ENDBRANCH   4   7
BRANCH   1  15
ATOM     15  C   UNL d   1      45.469 -15.637  44.303  0.00  0.00     0.211 C 
ATOM     16  O   UNL d   1      44.907 -15.436  44.869  0.00  0.00    -0.644 OA
ATOM     17  O   UNL d   1      45.740 -15.068  43.771  0.00  0.00    -0.644 OA
ENDBRANCH   1  15
TORSDOF 3
ENDMDL
MODEL 2
REMARK VINA RESULT:      17.6      7.378      8.069
REMARK  3 active torsions:
REMARK  status: ('A' for Active; 'I' for Inactive)
REMARK    1  A    between atoms: C_6  and  N_1 
REMARK    2  A    between atoms: C_5  and  C_9 
REMARK    3  A    between atoms: C_14  and  C_6 
ROOT
ATOM      1  C   UNL d   1      42.875 -15.539  36.686  0.00  0.00     0.064 A 
ATOM      2  C   UNL d   1      43.290 -14.839  36.822  0.00  0.00     0.006 A 
ATOM      3  C   UNL d   1      43.275 -16.215  36.441  0.00  0.00     0.006 A 
ATOM      4  C   UNL d   1      44.509 -15.494  36.466  0.00  0.00     0.018 A 
ATOM      5  C   UNL d   1      44.106 -14.815  36.713  0.00  0.00     0.002 A 
ATOM      6  C   UNL d   1      44.094 -16.194  36.331  0.00  0.00     0.002 A 
ENDROOT
BRANCH   4   7
ATOM      7  C   UNL d   1      45.326 -15.471  36.357  0.00  0.00     0.084 C 
BRANCH   7   8
ATOM      8  N   UNL d   1      45.817 -15.205  36.964  0.00  0.00    -0.259 N 
ATOM      9  C   UNL d   1      46.220 -14.480  36.978  0.00  0.00     0.153 A 
ATOM     10  S   UNL d   1      46.640 -14.444  37.680  0.00  0.00    -0.053 SA
ATOM     11  S   UNL d   1      46.196 -13.903  36.387  0.00  0.00    -0.052 SA
ATOM     12  C   UNL d   1      46.499 -15.141  38.099  0.00  0.00     0.099 A 
ATOM     13  C   UNL d   1      45.992 -15.610  37.656  0.00  0.00     0.272 A 
ATOM     14  O   UNL d   1      45.704 -16.358  37.865  0.00  0.00    -0.266 OA
ENDBRANCH   7   8
ENDBRANCH   4   7
BRANCH   1  15
ATOM     15  C   UNL d   1      42.052 -15.558  36.798  0.00  0.00     0.211 C 
ATOM     16  O   UNL d   1      41.589 -16.086  36.371  0.00  0.00    -0.644 OA
ATOM     17  O   UNL d   1      41.701 -15.044  37.340  0.00  0.00    -0.644 OA
ENDBRANCH   1  15
TORSDOF 3
ENDMDL
