MODEL 1
REMARK VINA RESULT:      -3.4      0.000      0.000
REMARK  6 active torsions:
REMARK  status: ('A' for Active; 'I' for Inactive)
REMARK    1  A    between atoms: N_2  and  S_1 
REMARK    2  A    between atoms: C_5  and  S_1 
REMARK    3  A    between atoms: S_6  and  C_3 
REMARK    4  A    between atoms: C_18  and  S_6 
REMARK       I    between atoms: C_9  and  N_11 
REMARK    5  A    between atoms: N_11  and  C_19 
REMARK    6  A    between atoms: C_17  and  C_18 
ROOT
ATOM      1  N   UNL d   1      59.355  -0.038  29.527  0.00  0.00    -0.208 N 
ATOM      2  C   UNL d   1      59.961  -0.609  29.514  0.00  0.00     0.189 A 
ATOM      3  N   UNL d   1      60.651  -0.258  29.805  0.00  0.00    -0.219 NA
ATOM      4  C   UNL d   1      59.675   0.669  29.827  0.00  0.00     0.114 A 
ATOM      5  C   UNL d   1      60.471   0.529  29.997  0.00  0.00     0.121 A 
ENDROOT
BRANCH   1   6
ATOM      6  S   UNL d   1      58.571  -0.158  29.281  0.00  0.00     0.273 S 
ATOM      7  O   UNL d   1      57.902  -0.293  28.810  0.00  0.00    -0.200 OA
ATOM      8  O   UNL d   1      58.858  -0.221  28.516  0.00  0.00    -0.200 OA
BRANCH   6   9
ATOM      9  C   UNL d   1      58.263  -0.097  30.047  0.00  0.00     0.104 A 
ATOM     10  C   UNL d   1      58.320   0.609  30.447  0.00  0.00     0.014 A 
ATOM     11  C   UNL d   1      58.014   0.682  31.216  0.00  0.00     0.020 A 
ATOM     12  C   UNL d   1      57.654   0.029  31.562  0.00  0.00     0.085 A 
ATOM     13  C   UNL d   1      57.599  -0.683  31.151  0.00  0.00     0.020 A 
ATOM     14  C   UNL d   1      57.903  -0.753  30.388  0.00  0.00     0.014 A 
BRANCH  12  15
ATOM     15  N   UNL d   1      57.346   0.090  32.327  0.00  0.00    -0.208 NA
ATOM     16  C   UNL d   1      56.621  -0.259  32.503  0.00  0.00     0.279 C 
ATOM     17  O   UNL d   1      56.196  -0.667  31.932  0.00  0.00    -0.265 OA
ATOM     18  C   UNL d   1      56.307  -0.198  33.279  0.00  0.00     0.068 C 
ENDBRANCH  12  15
ENDBRANCH   6   9
ENDBRANCH   1   6
BRANCH   2  19
ATOM     19  S   UNL d   1      59.883  -1.396  29.254  0.00  0.00    -0.049 SA
BRANCH  19  20
ATOM     20  C   UNL d   1      60.505  -1.927  29.365  0.00  0.00     0.040 C 
BRANCH  20  21
ATOM     21  C   UNL d   1      60.450  -2.692  29.065  0.00  0.00     0.026 A 
ATOM     22  C   UNL d   1      61.133  -3.074  28.759  0.00  0.00     0.099 A 
ATOM     23  N   UNL d   1      61.095  -3.837  28.455  0.00  0.00    -0.242 NA
ATOM     24  C   UNL d   1      60.366  -4.224  28.456  0.00  0.00     0.099 A 
ATOM     25  C   UNL d   1      59.692  -3.856  28.754  0.00  0.00     0.021 A 
ATOM     26  C   UNL d   1      59.736  -3.090  29.058  0.00  0.00     0.004 A 
ENDBRANCH  20  21
ENDBRANCH  19  20
ENDBRANCH   2  19
TORSDOF 6
ENDMDL
MODEL 2
REMARK VINA RESULT:      -1.7      1.501      4.865
REMARK  6 active torsions:
REMARK  status: ('A' for Active; 'I' for Inactive)
REMARK    1  A    between atoms: N_2  and  S_1 
REMARK    2  A    between atoms: C_5  and  S_1 
REMARK    3  A    between atoms: S_6  and  C_3 
REMARK    4  A    between atoms: C_18  and  S_6 
REMARK       I    between atoms: C_9  and  N_11 
REMARK    5  A    between atoms: N_11  and  C_19 
REMARK    6  A    between atoms: C_17  and  C_18 
ROOT
ATOM      1  N   UNL d   1      58.238   0.404  31.045  0.00  0.00    -0.208 N 
ATOM      2  C   UNL d   1      58.038   0.447  31.852  0.00  0.00     0.189 A 
ATOM      3  N   UNL d   1      58.727   0.619  32.279  0.00  0.00    -0.219 NA
ATOM      4  C   UNL d   1      59.055   0.550  30.975  0.00  0.00     0.114 A 
ATOM      5  C   UNL d   1      59.351   0.681  31.735  0.00  0.00     0.121 A 
ENDROOT
BRANCH   1   6
ATOM      6  S   UNL d   1      57.713   0.244  30.423  0.00  0.00     0.273 S 
ATOM      7  O   UNL d   1      57.033   0.219  29.950  0.00  0.00    -0.200 OA
ATOM      8  O   UNL d   1      57.149   0.670  30.837  0.00  0.00    -0.200 OA
BRANCH   6   9
ATOM      9  C   UNL d   1      58.268  -0.191  29.990  0.00  0.00     0.104 A 
ATOM     10  C   UNL d   1      58.810   0.201  29.526  0.00  0.00     0.014 A 
ATOM     11  C   UNL d   1      59.372  -0.224  29.087  0.00  0.00     0.020 A 
ATOM     12  C   UNL d   1      59.371  -1.045  29.131  0.00  0.00     0.085 A 
ATOM     13  C   UNL d   1      58.820  -1.436  29.603  0.00  0.00     0.020 A 
ATOM     14  C   UNL d   1      58.262  -1.012  30.038  0.00  0.00     0.014 A 
BRANCH  12  15
ATOM     15  N   UNL d   1      59.926  -1.479  28.699  0.00  0.00    -0.208 NA
ATOM     16  C   UNL d   1      60.336  -2.093  29.062  0.00  0.00     0.279 C 
ATOM     17  O   UNL d   1      60.205  -2.284  29.849  0.00  0.00    -0.265 OA
ATOM     18  C   UNL d   1      60.900  -2.534  28.625  0.00  0.00     0.068 C 
ENDBRANCH  12  15
ENDBRANCH   6   9
ENDBRANCH   1   6
BRANCH   2  19
ATOM     19  S   UNL d   1      57.278   0.337  32.171  0.00  0.00    -0.049 SA
BRANCH  19  20
ATOM     20  C   UNL d   1      57.176   0.327  32.991  0.00  0.00     0.040 C 
BRANCH  20  21
ATOM     21  C   UNL d   1      56.418   0.378  33.310  0.00  0.00     0.026 A 
ATOM     22  C   UNL d   1      56.314   0.414  34.143  0.00  0.00     0.099 A 
ATOM     23  N   UNL d   1      55.565   0.465  34.477  0.00  0.00    -0.242 NA
ATOM     24  C   UNL d   1      54.911   0.479  33.975  0.00  0.00     0.099 A 
ATOM     25  C   UNL d   1      55.005   0.443  33.158  0.00  0.00     0.021 A 
ATOM     26  C   UNL d   1      55.759   0.393  32.827  0.00  0.00     0.004 A 
ENDBRANCH  20  21
ENDBRANCH  19  20
ENDBRANCH   2  19
TORSDOF 6
ENDMDL
