MODEL 1
REMARK VINA RESULT:     110.9      0.000      0.000
REMARK  5 active torsions:
REMARK  status: ('A' for Active; 'I' for Inactive)
REMARK    1  A    between atoms: S_2  and  C_1 
REMARK    2  A    between atoms: C_9  and  S_2 
REMARK    3  A    between atoms: N_14  and  C_10 
REMARK    4  A    between atoms: C_22  and  N_14 
REMARK    5  A    between atoms: C_23  and  N_14 
ROOT
ATOM      1  C   UNL d   1      60.021  47.880  50.338  0.00  0.00     0.151 A 
ATOM      2  C   UNL d   1      60.127  48.695  50.398  0.00  0.00     0.311 A 
ATOM      3  C   UNL d   1      59.283  47.545  50.522  0.00  0.00     0.019 A 
ATOM      4  O   UNL d   1      59.496  49.176  50.643  0.00  0.00    -0.272 OA
ATOM      5  C   UNL d   1      58.767  48.842  50.824  0.00  0.00     0.105 A 
ATOM      6  C   UNL d   1      58.660  48.026  50.764  0.00  0.00     0.024 A 
ATOM      7  C   UNL d   1      58.143  49.322  51.066  0.00  0.00     0.042 A 
ATOM      8  C   UNL d   1      57.414  48.987  51.248  0.00  0.00     0.066 A 
ATOM      9  O   UNL d   1      60.861  49.030  50.215  0.00  0.00    -0.258 OA
ATOM     10  C   UNL d   1      57.930  47.690  50.945  0.00  0.00     0.004 A 
ATOM     11  C   UNL d   1      57.308  48.171  51.187  0.00  0.00     0.018 A 
ENDROOT
BRANCH   1  12
ATOM     12  S   UNL d   1      60.647  47.390  50.094  0.00  0.00     0.215 S 
ATOM     13  O   UNL d   1      61.179  47.835  50.562  0.00  0.00    -0.217 OA
ATOM     14  O   UNL d   1      60.122  46.941  49.622  0.00  0.00    -0.217 OA
BRANCH  12  15
ATOM     15  C   UNL d   1      61.281  46.896  49.847  0.00  0.00     0.088 A 
ATOM     16  C   UNL d   1      62.028  46.999  50.176  0.00  0.00     0.011 A 
ATOM     17  C   UNL d   1      62.651  46.517  49.938  0.00  0.00     0.001 A 
ATOM     18  C   UNL d   1      62.527  45.932  49.370  0.00  0.00     0.000 A 
ATOM     19  C   UNL d   1      61.775  45.829  49.041  0.00  0.00     0.001 A 
ATOM     20  C   UNL d   1      63.157  45.438  49.124  0.00  0.00     0.000 C 
ATOM     21  C   UNL d   1      61.151  46.311  49.280  0.00  0.00     0.011 A 
ENDBRANCH  12  15
ENDBRANCH   1  12
BRANCH   8  22
ATOM     22  N   UNL d   1      56.779  49.468  51.494  0.00  0.00    -0.304 N 
BRANCH  22  23
ATOM     23  C   UNL d   1      56.208  49.708  50.945  0.00  0.00     0.080 C 
ATOM     24  C   UNL d   1      56.121  49.299  50.234  0.00  0.00     0.021 C 
ENDBRANCH  22  23
BRANCH  22  25
ATOM     25  C   UNL d   1      56.726  49.701  52.283  0.00  0.00     0.080 C 
ATOM     26  C   UNL d   1      56.037  49.558  52.711  0.00  0.00     0.021 C 
ENDBRANCH  22  25
ENDBRANCH   8  22
TORSDOF 5
ENDMDL
