MODEL 1
REMARK VINA RESULT:      -0.6      0.000      0.000
REMARK  2 active torsions:
REMARK  status: ('A' for Active; 'I' for Inactive)
REMARK       I    between atoms: N_2  and  C_1 
REMARK    1  A    between atoms: C_6  and  C_1 
REMARK    2  A    between atoms: C_4  and  N_2 
ROOT
ATOM      1  C   UNL d   1      46.520 -19.146  43.484  0.00  0.00     0.085 A 
ATOM      2  C   UNL d   1      46.457 -18.671  44.164  0.00  0.00     0.019 A 
ATOM      3  C   UNL d   1      46.456 -19.968  43.535  0.00  0.00     0.019 A 
ATOM      4  C   UNL d   1      46.330 -20.329  44.266  0.00  0.00     0.002 A 
ATOM      5  C   UNL d   1      46.330 -19.031  44.895  0.00  0.00     0.002 A 
ATOM      6  C   UNL d   1      46.266 -19.866  44.947  0.00  0.00     0.000 A 
ENDROOT
BRANCH   1   7
ATOM      7  N   UNL d   1      46.646 -18.786  42.753  0.00  0.00    -0.207 NA
ATOM      8  C   UNL d   1      46.519 -19.211  42.058  0.00  0.00     0.300 C 
ATOM      9  O   UNL d   1      46.265 -19.996  42.094  0.00  0.00    -0.263 OA
BRANCH   8  10
ATOM     10  C   UNL d   1      46.646 -18.851  41.326  0.00  0.00     0.184 C 
ATOM     11  N   UNL d   1      46.641 -19.306  40.638  0.00  0.00    -0.141 N 
ENDBRANCH   8  10
ENDBRANCH   1   7
TORSDOF 2
ENDMDL
MODEL 2
REMARK VINA RESULT:      -0.5      5.533      6.075
REMARK  2 active torsions:
REMARK  status: ('A' for Active; 'I' for Inactive)
REMARK       I    between atoms: N_2  and  C_1 
REMARK    1  A    between atoms: C_6  and  C_1 
REMARK    2  A    between atoms: C_4  and  N_2 
ROOT
ATOM      1  C   UNL d   1      45.251 -13.727  44.319  0.00  0.00     0.085 A 
ATOM      2  C   UNL d   1      44.744 -14.363  44.493  0.00  0.00     0.019 A 
ATOM      3  C   UNL d   1      46.063 -13.783  44.459  0.00  0.00     0.019 A 
ATOM      4  C   UNL d   1      46.382 -14.475  44.775  0.00  0.00     0.002 A 
ATOM      5  C   UNL d   1      45.062 -15.055  44.809  0.00  0.00     0.002 A 
ATOM      6  C   UNL d   1      45.887 -15.112  44.951  0.00  0.00     0.000 A 
ENDROOT
BRANCH   1   7
ATOM      7  N   UNL d   1      44.933 -13.034  44.003  0.00  0.00    -0.207 NA
ATOM      8  C   UNL d   1      45.148 -12.792  43.245  0.00  0.00     0.300 C 
ATOM      9  O   UNL d   1      45.682 -13.241  42.803  0.00  0.00    -0.263 OA
BRANCH   8  10
ATOM     10  C   UNL d   1      44.830 -12.099  42.929  0.00  0.00     0.184 C 
ATOM     11  N   UNL d   1      44.586 -12.081  42.142  0.00  0.00    -0.141 N 
ENDBRANCH   8  10
ENDBRANCH   1   7
TORSDOF 2
ENDMDL
MODEL 3
REMARK VINA RESULT:      -0.4      7.739      7.964
REMARK  2 active torsions:
REMARK  status: ('A' for Active; 'I' for Inactive)
REMARK       I    between atoms: N_2  and  C_1 
REMARK    1  A    between atoms: C_6  and  C_1 
REMARK    2  A    between atoms: C_4  and  N_2 
ROOT
ATOM      1  C   UNL d   1      45.199 -14.943  36.661  0.00  0.00     0.085 A 
ATOM      2  C   UNL d   1      45.886 -15.353  36.435  0.00  0.00     0.019 A 
ATOM      3  C   UNL d   1      45.236 -14.326  37.209  0.00  0.00     0.019 A 
ATOM      4  C   UNL d   1      45.960 -14.109  37.541  0.00  0.00     0.002 A 
ATOM      5  C   UNL d   1      46.610 -15.137  36.766  0.00  0.00     0.002 A 
ATOM      6  C   UNL d   1      46.647 -14.511  37.323  0.00  0.00     0.000 A 
ENDROOT
BRANCH   1   7
ATOM      7  N   UNL d   1      44.475 -15.158  36.330  0.00  0.00    -0.207 NA
ATOM      8  C   UNL d   1      44.039 -15.775  36.661  0.00  0.00     0.300 C 
ATOM      9  O   UNL d   1      44.327 -16.177  37.323  0.00  0.00    -0.263 OA
BRANCH   8  10
ATOM     10  C   UNL d   1      43.315 -15.991  36.330  0.00  0.00     0.184 C 
ATOM     11  N   UNL d   1      42.615 -15.840  36.738  0.00  0.00    -0.141 N 
ENDBRANCH   8  10
ENDBRANCH   1   7
TORSDOF 2
ENDMDL
MODEL 4
REMARK VINA RESULT:       0.5      5.359      6.241
REMARK  2 active torsions:
REMARK  status: ('A' for Active; 'I' for Inactive)
REMARK       I    between atoms: N_2  and  C_1 
REMARK    1  A    between atoms: C_6  and  C_1 
REMARK    2  A    between atoms: C_4  and  N_2 
ROOT
ATOM      1  C   UNL d   1      45.165 -13.521  44.268  0.00  0.00     0.085 A 
ATOM      2  C   UNL d   1      44.741 -13.300  43.588  0.00  0.00     0.019 A 
ATOM      3  C   UNL d   1      45.751 -13.029  44.579  0.00  0.00     0.019 A 
ATOM      4  C   UNL d   1      45.923 -12.308  44.216  0.00  0.00     0.002 A 
ATOM      5  C   UNL d   1      44.912 -12.580  43.224  0.00  0.00     0.002 A 
ATOM      6  C   UNL d   1      45.507 -12.080  43.540  0.00  0.00     0.000 A 
ENDROOT
BRANCH   1   7
ATOM      7  N   UNL d   1      44.995 -14.241  44.631  0.00  0.00    -0.207 NA
ATOM      8  C   UNL d   1      45.538 -14.861  44.591  0.00  0.00     0.300 C 
ATOM      9  O   UNL d   1      46.251 -14.760  44.188  0.00  0.00    -0.263 OA
BRANCH   8  10
ATOM     10  C   UNL d   1      45.367 -15.581  44.955  0.00  0.00     0.184 C 
ATOM     11  N   UNL d   1      45.874 -16.224  44.854  0.00  0.00    -0.141 N 
ENDBRANCH   8  10
ENDBRANCH   1   7
TORSDOF 2
ENDMDL
