MODEL 1
REMARK VINA RESULT:      46.4      0.000      0.000
REMARK  5 active torsions:
REMARK  status: ('A' for Active; 'I' for Inactive)
REMARK    1  A    between atoms: C_3  and  C_1 
REMARK    2  A    between atoms: C_2  and  C_3 
REMARK    3  A    between atoms: C_4  and  C_2 
REMARK    4  A    between atoms: C_7  and  C_4 
REMARK    5  A    between atoms: O_14  and  C_8 
ROOT
ATOM      1  C   UNL d   1     -47.512  31.243  34.867  0.00  0.00     0.042 C 
ENDROOT
BRANCH   1   2
ATOM      2  C   UNL d   1     -47.359  32.081  34.948  0.00  0.00     0.199 C 
ATOM      3  O   UNL d   1     -46.882  32.346  35.576  0.00  0.00    -0.286 OA
BRANCH   2   4
ATOM      4  C   UNL d   1     -47.693  32.607  34.395  0.00  0.00     0.078 A 
ATOM      5  C   UNL d   1     -47.210  32.983  33.849  0.00  0.00     0.199 A 
ATOM      6  O   UNL d   1     -46.386  32.837  33.852  0.00  0.00    -0.286 OA
ATOM      7  C   UNL d   1     -47.524  33.497  33.306  0.00  0.00     0.042 A 
ATOM      8  C   UNL d   1     -48.360  33.639  33.310  0.00  0.00     0.003 A 
ATOM      9  C   UNL d   1     -48.822  33.273  33.840  0.00  0.00     0.000 A 
ATOM     10  C   UNL d   1     -48.502  32.753  34.389  0.00  0.00     0.006 A 
ENDBRANCH   2   4
ENDBRANCH   1   2
BRANCH   1  11
ATOM     11  C   UNL d   1     -47.256  30.716  35.476  0.00  0.00     0.003 C 
BRANCH  11  12
ATOM     12  C   UNL d   1     -47.592  29.980  35.482  0.00  0.00     0.000 A 
ATOM     13  C   UNL d   1     -47.786  29.591  34.800  0.00  0.00     0.002 A 
ATOM     14  C   UNL d   1     -48.127  28.841  34.840  0.00  0.00     0.024 A 
ATOM     15  C   UNL d   1     -48.279  28.472  35.561  0.00  0.00     0.094 A 
ATOM     16  C   UNL d   1     -48.080  28.873  36.257  0.00  0.00     0.024 A 
ATOM     17  C   UNL d   1     -47.736  29.627  36.227  0.00  0.00     0.002 A 
BRANCH  15  18
ATOM     18  O   UNL d   1     -48.624  27.716  35.592  0.00  0.00    -0.328 OA
ATOM     19  C   UNL d   1     -49.076  27.425  34.964  0.00  0.00     0.181 C 
ENDBRANCH  15  18
ENDBRANCH  11  12
ENDBRANCH   1  11
TORSDOF 5
ENDMDL
MODEL 2
REMARK VINA RESULT:      48.0      2.243      5.620
REMARK  5 active torsions:
REMARK  status: ('A' for Active; 'I' for Inactive)
REMARK    1  A    between atoms: C_3  and  C_1 
REMARK    2  A    between atoms: C_2  and  C_3 
REMARK    3  A    between atoms: C_4  and  C_2 
REMARK    4  A    between atoms: C_7  and  C_4 
REMARK    5  A    between atoms: O_14  and  C_8 
ROOT
ATOM      1  C   UNL d   1     -49.513  27.276  33.904  0.00  0.00     0.042 C 
ENDROOT
BRANCH   1   2
ATOM      2  C   UNL d   1     -49.750  26.520  33.579  0.00  0.00     0.199 C 
ATOM      3  O   UNL d   1     -49.164  25.974  33.355  0.00  0.00    -0.286 OA
BRANCH   2   4
ATOM      4  C   UNL d   1     -50.562  26.354  33.499  0.00  0.00     0.078 A 
ATOM      5  C   UNL d   1     -50.810  25.579  33.385  0.00  0.00     0.199 A 
ATOM      6  O   UNL d   1     -50.245  24.964  33.351  0.00  0.00    -0.286 OA
ATOM      7  C   UNL d   1     -51.598  25.407  33.305  0.00  0.00     0.042 A 
ATOM      8  C   UNL d   1     -52.163  26.038  33.342  0.00  0.00     0.003 A 
ATOM      9  C   UNL d   1     -51.919  26.783  33.452  0.00  0.00     0.000 A 
ATOM     10  C   UNL d   1     -51.121  26.957  33.532  0.00  0.00     0.006 A 
ENDBRANCH   2   4
ENDBRANCH   1   2
BRANCH   1  11
ATOM     11  C   UNL d   1     -48.922  27.299  34.507  0.00  0.00     0.003 C 
BRANCH  11  12
ATOM     12  C   UNL d   1     -48.661  28.031  34.730  0.00  0.00     0.000 A 
ATOM     13  C   UNL d   1     -48.899  28.705  34.352  0.00  0.00     0.002 A 
ATOM     14  C   UNL d   1     -48.614  29.437  34.603  0.00  0.00     0.024 A 
ATOM     15  C   UNL d   1     -48.089  29.504  35.234  0.00  0.00     0.094 A 
ATOM     16  C   UNL d   1     -47.847  28.813  35.619  0.00  0.00     0.024 A 
ATOM     17  C   UNL d   1     -48.128  28.073  35.374  0.00  0.00     0.002 A 
BRANCH  15  18
ATOM     18  O   UNL d   1     -47.807  30.248  35.480  0.00  0.00    -0.328 OA
ATOM     19  C   UNL d   1     -47.731  30.875  34.948  0.00  0.00     0.181 C 
ENDBRANCH  15  18
ENDBRANCH  11  12
ENDBRANCH   1  11
TORSDOF 5
ENDMDL
