MODEL 1
REMARK VINA RESULT:      49.8      0.000      0.000
REMARK  1 active torsions:
REMARK  status: ('A' for Active; 'I' for Inactive)
REMARK       I    between atoms: N_3  and  C_1 
REMARK       I    between atoms: N_5  and  C_1 
REMARK       I    between atoms: C_2  and  N_4 
REMARK    1  A    between atoms: C_6  and  C_2 
ROOT
ATOM      1  C   UNL d   1     -52.071  24.155  33.690  0.00  0.00     0.340 C 
ATOM      2  C   UNL d   1     -50.803  27.191  33.415  0.00  0.00     0.271 C 
ATOM      3  N   UNL d   1     -51.758  24.918  33.724  0.00  0.00    -0.254 N 
ATOM      4  N   UNL d   1     -51.122  26.421  33.498  0.00  0.00    -0.269 N 
ATOM      5  N   UNL d   1     -52.889  24.046  33.661  0.00  0.00    -0.253 N 
ATOM      6  O   UNL d   1     -51.571  23.503  33.686  0.00  0.00    -0.245 OA
ATOM      7  C   UNL d   1     -50.935  25.026  33.724  0.00  0.00     0.104 A 
ATOM      8  C   UNL d   1     -52.263  25.577  33.627  0.00  0.00     0.104 A 
ATOM      9  C   UNL d   1     -50.614  25.789  33.599  0.00  0.00     0.102 A 
ATOM     10  C   UNL d   1     -51.946  26.331  33.519  0.00  0.00     0.102 A 
ATOM     11  O   UNL d   1     -51.309  27.847  33.318  0.00  0.00    -0.266 OA
ATOM     12  O   UNL d   1     -54.515  23.838  33.309  0.00  0.00    -0.300 OA
ATOM     13  C   UNL d   1     -53.194  23.301  33.336  0.00  0.00     0.111 C 
ATOM     14  C   UNL d   1     -53.376  24.715  33.373  0.00  0.00     0.111 C 
ATOM     15  C   UNL d   1     -54.198  24.599  33.343  0.00  0.00     0.142 C 
ATOM     16  C   UNL d   1     -54.004  23.190  33.306  0.00  0.00     0.142 C 
ENDROOT
BRANCH   2  17
ATOM     17  C   UNL d   1     -49.980  27.300  33.408  0.00  0.00     0.086 A 
ATOM     18  S   UNL d   1     -49.409  26.703  33.307  0.00  0.00    -0.082 SA
ATOM     19  C   UNL d   1     -48.649  27.064  33.328  0.00  0.00     0.036 A 
ATOM     20  C   UNL d   1     -48.760  27.879  33.448  0.00  0.00     0.008 A 
ATOM     21  C   UNL d   1     -49.579  28.027  33.493  0.00  0.00     0.012 A 
ENDBRANCH   2  17
TORSDOF 1
ENDMDL
