MODEL 1
REMARK VINA RESULT:     112.9      0.000      0.000
REMARK  3 active torsions:
REMARK  status: ('A' for Active; 'I' for Inactive)
REMARK    1  A    between atoms: C_6  and  C_1 
REMARK       I    between atoms: N_8  and  C_6 
REMARK    2  A    between atoms: C_16  and  N_8 
REMARK       I    between atoms: C_12  and  N_13 
REMARK    3  A    between atoms: N_13  and  C_17 
ROOT
ATOM      1  C   UNL d   1      61.506  45.490  50.651  0.00  0.00     0.302 C 
ATOM      2  N   UNL d   1      61.476  45.007  51.319  0.00  0.00    -0.206 NA
ATOM      3  O   UNL d   1      61.751  45.182  49.932  0.00  0.00    -0.263 OA
ENDROOT
BRANCH   1   4
ATOM      4  C   UNL d   1      61.290  46.284  50.709  0.00  0.00     0.158 A 
ATOM      5  O   UNL d   1      60.930  46.647  51.363  0.00  0.00    -0.302 OA
ATOM      6  C   UNL d   1      60.815  47.450  51.172  0.00  0.00     0.100 A 
ATOM      7  C   UNL d   1      60.484  48.082  51.598  0.00  0.00     0.025 A 
ATOM      8  C   UNL d   1      61.101  47.584  50.406  0.00  0.00     0.025 A 
ATOM      9  C   UNL d   1      60.443  48.831  51.260  0.00  0.00     0.002 A 
ATOM     10  C   UNL d   1      60.114  49.460  51.685  0.00  0.00     0.000 C 
ATOM     11  C   UNL d   1      60.731  48.957  50.493  0.00  0.00     0.000 A 
ATOM     12  C   UNL d   1      61.060  48.334  50.067  0.00  0.00     0.002 A 
ATOM     13  C   UNL d   1      60.689  49.707  50.158  0.00  0.00     0.000 C 
ATOM     14  C   UNL d   1      61.396  46.878  50.108  0.00  0.00     0.029 A 
ATOM     15  C   UNL d   1      61.734  46.757  49.364  0.00  0.00     0.002 C 
ENDBRANCH   1   4
BRANCH   2  16
ATOM     16  C   UNL d   1      61.692  44.213  51.265  0.00  0.00     0.085 A 
ATOM     17  C   UNL d   1      61.492  43.698  51.877  0.00  0.00     0.021 A 
ATOM     18  C   UNL d   1      61.706  42.908  51.824  0.00  0.00     0.021 A 
ATOM     19  C   UNL d   1      62.120  42.627  51.162  0.00  0.00     0.085 A 
ATOM     20  C   UNL d   1      62.316  43.150  50.554  0.00  0.00     0.021 A 
ATOM     21  C   UNL d   1      62.102  43.945  50.603  0.00  0.00     0.021 A 
BRANCH  19  22
ATOM     22  N   UNL d   1      62.334  41.833  51.112  0.00  0.00    -0.208 NA
ATOM     23  C   UNL d   1      62.848  41.583  50.515  0.00  0.00     0.279 C 
ATOM     24  O   UNL d   1      63.151  42.126  49.966  0.00  0.00    -0.265 OA
ATOM     25  C   UNL d   1      63.066  40.790  50.458  0.00  0.00     0.068 C 
ENDBRANCH  19  22
ENDBRANCH   2  16
TORSDOF 3
ENDMDL
