MODEL 1
REMARK VINA RESULT:      -3.4      0.000      0.000
REMARK  6 active torsions:
REMARK  status: ('A' for Active; 'I' for Inactive)
REMARK    1  A    between atoms: C_7  and  S_1 
REMARK    2  A    between atoms: N_11  and  S_1 
REMARK    3  A    between atoms: C_5  and  C_21 
REMARK    4  A    between atoms: C_22  and  N_11 
REMARK    5  A    between atoms: C_20  and  C_13 
REMARK    6  A    between atoms: C_21  and  C_22 
ROOT
ATOM      1  S   UNL d   1      32.376  17.403 -24.679  0.00  0.00     0.285 S 
ATOM      2  O   UNL d   1      33.144  17.657 -24.852  0.00  0.00    -0.198 OA
ATOM      3  O   UNL d   1      32.516  16.705 -25.097  0.00  0.00    -0.198 OA
ENDROOT
BRANCH   1   4
ATOM      4  C   UNL d   1      31.616  17.148 -24.510  0.00  0.00     0.105 A 
ATOM      5  C   UNL d   1      30.969  17.569 -24.814  0.00  0.00     0.013 A 
ATOM      6  C   UNL d   1      30.200  17.307 -24.639  0.00  0.00     0.001 A 
ATOM      7  C   UNL d   1      30.081  16.645 -24.175  0.00  0.00     0.000 A 
ATOM      8  C   UNL d   1      30.730  16.227 -23.873  0.00  0.00     0.001 A 
ATOM      9  C   UNL d   1      31.497  16.479 -24.040  0.00  0.00     0.013 A 
BRANCH   7  10
ATOM     10  C   UNL d   1      29.322  16.386 -24.002  0.00  0.00     0.000 A 
ATOM     11  C   UNL d   1      28.993  15.757 -24.415  0.00  0.00     0.000 A 
ATOM     12  C   UNL d   1      28.229  15.505 -24.232  0.00  0.00     0.000 A 
ATOM     13  C   UNL d   1      27.798  15.881 -23.641  0.00  0.00     0.000 A 
ATOM     14  C   UNL d   1      28.128  16.515 -23.224  0.00  0.00     0.000 A 
ATOM     15  C   UNL d   1      28.892  16.763 -23.410  0.00  0.00     0.000 A 
ENDBRANCH   7  10
ENDBRANCH   1   4
BRANCH   1  16
ATOM     16  N   UNL d   1      32.241  18.101 -24.263  0.00  0.00    -0.157 NA
BRANCH  16  17
ATOM     17  C   UNL d   1      32.814  18.402 -23.769  0.00  0.00     0.114 C 
BRANCH  17  18
ATOM     18  C   UNL d   1      33.041  19.199 -23.827  0.00  0.00     0.042 C 
BRANCH  18  19
ATOM     19  C   UNL d   1      33.087  19.663 -23.133  0.00  0.00     0.102 A 
ATOM     20  N   UNL d   1      33.106  20.484 -23.099  0.00  0.00    -0.227 NA
ATOM     21  C   UNL d   1      33.152  20.718 -22.310  0.00  0.00     0.148 A 
ATOM     22  C   UNL d   1      33.187  21.453 -21.949  0.00  0.00     0.037 A 
ATOM     23  N   UNL d   1      33.162  20.033 -21.841  0.00  0.00    -0.288 N 
ATOM     24  C   UNL d   1      33.231  21.515 -21.123  0.00  0.00     0.005 A 
ATOM     25  C   UNL d   1      33.240  20.841 -20.661  0.00  0.00     0.019 A 
ATOM     26  C   UNL d   1      33.206  20.096 -21.015  0.00  0.00     0.082 A 
ATOM     27  C   UNL d   1      33.122  19.374 -22.342  0.00  0.00     0.101 A 
ENDBRANCH  18  19
ENDBRANCH  17  18
ENDBRANCH  16  17
ENDBRANCH   1  16
TORSDOF 6
ENDMDL
MODEL 2
REMARK VINA RESULT:      -2.5      1.878      5.963
REMARK  6 active torsions:
REMARK  status: ('A' for Active; 'I' for Inactive)
REMARK    1  A    between atoms: C_7  and  S_1 
REMARK    2  A    between atoms: N_11  and  S_1 
REMARK    3  A    between atoms: C_5  and  C_21 
REMARK    4  A    between atoms: C_22  and  N_11 
REMARK    5  A    between atoms: C_20  and  C_13 
REMARK    6  A    between atoms: C_21  and  C_22 
ROOT
ATOM      1  S   UNL d   1      33.191  20.824 -23.021  0.00  0.00     0.285 S 
ATOM      2  O   UNL d   1      33.241  20.424 -23.743  0.00  0.00    -0.198 OA
ATOM      3  O   UNL d   1      33.236  21.545 -23.420  0.00  0.00    -0.198 OA
ENDROOT
BRANCH   1   4
ATOM      4  C   UNL d   1      33.142  21.223 -22.307  0.00  0.00     0.105 A 
ATOM      5  C   UNL d   1      32.994  22.039 -22.306  0.00  0.00     0.013 A 
ATOM      6  C   UNL d   1      32.945  22.439 -21.579  0.00  0.00     0.001 A 
ATOM      7  C   UNL d   1      33.041  22.036 -20.875  0.00  0.00     0.000 A 
ATOM      8  C   UNL d   1      33.188  21.221 -20.880  0.00  0.00     0.001 A 
ATOM      9  C   UNL d   1      33.239  20.814 -21.596  0.00  0.00     0.013 A 
BRANCH   7  10
ATOM     10  C   UNL d   1      32.992  22.431 -20.158  0.00  0.00     0.000 A 
ATOM     11  C   UNL d   1      32.731  23.209 -20.127  0.00  0.00     0.000 A 
ATOM     12  C   UNL d   1      32.687  23.596 -19.400  0.00  0.00     0.000 A 
ATOM     13  C   UNL d   1      32.902  23.206 -18.708  0.00  0.00     0.000 A 
ATOM     14  C   UNL d   1      33.165  22.422 -18.737  0.00  0.00     0.000 A 
ATOM     15  C   UNL d   1      33.208  22.040 -19.466  0.00  0.00     0.000 A 
ENDBRANCH   7  10
ENDBRANCH   1   4
BRANCH   1  16
ATOM     16  N   UNL d   1      33.147  20.101 -22.626  0.00  0.00    -0.157 NA
BRANCH  16  17
ATOM     17  C   UNL d   1      32.990  19.417 -23.039  0.00  0.00     0.114 C 
BRANCH  17  18
ATOM     18  C   UNL d   1      33.212  18.680 -22.727  0.00  0.00     0.042 C 
BRANCH  18  19
ATOM     19  C   UNL d   1      32.792  17.995 -22.960  0.00  0.00     0.102 A 
ATOM     20  N   UNL d   1      32.070  17.979 -23.350  0.00  0.00    -0.227 NA
ATOM     21  C   UNL d   1      31.850  17.195 -23.476  0.00  0.00     0.148 A 
ATOM     22  C   UNL d   1      31.197  16.850 -23.832  0.00  0.00     0.037 A 
ATOM     23  N   UNL d   1      32.445  16.710 -23.159  0.00  0.00    -0.288 N 
ATOM     24  C   UNL d   1      31.128  16.024 -23.877  0.00  0.00     0.005 A 
ATOM     25  C   UNL d   1      31.714  15.547 -23.565  0.00  0.00     0.019 A 
ATOM     26  C   UNL d   1      32.376  15.884 -23.204  0.00  0.00     0.082 A 
ATOM     27  C   UNL d   1      33.033  17.197 -22.837  0.00  0.00     0.101 A 
ENDBRANCH  18  19
ENDBRANCH  17  18
ENDBRANCH  16  17
ENDBRANCH   1  16
TORSDOF 6
ENDMDL
MODEL 3
REMARK VINA RESULT:      -2.4      2.147      3.491
REMARK  6 active torsions:
REMARK  status: ('A' for Active; 'I' for Inactive)
REMARK    1  A    between atoms: C_7  and  S_1 
REMARK    2  A    between atoms: N_11  and  S_1 
REMARK    3  A    between atoms: C_5  and  C_21 
REMARK    4  A    between atoms: C_22  and  N_11 
REMARK    5  A    between atoms: C_20  and  C_13 
REMARK    6  A    between atoms: C_21  and  C_22 
ROOT
ATOM      1  S   UNL d   1      33.100  20.410 -23.086  0.00  0.00     0.285 S 
ATOM      2  O   UNL d   1      33.241  21.218 -22.978  0.00  0.00    -0.198 OA
ATOM      3  O   UNL d   1      33.028  20.533 -23.898  0.00  0.00    -0.198 OA
ENDROOT
BRANCH   1   4
ATOM      4  C   UNL d   1      32.960  19.610 -23.195  0.00  0.00     0.105 A 
ATOM      5  C   UNL d   1      33.183  19.073 -22.603  0.00  0.00     0.013 A 
ATOM      6  C   UNL d   1      33.039  18.263 -22.719  0.00  0.00     0.001 A 
ATOM      7  C   UNL d   1      32.684  17.997 -23.405  0.00  0.00     0.000 A 
ATOM      8  C   UNL d   1      32.462  18.536 -23.994  0.00  0.00     0.001 A 
ATOM      9  C   UNL d   1      32.601  19.343 -23.889  0.00  0.00     0.013 A 
BRANCH   7  10
ATOM     10  C   UNL d   1      32.541  17.198 -23.519  0.00  0.00     0.000 A 
ATOM     11  C   UNL d   1      31.775  16.904 -23.497  0.00  0.00     0.000 A 
ATOM     12  C   UNL d   1      31.643  16.098 -23.613  0.00  0.00     0.000 A 
ATOM     13  C   UNL d   1      32.276  15.590 -23.751  0.00  0.00     0.000 A 
ATOM     14  C   UNL d   1      33.049  15.884 -23.774  0.00  0.00     0.000 A 
ATOM     15  C   UNL d   1      33.174  16.690 -23.657  0.00  0.00     0.000 A 
ENDBRANCH   7  10
ENDBRANCH   1   4
BRANCH   1  16
ATOM     16  N   UNL d   1      33.173  20.291 -22.273  0.00  0.00    -0.157 NA
BRANCH  16  17
ATOM     17  C   UNL d   1      33.079  20.914 -21.758  0.00  0.00     0.114 C 
BRANCH  17  18
ATOM     18  C   UNL d   1      32.987  20.775 -20.943  0.00  0.00     0.042 C 
BRANCH  18  19
ATOM     19  C   UNL d   1      32.881  21.424 -20.427  0.00  0.00     0.102 A 
ATOM     20  N   UNL d   1      32.407  22.081 -20.565  0.00  0.00    -0.227 NA
ATOM     21  C   UNL d   1      32.459  22.589 -19.919  0.00  0.00     0.148 A 
ATOM     22  C   UNL d   1      32.113  23.313 -19.752  0.00  0.00     0.037 A 
ATOM     23  N   UNL d   1      32.974  22.246 -19.365  0.00  0.00    -0.288 N 
ATOM     24  C   UNL d   1      32.275  23.702 -19.037  0.00  0.00     0.005 A 
ATOM     25  C   UNL d   1      32.782  23.365 -18.492  0.00  0.00     0.019 A 
ATOM     26  C   UNL d   1      33.135  22.636 -18.651  0.00  0.00     0.082 A 
ATOM     27  C   UNL d   1      33.241  21.524 -19.671  0.00  0.00     0.101 A 
ENDBRANCH  18  19
ENDBRANCH  17  18
ENDBRANCH  16  17
ENDBRANCH   1  16
TORSDOF 6
ENDMDL
