MODEL 1
REMARK VINA RESULT:      -5.7      0.000      0.000
REMARK  5 active torsions:
REMARK  status: ('A' for Active; 'I' for Inactive)
REMARK    1  A    between atoms: N_3  and  C_1 
REMARK       I    between atoms: C_9  and  N_3 
REMARK       I    between atoms: N_5  and  C_8 
REMARK    2  A    between atoms: C_8  and  C_16 
REMARK    3  A    between atoms: C_17  and  C_9 
REMARK    4  A    between atoms: S_13  and  C_17 
REMARK    5  A    between atoms: C_16  and  S_13 
ROOT
ATOM      1  N   UNL d   1     -47.936  13.620  22.000  0.00  0.00    -0.183 NA
ATOM      2  C   UNL d   1     -47.410  13.645  22.641  0.00  0.00     0.287 C 
ATOM      3  O   UNL d   1     -47.637  14.014  23.348  0.00  0.00    -0.265 OA
ENDROOT
BRANCH   2   4
ATOM      4  C   UNL d   1     -46.665  13.307  22.582  0.00  0.00     0.098 C 
BRANCH   4   5
ATOM      5  S   UNL d   1     -46.496  12.590  22.964  0.00  0.00    -0.076 SA
BRANCH   5   6
ATOM      6  C   UNL d   1     -45.736  12.269  22.927  0.00  0.00     0.097 C 
BRANCH   6   7
ATOM      7  C   UNL d   1     -45.588  11.511  23.213  0.00  0.00     0.271 C 
ATOM      8  N   UNL d   1     -44.830  11.192  23.166  0.00  0.00    -0.272 N 
ATOM      9  C   UNL d   1     -44.686  10.436  23.452  0.00  0.00     0.083 A 
ATOM     10  C   UNL d   1     -44.213  11.632  22.832  0.00  0.00     0.083 A 
ATOM     11  C   UNL d   1     -43.926  10.120  23.404  0.00  0.00     0.018 A 
ATOM     12  C   UNL d   1     -43.778   9.362  23.690  0.00  0.00     0.002 C 
ATOM     13  C   UNL d   1     -43.315  10.566  23.069  0.00  0.00     0.003 A 
ATOM     14  C   UNL d   1     -43.459  11.328  22.781  0.00  0.00     0.019 A 
ATOM     15  O   UNL d   1     -46.201  11.076  23.543  0.00  0.00    -0.266 OA
ENDBRANCH   6   7
ENDBRANCH   5   6
ENDBRANCH   4   5
ENDBRANCH   2   4
BRANCH   1  16
ATOM     16  C   UNL d   1     -48.614  14.010  22.266  0.00  0.00     0.182 A 
ATOM     17  N   UNL d   1     -49.394  13.745  22.182  0.00  0.00    -0.283 N 
ATOM     18  C   UNL d   1     -49.898  14.307  22.529  0.00  0.00     0.072 A 
ATOM     19  C   UNL d   1     -49.622  13.049  21.817  0.00  0.00     0.101 C 
ATOM     20  C   UNL d   1     -50.714  14.344  22.612  0.00  0.00     0.017 A 
ATOM     21  C   UNL d   1     -49.429  14.918  22.828  0.00  0.00     0.048 A 
ATOM     22  C   UNL d   1     -51.063  14.977  22.986  0.00  0.00    -0.011 A 
ATOM     23  C   UNL d   1     -50.594  15.588  23.285  0.00  0.00     0.027 A 
ATOM     24  C   UNL d   1     -49.775  15.567  23.211  0.00  0.00    -0.004 A 
ATOM     25  S   UNL d   1     -48.634  14.737  22.667  0.00  0.00    -0.048 SA
ENDBRANCH   1  16
TORSDOF 5
ENDMDL
MODEL 2
REMARK VINA RESULT:      -4.3      1.337      1.833
REMARK  5 active torsions:
REMARK  status: ('A' for Active; 'I' for Inactive)
REMARK    1  A    between atoms: N_3  and  C_1 
REMARK       I    between atoms: C_9  and  N_3 
REMARK       I    between atoms: N_5  and  C_8 
REMARK    2  A    between atoms: C_8  and  C_16 
REMARK    3  A    between atoms: C_17  and  C_9 
REMARK    4  A    between atoms: S_13  and  C_17 
REMARK    5  A    between atoms: C_16  and  S_13 
ROOT
ATOM      1  N   UNL d   1     -48.415  13.050  22.553  0.00  0.00    -0.183 NA
ATOM      2  C   UNL d   1     -47.712  13.272  22.933  0.00  0.00     0.287 C 
ATOM      3  O   UNL d   1     -47.702  13.939  23.427  0.00  0.00    -0.265 OA
ENDROOT
BRANCH   2   4
ATOM      4  C   UNL d   1     -47.024  12.838  22.824  0.00  0.00     0.098 C 
BRANCH   4   5
ATOM      5  S   UNL d   1     -46.287  13.218  22.795  0.00  0.00    -0.076 SA
BRANCH   5   6
ATOM      6  C   UNL d   1     -45.619  12.806  22.537  0.00  0.00     0.097 C 
BRANCH   6   7
ATOM      7  C   UNL d   1     -45.035  13.190  22.100  0.00  0.00     0.271 C 
ATOM      8  N   UNL d   1     -44.304  12.829  21.981  0.00  0.00    -0.272 N 
ATOM      9  C   UNL d   1     -43.724  13.214  21.545  0.00  0.00     0.083 A 
ATOM     10  C   UNL d   1     -44.153  12.079  22.300  0.00  0.00     0.083 A 
ATOM     11  C   UNL d   1     -42.994  12.850  21.428  0.00  0.00     0.018 A 
ATOM     12  C   UNL d   1     -42.411  13.234  20.991  0.00  0.00     0.002 C 
ATOM     13  C   UNL d   1     -42.850  12.101  21.749  0.00  0.00     0.003 A 
ATOM     14  C   UNL d   1     -43.434  11.713  22.188  0.00  0.00     0.019 A 
ATOM     15  O   UNL d   1     -45.187  13.933  21.785  0.00  0.00    -0.266 OA
ENDBRANCH   6   7
ENDBRANCH   5   6
ENDBRANCH   4   5
ENDBRANCH   2   4
BRANCH   1  16
ATOM     16  C   UNL d   1     -48.973  13.610  22.794  0.00  0.00     0.182 A 
ATOM     17  N   UNL d   1     -49.716  13.449  23.124  0.00  0.00    -0.283 N 
ATOM     18  C   UNL d   1     -50.092  14.171  23.283  0.00  0.00     0.072 A 
ATOM     19  C   UNL d   1     -50.020  12.702  23.265  0.00  0.00     0.101 C 
ATOM     20  C   UNL d   1     -50.824  14.357  23.605  0.00  0.00     0.017 A 
ATOM     21  C   UNL d   1     -49.581  14.780  23.052  0.00  0.00     0.048 A 
ATOM     22  C   UNL d   1     -51.050  15.133  23.697  0.00  0.00    -0.011 A 
ATOM     23  C   UNL d   1     -50.540  15.742  23.466  0.00  0.00     0.027 A 
ATOM     24  C   UNL d   1     -49.803  15.574  23.142  0.00  0.00    -0.004 A 
ATOM     25  S   UNL d   1     -48.888  14.435  22.749  0.00  0.00    -0.048 SA
ENDBRANCH   1  16
TORSDOF 5
ENDMDL
MODEL 3
REMARK VINA RESULT:      -4.1      3.012      3.993
REMARK  5 active torsions:
REMARK  status: ('A' for Active; 'I' for Inactive)
REMARK    1  A    between atoms: N_3  and  C_1 
REMARK       I    between atoms: C_9  and  N_3 
REMARK       I    between atoms: N_5  and  C_8 
REMARK    2  A    between atoms: C_8  and  C_16 
REMARK    3  A    between atoms: C_17  and  C_9 
REMARK    4  A    between atoms: S_13  and  C_17 
REMARK    5  A    between atoms: C_16  and  S_13 
ROOT
ATOM      1  N   UNL d   1     -45.237  12.560  22.964  0.00  0.00    -0.183 NA
ATOM      2  C   UNL d   1     -44.899  12.828  22.255  0.00  0.00     0.287 C 
ATOM      3  O   UNL d   1     -45.347  13.289  21.731  0.00  0.00    -0.265 OA
ENDROOT
BRANCH   2   4
ATOM      4  C   UNL d   1     -44.123  12.639  22.068  0.00  0.00     0.098 C 
BRANCH   4   5
ATOM      5  S   UNL d   1     -43.748  12.995  21.418  0.00  0.00    -0.076 SA
BRANCH   5   6
ATOM      6  C   UNL d   1     -42.940  13.162  21.446  0.00  0.00     0.097 C 
BRANCH   6   7
ATOM      7  C   UNL d   1     -42.506  13.240  20.750  0.00  0.00     0.271 C 
ATOM      8  N   UNL d   1     -41.841  13.727  20.730  0.00  0.00    -0.272 N 
ATOM      9  C   UNL d   1     -41.410  13.803  20.036  0.00  0.00     0.083 A 
ATOM     10  C   UNL d   1     -41.607  14.140  21.410  0.00  0.00     0.083 A 
ATOM     11  C   UNL d   1     -40.746  14.291  20.020  0.00  0.00     0.018 A 
ATOM     12  C   UNL d   1     -40.312  14.369  19.324  0.00  0.00     0.002 C 
ATOM     13  C   UNL d   1     -40.519  14.700  20.701  0.00  0.00     0.003 A 
ATOM     14  C   UNL d   1     -40.953  14.624  21.402  0.00  0.00     0.019 A 
ATOM     15  O   UNL d   1     -42.739  12.830  20.078  0.00  0.00    -0.266 OA
ENDBRANCH   6   7
ENDBRANCH   5   6
ENDBRANCH   4   5
ENDBRANCH   2   4
BRANCH   1  16
ATOM     16  C   UNL d   1     -46.009  12.857  22.956  0.00  0.00     0.182 A 
ATOM     17  N   UNL d   1     -46.695  12.439  23.159  0.00  0.00    -0.283 N 
ATOM     18  C   UNL d   1     -47.344  12.948  23.071  0.00  0.00     0.072 A 
ATOM     19  C   UNL d   1     -46.719  11.659  23.403  0.00  0.00     0.101 C 
ATOM     20  C   UNL d   1     -48.150  12.845  23.190  0.00  0.00     0.017 A 
ATOM     21  C   UNL d   1     -47.060  13.681  22.814  0.00  0.00     0.048 A 
ATOM     22  C   UNL d   1     -48.670  13.457  23.057  0.00  0.00    -0.011 A 
ATOM     23  C   UNL d   1     -48.386  14.190  22.799  0.00  0.00     0.027 A 
ATOM     24  C   UNL d   1     -47.582  14.310  22.675  0.00  0.00    -0.004 A 
ATOM     25  S   UNL d   1     -46.234  13.627  22.741  0.00  0.00    -0.048 SA
ENDBRANCH   1  16
TORSDOF 5
ENDMDL
MODEL 4
REMARK VINA RESULT:      -4.1      8.416     10.447
REMARK  5 active torsions:
REMARK  status: ('A' for Active; 'I' for Inactive)
REMARK    1  A    between atoms: N_3  and  C_1 
REMARK       I    between atoms: C_9  and  N_3 
REMARK       I    between atoms: N_5  and  C_8 
REMARK    2  A    between atoms: C_8  and  C_16 
REMARK    3  A    between atoms: C_17  and  C_9 
REMARK    4  A    between atoms: S_13  and  C_17 
REMARK    5  A    between atoms: C_16  and  S_13 
ROOT
ATOM      1  N   UNL d   1     -39.485  14.431  20.003  0.00  0.00    -0.183 NA
ATOM      2  C   UNL d   1     -38.775  14.463  19.575  0.00  0.00     0.287 C 
ATOM      3  O   UNL d   1     -38.059  14.267  19.946  0.00  0.00    -0.265 OA
ENDROOT
BRANCH   2   4
ATOM      4  C   UNL d   1     -38.774  14.688  18.786  0.00  0.00     0.098 C 
BRANCH   4   5
ATOM      5  S   UNL d   1     -38.639  14.128  18.189  0.00  0.00    -0.076 SA
BRANCH   5   6
ATOM      6  C   UNL d   1     -38.408  14.374  17.435  0.00  0.00     0.097 C 
BRANCH   6   7
ATOM      7  C   UNL d   1     -38.331  13.828  16.823  0.00  0.00     0.271 C 
ATOM      8  N   UNL d   1     -38.212  14.087  16.050  0.00  0.00    -0.272 N 
ATOM      9  C   UNL d   1     -38.136  13.540  15.442  0.00  0.00     0.083 A 
ATOM     10  C   UNL d   1     -38.169  14.898  15.885  0.00  0.00     0.083 A 
ATOM     11  C   UNL d   1     -38.016  13.804  14.670  0.00  0.00     0.018 A 
ATOM     12  C   UNL d   1     -37.940  13.257  14.059  0.00  0.00     0.002 C 
ATOM     13  C   UNL d   1     -37.975  14.614  14.513  0.00  0.00     0.003 A 
ATOM     14  C   UNL d   1     -38.051  15.166  15.125  0.00  0.00     0.019 A 
ATOM     15  O   UNL d   1     -38.374  13.025  16.989  0.00  0.00    -0.266 OA
ENDBRANCH   6   7
ENDBRANCH   5   6
ENDBRANCH   4   5
ENDBRANCH   2   4
BRANCH   1  16
ATOM     16  C   UNL d   1     -39.264  14.187  20.762  0.00  0.00     0.182 A 
ATOM     17  N   UNL d   1     -39.559  14.486  21.476  0.00  0.00    -0.283 N 
ATOM     18  C   UNL d   1     -39.186  14.084  22.099  0.00  0.00     0.072 A 
ATOM     19  C   UNL d   1     -40.121  15.076  21.547  0.00  0.00     0.101 C 
ATOM     20  C   UNL d   1     -39.253  14.141  22.915  0.00  0.00     0.017 A 
ATOM     21  C   UNL d   1     -38.661  13.536  21.770  0.00  0.00     0.048 A 
ATOM     22  C   UNL d   1     -38.807  13.664  23.402  0.00  0.00    -0.011 A 
ATOM     23  C   UNL d   1     -38.282  13.117  23.073  0.00  0.00     0.027 A 
ATOM     24  C   UNL d   1     -38.203  13.046  22.257  0.00  0.00    -0.004 A 
ATOM     25  S   UNL d   1     -38.707  13.598  20.942  0.00  0.00    -0.048 SA
ENDBRANCH   1  16
TORSDOF 5
ENDMDL
MODEL 5
REMARK VINA RESULT:      -4.0      4.046      6.971
REMARK  5 active torsions:
REMARK  status: ('A' for Active; 'I' for Inactive)
REMARK    1  A    between atoms: N_3  and  C_1 
REMARK       I    between atoms: C_9  and  N_3 
REMARK       I    between atoms: N_5  and  C_8 
REMARK    2  A    between atoms: C_8  and  C_16 
REMARK    3  A    between atoms: C_17  and  C_9 
REMARK    4  A    between atoms: S_13  and  C_17 
REMARK    5  A    between atoms: C_16  and  S_13 
ROOT
ATOM      1  N   UNL d   1     -42.006  14.204  20.554  0.00  0.00    -0.183 NA
ATOM      2  C   UNL d   1     -42.255  13.605  21.071  0.00  0.00     0.287 C 
ATOM      3  O   UNL d   1     -41.764  13.369  21.697  0.00  0.00    -0.265 OA
ENDROOT
BRANCH   2   4
ATOM      4  C   UNL d   1     -42.984  13.243  20.969  0.00  0.00     0.098 C 
BRANCH   4   5
ATOM      5  S   UNL d   1     -43.360  12.866  21.606  0.00  0.00    -0.076 SA
BRANCH   5   6
ATOM      6  C   UNL d   1     -44.168  12.980  21.736  0.00  0.00     0.097 C 
BRANCH   6   7
ATOM      7  C   UNL d   1     -44.585  12.473  22.234  0.00  0.00     0.271 C 
ATOM      8  N   UNL d   1     -45.351  12.664  22.469  0.00  0.00    -0.272 N 
ATOM      9  C   UNL d   1     -45.765  12.158  22.965  0.00  0.00     0.083 A 
ATOM     10  C   UNL d   1     -45.705  13.366  22.206  0.00  0.00     0.083 A 
ATOM     11  C   UNL d   1     -46.531  12.353  23.199  0.00  0.00     0.018 A 
ATOM     12  C   UNL d   1     -46.949  11.846  23.696  0.00  0.00     0.002 C 
ATOM     13  C   UNL d   1     -46.878  13.055  22.932  0.00  0.00     0.003 A 
ATOM     14  C   UNL d   1     -46.461  13.565  22.432  0.00  0.00     0.019 A 
ATOM     15  O   UNL d   1     -44.233  11.778  22.493  0.00  0.00    -0.266 OA
ENDBRANCH   6   7
ENDBRANCH   5   6
ENDBRANCH   4   5
ENDBRANCH   2   4
BRANCH   1  16
ATOM     16  C   UNL d   1     -41.260  14.427  20.830  0.00  0.00     0.182 A 
ATOM     17  N   UNL d   1     -40.992  15.203  20.942  0.00  0.00    -0.283 N 
ATOM     18  C   UNL d   1     -40.213  15.171  21.226  0.00  0.00     0.072 A 
ATOM     19  C   UNL d   1     -41.427  15.880  20.796  0.00  0.00     0.101 C 
ATOM     20  C   UNL d   1     -39.673  15.753  21.434  0.00  0.00     0.017 A 
ATOM     21  C   UNL d   1     -39.999  14.374  21.289  0.00  0.00     0.048 A 
ATOM     22  C   UNL d   1     -38.931  15.554  21.701  0.00  0.00    -0.011 A 
ATOM     23  C   UNL d   1     -38.716  14.757  21.764  0.00  0.00     0.027 A 
ATOM     24  C   UNL d   1     -39.244  14.161  21.561  0.00  0.00    -0.004 A 
ATOM     25  S   UNL d   1     -40.645  13.912  21.045  0.00  0.00    -0.048 SA
ENDBRANCH   1  16
TORSDOF 5
ENDMDL
MODEL 6
REMARK VINA RESULT:      -3.9      4.652      7.545
REMARK  5 active torsions:
REMARK  status: ('A' for Active; 'I' for Inactive)
REMARK    1  A    between atoms: N_3  and  C_1 
REMARK       I    between atoms: C_9  and  N_3 
REMARK       I    between atoms: N_5  and  C_8 
REMARK    2  A    between atoms: C_8  and  C_16 
REMARK    3  A    between atoms: C_17  and  C_9 
REMARK    4  A    between atoms: S_13  and  C_17 
REMARK    5  A    between atoms: C_16  and  S_13 
ROOT
ATOM      1  N   UNL d   1     -41.091  14.414  20.745  0.00  0.00    -0.183 NA
ATOM      2  C   UNL d   1     -41.717  13.880  20.637  0.00  0.00     0.287 C 
ATOM      3  O   UNL d   1     -41.762  13.431  19.941  0.00  0.00    -0.265 OA
ENDROOT
BRANCH   2   4
ATOM      4  C   UNL d   1     -42.294  13.793  21.213  0.00  0.00     0.098 C 
BRANCH   4   5
ATOM      5  S   UNL d   1     -42.815  13.148  21.193  0.00  0.00    -0.076 SA
BRANCH   5   6
ATOM      6  C   UNL d   1     -43.594  13.236  21.454  0.00  0.00     0.097 C 
BRANCH   6   7
ATOM      7  C   UNL d   1     -43.950  12.648  21.909  0.00  0.00     0.271 C 
ATOM      8  N   UNL d   1     -44.713  12.758  22.201  0.00  0.00    -0.272 N 
ATOM      9  C   UNL d   1     -45.066  12.170  22.653  0.00  0.00     0.083 A 
ATOM     10  C   UNL d   1     -45.124  13.459  22.040  0.00  0.00     0.083 A 
ATOM     11  C   UNL d   1     -45.829  12.283  22.944  0.00  0.00     0.018 A 
ATOM     12  C   UNL d   1     -46.185  11.696  23.398  0.00  0.00     0.002 C 
ATOM     13  C   UNL d   1     -46.233  12.986  22.779  0.00  0.00     0.003 A 
ATOM     14  C   UNL d   1     -45.878  13.578  22.324  0.00  0.00     0.019 A 
ATOM     15  O   UNL d   1     -43.541  11.954  22.067  0.00  0.00    -0.266 OA
ENDBRANCH   6   7
ENDBRANCH   5   6
ENDBRANCH   4   5
ENDBRANCH   2   4
BRANCH   1  16
ATOM     16  C   UNL d   1     -40.634  14.347  20.059  0.00  0.00     0.182 A 
ATOM     17  N   UNL d   1     -39.812  14.249  20.028  0.00  0.00    -0.283 N 
ATOM     18  C   UNL d   1     -39.586  14.207  19.230  0.00  0.00     0.072 A 
ATOM     19  C   UNL d   1     -39.315  14.204  20.676  0.00  0.00     0.101 C 
ATOM     20  C   UNL d   1     -38.857  14.114  18.864  0.00  0.00     0.017 A 
ATOM     21  C   UNL d   1     -40.268  14.278  18.768  0.00  0.00     0.048 A 
ATOM     22  C   UNL d   1     -38.801  14.092  18.052  0.00  0.00    -0.011 A 
ATOM     23  C   UNL d   1     -39.483  14.163  17.590  0.00  0.00     0.027 A 
ATOM     24  C   UNL d   1     -40.222  14.256  17.940  0.00  0.00    -0.004 A 
ATOM     25  S   UNL d   1     -40.918  14.365  19.279  0.00  0.00    -0.048 SA
ENDBRANCH   1  16
TORSDOF 5
ENDMDL
MODEL 7
REMARK VINA RESULT:      -2.9      9.084     10.528
REMARK  5 active torsions:
REMARK  status: ('A' for Active; 'I' for Inactive)
REMARK    1  A    between atoms: N_3  and  C_1 
REMARK       I    between atoms: C_9  and  N_3 
REMARK       I    between atoms: N_5  and  C_8 
REMARK    2  A    between atoms: C_8  and  C_16 
REMARK    3  A    between atoms: C_17  and  C_9 
REMARK    4  A    between atoms: S_13  and  C_17 
REMARK    5  A    between atoms: C_16  and  S_13 
ROOT
ATOM      1  N   UNL d   1     -38.923  14.725  18.017  0.00  0.00    -0.183 NA
ATOM      2  C   UNL d   1     -38.561  15.379  18.378  0.00  0.00     0.287 C 
ATOM      3  O   UNL d   1     -38.091  15.892  17.927  0.00  0.00    -0.265 OA
ENDROOT
BRANCH   2   4
ATOM      4  C   UNL d   1     -38.666  15.523  19.178  0.00  0.00     0.098 C 
BRANCH   4   5
ATOM      5  S   UNL d   1     -38.750  14.893  19.712  0.00  0.00    -0.076 SA
BRANCH   5   6
ATOM      6  C   UNL d   1     -38.815  15.043  20.522  0.00  0.00     0.097 C 
BRANCH   6   7
ATOM      7  C   UNL d   1     -38.878  14.419  21.057  0.00  0.00     0.271 C 
ATOM      8  N   UNL d   1     -38.661  14.528  21.845  0.00  0.00    -0.272 N 
ATOM      9  C   UNL d   1     -38.725  13.905  22.376  0.00  0.00     0.083 A 
ATOM     10  C   UNL d   1     -38.378  15.263  22.101  0.00  0.00     0.083 A 
ATOM     11  C   UNL d   1     -38.506  14.017  23.163  0.00  0.00     0.018 A 
ATOM     12  C   UNL d   1     -38.570  13.394  23.698  0.00  0.00     0.002 C 
ATOM     13  C   UNL d   1     -38.225  14.753  23.412  0.00  0.00     0.003 A 
ATOM     14  C   UNL d   1     -38.160  15.381  22.877  0.00  0.00     0.019 A 
ATOM     15  O   UNL d   1     -39.159  13.692  20.801  0.00  0.00    -0.266 OA
ENDBRANCH   6   7
ENDBRANCH   5   6
ENDBRANCH   4   5
ENDBRANCH   2   4
BRANCH   1  16
ATOM     16  C   UNL d   1     -38.692  14.766  17.224  0.00  0.00     0.182 A 
ATOM     17  N   UNL d   1     -38.556  14.121  16.721  0.00  0.00    -0.283 N 
ATOM     18  C   UNL d   1     -38.336  14.415  15.977  0.00  0.00     0.072 A 
ATOM     19  C   UNL d   1     -38.628  13.334  16.930  0.00  0.00     0.101 C 
ATOM     20  C   UNL d   1     -38.136  14.046  15.271  0.00  0.00     0.017 A 
ATOM     21  C   UNL d   1     -38.336  15.241  16.019  0.00  0.00     0.048 A 
ATOM     22  C   UNL d   1     -37.940  14.485  14.615  0.00  0.00    -0.011 A 
ATOM     23  C   UNL d   1     -37.940  15.311  14.657  0.00  0.00     0.027 A 
ATOM     24  C   UNL d   1     -38.137  15.698  15.356  0.00  0.00    -0.004 A 
ATOM     25  S   UNL d   1     -38.556  15.461  16.790  0.00  0.00    -0.048 SA
ENDBRANCH   1  16
TORSDOF 5
ENDMDL
