MODEL 1
REMARK VINA RESULT:      46.9      0.000      0.000
REMARK  3 active torsions:
REMARK  status: ('A' for Active; 'I' for Inactive)
REMARK    1  A    between atoms: C_7  and  N_1 
REMARK    2  A    between atoms: C_13  and  C_7 
REMARK    3  A    between atoms: O_18  and  C_10 
ROOT
ATOM      1  N   UNL d   1      13.682  13.209  -2.522  0.00  0.00    -0.226 N 
ATOM      2  C   UNL d   1      13.925  13.948  -2.398  0.00  0.00     0.343 A 
ATOM      3  N   UNL d   1      13.889  14.449  -3.143  0.00  0.00    -0.241 N 
ATOM      4  C   UNL d   1      13.461  13.035  -3.226  0.00  0.00     0.273 A 
ATOM      5  C   UNL d   1      13.643  14.103  -3.743  0.00  0.00     0.158 A 
ATOM      6  C   UNL d   1      13.393  13.319  -3.840  0.00  0.00     0.113 A 
ATOM      7  N   UNL d   1      13.636  14.623  -4.387  0.00  0.00    -0.226 NA
ATOM      8  O   UNL d   1      14.117  14.265  -1.986  0.00  0.00    -0.245 OA
ATOM      9  C   UNL d   1      13.137  13.055  -4.581  0.00  0.00     0.103 A 
ATOM     10  O   UNL d   1      13.307  12.527  -3.256  0.00  0.00    -0.266 OA
ATOM     11  C   UNL d   1      14.106  15.178  -3.114  0.00  0.00     0.105 C 
ATOM     12  C   UNL d   1      13.380  14.358  -5.126  0.00  0.00     0.103 A 
ATOM     13  C   UNL d   1      13.130  13.574  -5.223  0.00  0.00     0.045 A 
ENDROOT
BRANCH   1  14
ATOM     14  C   UNL d   1      13.671  12.655  -1.912  0.00  0.00     0.087 C 
BRANCH  14  15
ATOM     15  C   UNL d   1      14.334  12.535  -1.443  0.00  0.00     0.018 A 
ATOM     16  C   UNL d   1      14.517  13.077  -0.829  0.00  0.00     0.002 A 
ATOM     17  C   UNL d   1      15.172  12.967  -0.358  0.00  0.00     0.011 A 
ATOM     18  C   UNL d   1      15.652  12.321  -0.489  0.00  0.00     0.058 A 
ATOM     19  C   UNL d   1      15.480  11.779  -1.094  0.00  0.00     0.011 A 
ATOM     20 CL   UNL d   1      16.317  12.206  -0.014  0.00  0.00    -0.082 Cl
ATOM     21  C   UNL d   1      14.830  11.886  -1.563  0.00  0.00     0.002 A 
ENDBRANCH  14  15
ENDBRANCH   1  14
BRANCH   9  22
ATOM     22  O   UNL d   1      12.864  12.180  -4.664  0.00  0.00    -0.328 OA
ATOM     23  C   UNL d   1      12.947  11.780  -5.381  0.00  0.00     0.181 C 
ENDBRANCH   9  22
TORSDOF 3
ENDMDL
MODEL 2
REMARK VINA RESULT:      47.5      0.948      2.064
REMARK  3 active torsions:
REMARK  status: ('A' for Active; 'I' for Inactive)
REMARK    1  A    between atoms: C_7  and  N_1 
REMARK    2  A    between atoms: C_13  and  C_7 
REMARK    3  A    between atoms: O_18  and  C_10 
ROOT
ATOM      1  N   UNL d   1      13.142  12.546  -3.384  0.00  0.00    -0.226 N 
ATOM      2  C   UNL d   1      13.015  12.254  -4.105  0.00  0.00     0.343 A 
ATOM      3  N   UNL d   1      13.152  12.865  -4.749  0.00  0.00    -0.241 N 
ATOM      4  C   UNL d   1      13.354  13.273  -3.341  0.00  0.00     0.273 A 
ATOM      5  C   UNL d   1      13.357  13.531  -4.514  0.00  0.00     0.158 A 
ATOM      6  C   UNL d   1      13.483  13.807  -3.742  0.00  0.00     0.113 A 
ATOM      7  N   UNL d   1      13.464  14.039  -5.157  0.00  0.00    -0.226 NA
ATOM      8  O   UNL d   1      12.864  11.779  -4.347  0.00  0.00    -0.245 OA
ATOM      9  C   UNL d   1      13.716  14.590  -3.615  0.00  0.00     0.103 A 
ATOM     10  O   UNL d   1      13.426  13.420  -2.835  0.00  0.00    -0.266 OA
ATOM     11  C   UNL d   1      13.051  12.669  -5.477  0.00  0.00     0.105 C 
ATOM     12  C   UNL d   1      13.697  14.822  -5.030  0.00  0.00     0.103 A 
ATOM     13  C   UNL d   1      13.823  15.097  -4.258  0.00  0.00     0.045 A 
ENDROOT
BRANCH   1  14
ATOM     14  C   UNL d   1      13.049  12.079  -2.712  0.00  0.00     0.087 C 
BRANCH  14  15
ATOM     15  C   UNL d   1      13.656  12.005  -2.165  0.00  0.00     0.018 A 
ATOM     16  C   UNL d   1      13.495  12.089  -1.345  0.00  0.00     0.002 A 
ATOM     17  C   UNL d   1      14.090  12.018  -0.795  0.00  0.00     0.011 A 
ATOM     18  C   UNL d   1      14.850  11.863  -1.047  0.00  0.00     0.058 A 
ATOM     19  C   UNL d   1      15.020  11.779  -1.855  0.00  0.00     0.011 A 
ATOM     20 CL   UNL d   1      15.456  11.791  -0.492  0.00  0.00    -0.082 Cl
ATOM     21  C   UNL d   1      14.431  11.849  -2.405  0.00  0.00     0.002 A 
ENDBRANCH  14  15
ENDBRANCH   1  14
BRANCH   9  22
ATOM     22  O   UNL d   1      13.849  14.874  -2.750  0.00  0.00    -0.328 OA
ATOM     23  C   UNL d   1      14.244  15.581  -2.595  0.00  0.00     0.181 C 
ENDBRANCH   9  22
TORSDOF 3
ENDMDL
MODEL 3
REMARK VINA RESULT:      47.6      2.874      4.185
REMARK  3 active torsions:
REMARK  status: ('A' for Active; 'I' for Inactive)
REMARK    1  A    between atoms: C_7  and  N_1 
REMARK    2  A    between atoms: C_13  and  C_7 
REMARK    3  A    between atoms: O_18  and  C_10 
ROOT
ATOM      1  N   UNL d   1      14.900  14.549  -0.436  0.00  0.00    -0.226 N 
ATOM      2  C   UNL d   1      15.675  14.580  -0.298  0.00  0.00     0.343 A 
ATOM      3  N   UNL d   1      16.029  13.766  -0.157  0.00  0.00    -0.241 N 
ATOM      4  C   UNL d   1      14.578  13.863  -0.431  0.00  0.00     0.273 A 
ATOM      5  C   UNL d   1      15.554  13.206  -0.191  0.00  0.00     0.158 A 
ATOM      6  C   UNL d   1      14.738  13.209  -0.340  0.00  0.00     0.113 A 
ATOM      7  N   UNL d   1      15.947  12.492  -0.053  0.00  0.00    -0.226 NA
ATOM      8  O   UNL d   1      16.082  14.954  -0.259  0.00  0.00    -0.245 OA
ATOM      9  C   UNL d   1      14.317  12.497  -0.350  0.00  0.00     0.103 A 
ATOM     10  O   UNL d   1      14.056  13.898  -0.529  0.00  0.00    -0.266 OA
ATOM     11  C   UNL d   1      16.773  13.702  -0.015  0.00  0.00     0.105 C 
ATOM     12  C   UNL d   1      15.526  11.781  -0.063  0.00  0.00     0.103 A 
ATOM     13  C   UNL d   1      14.710  11.784  -0.212  0.00  0.00     0.045 A 
ENDROOT
BRANCH   1  14
ATOM     14  C   UNL d   1      14.465  15.234  -0.580  0.00  0.00     0.087 C 
BRANCH  14  15
ATOM     15  C   UNL d   1      14.631  15.707  -1.230  0.00  0.00     0.018 A 
ATOM     16  C   UNL d   1      15.117  16.386  -1.142  0.00  0.00     0.002 A 
ATOM     17  C   UNL d   1      15.288  16.861  -1.780  0.00  0.00     0.011 A 
ATOM     18  C   UNL d   1      14.979  16.672  -2.511  0.00  0.00     0.058 A 
ATOM     19  C   UNL d   1      14.497  16.004  -2.609  0.00  0.00     0.011 A 
ATOM     20 CL   UNL d   1      15.149  17.152  -3.160  0.00  0.00    -0.082 Cl
ATOM     21  C   UNL d   1      14.326  15.529  -1.976  0.00  0.00     0.002 A 
ENDBRANCH  14  15
ENDBRANCH   1  14
BRANCH   9  22
ATOM     22  O   UNL d   1      13.412  12.525  -0.518  0.00  0.00    -0.328 OA
ATOM     23  C   UNL d   1      13.018  11.862  -0.810  0.00  0.00     0.181 C 
ENDBRANCH   9  22
TORSDOF 3
ENDMDL
