MODEL 1
REMARK VINA RESULT:      16.6      0.000      0.000
REMARK  4 active torsions:
REMARK  status: ('A' for Active; 'I' for Inactive)
REMARK    1  A    between atoms: C_12  and  N_1 
REMARK    2  A    between atoms: N_3  and  C_11 
REMARK    3  A    between atoms: C_11  and  C_15 
REMARK    4  A    between atoms: C_15  and  C_12 
ROOT
ATOM      1  N   UNL d   1      45.647 -15.495  44.876  0.00  0.00    -0.303 N 
ATOM      2  C   UNL d   1      44.817 -15.533  44.890  0.00  0.00     0.064 A 
ATOM      3  C   UNL d   1      44.526 -14.763  44.830  0.00  0.00     0.018 A 
ATOM      4  C   UNL d   1      45.169 -14.247  44.779  0.00  0.00     0.018 A 
ATOM      5  C   UNL d   1      45.865 -14.701  44.808  0.00  0.00     0.064 A 
ATOM      6  C   UNL d   1      46.602 -14.330  44.768  0.00  0.00     0.018 A 
ATOM      7  C   UNL d   1      45.216 -13.425  44.711  0.00  0.00     0.002 A 
ATOM      8  C   UNL d   1      46.646 -13.512  44.700  0.00  0.00     0.002 A 
ATOM      9  C   UNL d   1      45.957 -13.062  44.671  0.00  0.00     0.000 A 
ATOM     10  C   UNL d   1      44.366 -16.220  44.952  0.00  0.00     0.019 C 
ATOM     11  C   UNL d   1      43.730 -14.550  44.823  0.00  0.00     0.002 C 
ATOM     12  C   UNL d   1      46.002 -12.243  44.603  0.00  0.00     0.000 C 
ENDROOT
BRANCH   1  13
ATOM     13  C   UNL d   1      46.164 -16.140  44.922  0.00  0.00     0.124 C 
BRANCH  13  14
ATOM     14  C   UNL d   1      46.157 -16.712  44.325  0.00  0.00     0.232 C 
ATOM     15  O   UNL d   1      46.126 -16.482  43.540  0.00  0.00    -0.283 OA
BRANCH  14  16
ATOM     16  C   UNL d   1      46.181 -17.510  44.527  0.00  0.00     0.144 C 
BRANCH  16  17
ATOM     17  N   UNL d   1      46.333 -18.081  43.957  0.00  0.00    -0.225 N 
ATOM     18  N   UNL d   1      46.372 -17.945  43.141  0.00  0.00    -0.165 NA
ATOM     19  C   UNL d   1      46.536 -18.668  42.770  0.00  0.00     0.103 A 
ATOM     20  C   UNL d   1      46.624 -18.797  41.963  0.00  0.00     0.022 C 
ATOM     21  C   UNL d   1      46.597 -19.249  43.359  0.00  0.00     0.040 A 
ATOM     22  C   UNL d   1      46.471 -18.883  44.092  0.00  0.00     0.085 A 
ATOM     23  C   UNL d   1      46.481 -19.253  44.826  0.00  0.00     0.021 C 
ENDBRANCH  16  17
ENDBRANCH  14  16
ENDBRANCH  13  14
ENDBRANCH   1  13
TORSDOF 4
ENDMDL
