MODEL 1
REMARK VINA RESULT:      23.3      0.000      0.000
REMARK  4 active torsions:
REMARK  status: ('A' for Active; 'I' for Inactive)
REMARK    1  A    between atoms: C_3  and  N_1 
REMARK    2  A    between atoms: C_6  and  C_3 
REMARK    3  A    between atoms: C_9  and  C_3 
REMARK    4  A    between atoms: N_5  and  C_6 
ROOT
ATOM      1  C   UNL d   1      44.812 -15.775  37.183  0.00  0.00     0.106 C 
ENDROOT
BRANCH   1   2
ATOM      2  N   UNL d   1      45.321 -15.113  37.145  0.00  0.00    -0.228 N 
ATOM      3  N   UNL d   1      45.264 -14.347  37.458  0.00  0.00    -0.165 NA
ATOM      4  C   UNL d   1      45.937 -13.951  37.231  0.00  0.00     0.103 A 
ATOM      5  C   UNL d   1      46.122 -13.151  37.423  0.00  0.00     0.022 C 
ATOM      6  C   UNL d   1      46.405 -14.439  36.794  0.00  0.00     0.040 A 
ATOM      7  C   UNL d   1      46.033 -15.168  36.732  0.00  0.00     0.085 A 
ATOM      8  C   UNL d   1      46.313 -15.843  36.330  0.00  0.00     0.021 C 
ENDBRANCH   1   2
BRANCH   1   9
ATOM      9  C   UNL d   1      45.112 -16.511  37.407  0.00  0.00     0.167 C 
BRANCH   9  10
ATOM     10  N   UNL d   1      45.005 -16.790  38.177  0.00  0.00    -0.111 N 
ATOM     11  O   UNL d   1      45.521 -16.563  38.779  0.00  0.00    -0.532 OA
ATOM     12  O   UNL d   1      44.370 -17.306  38.347  0.00  0.00    -0.532 OA
ENDBRANCH   9  10
ENDBRANCH   1   9
BRANCH   1  13
ATOM     13  C   UNL d   1      43.980 -15.691  36.991  0.00  0.00     0.019 A 
ATOM     14  C   UNL d   1      43.611 -16.243  36.512  0.00  0.00     0.002 A 
ATOM     15  C   UNL d   1      42.811 -16.157  36.331  0.00  0.00     0.000 A 
ATOM     16  C   UNL d   1      42.380 -15.519  36.627  0.00  0.00     0.000 A 
ATOM     17  C   UNL d   1      42.749 -14.967  37.106  0.00  0.00     0.000 A 
ATOM     18  C   UNL d   1      41.558 -15.436  36.437  0.00  0.00     0.000 C 
ATOM     19  C   UNL d   1      43.550 -15.053  37.287  0.00  0.00     0.002 A 
ENDBRANCH   1  13
TORSDOF 4
ENDMDL
MODEL 2
REMARK VINA RESULT:      24.2      6.539      7.322
REMARK  4 active torsions:
REMARK  status: ('A' for Active; 'I' for Inactive)
REMARK    1  A    between atoms: C_3  and  N_1 
REMARK    2  A    between atoms: C_6  and  C_3 
REMARK    3  A    between atoms: C_9  and  C_3 
REMARK    4  A    between atoms: N_5  and  C_6 
ROOT
ATOM      1  C   UNL d   1      45.522 -13.882  44.136  0.00  0.00     0.106 C 
ENDROOT
BRANCH   1   2
ATOM      2  N   UNL d   1      45.389 -13.438  43.440  0.00  0.00    -0.228 N 
ATOM      3  N   UNL d   1      45.904 -13.140  42.861  0.00  0.00    -0.165 NA
ATOM      4  C   UNL d   1      45.444 -12.753  42.316  0.00  0.00     0.103 A 
ATOM      5  C   UNL d   1      45.729 -12.360  41.625  0.00  0.00     0.022 C 
ATOM      6  C   UNL d   1      44.670 -12.798  42.531  0.00  0.00     0.040 A 
ATOM      7  C   UNL d   1      44.621 -13.223  43.232  0.00  0.00     0.085 A 
ATOM      8  C   UNL d   1      43.930 -13.409  43.660  0.00  0.00     0.021 C 
ENDBRANCH   1   2
BRANCH   1   9
ATOM      9  C   UNL d   1      45.554 -13.499  44.866  0.00  0.00     0.167 C 
BRANCH   9  10
ATOM     10  N   UNL d   1      45.829 -12.722  44.919  0.00  0.00    -0.111 N 
ATOM     11  O   UNL d   1      46.639 -12.566  44.938  0.00  0.00    -0.532 OA
ATOM     12  O   UNL d   1      45.283 -12.090  44.954  0.00  0.00    -0.532 OA
ENDBRANCH   9  10
ENDBRANCH   1   9
BRANCH   1  13
ATOM     13  C   UNL d   1      45.625 -14.732  44.092  0.00  0.00     0.019 A 
ATOM     14  C   UNL d   1      46.238 -15.051  43.652  0.00  0.00     0.002 A 
ATOM     15  C   UNL d   1      46.332 -15.869  43.614  0.00  0.00     0.000 A 
ATOM     16  C   UNL d   1      45.812 -16.370  44.014  0.00  0.00     0.000 A 
ATOM     17  C   UNL d   1      45.199 -16.052  44.454  0.00  0.00     0.000 A 
ATOM     18  C   UNL d   1      45.914 -17.211  43.971  0.00  0.00     0.000 C 
ATOM     19  C   UNL d   1      45.106 -15.233  44.492  0.00  0.00     0.002 A 
ENDBRANCH   1  13
TORSDOF 4
ENDMDL
