MODEL 1
REMARK VINA RESULT:      23.5      0.000      0.000
REMARK  3 active torsions:
REMARK  status: ('A' for Active; 'I' for Inactive)
REMARK       I    between atoms: C_3  and  N_1 
REMARK    1  A    between atoms: C_6  and  C_3 
REMARK    2  A    between atoms: O_9  and  C_6 
REMARK    3  A    between atoms: C_10  and  O_9 
ROOT
ATOM      1  N   UNL d   1     -58.322 -98.759 -44.822  0.00  0.00    -0.272 N 
ATOM      2  C   UNL d   1     -58.603 -98.758 -44.044  0.00  0.00     0.067 A 
ATOM      3  C   UNL d   1     -57.525 -98.758 -45.060  0.00  0.00     0.290 C 
ATOM      4  C   UNL d   1     -58.951 -98.760 -45.318  0.00  0.00     0.083 A 
ATOM      5  C   UNL d   1     -59.417 -98.759 -44.068  0.00  0.00     0.018 A 
ATOM      6  O   UNL d   1     -57.344 -98.760 -45.862  0.00  0.00    -0.264 OA
ATOM      7  C   UNL d   1     -59.648 -98.760 -44.858  0.00  0.00     0.021 A 
ATOM      8  C   UNL d   1     -58.224 -98.756 -43.317  0.00  0.00     0.018 A 
ATOM      9  C   UNL d   1     -59.860 -98.758 -43.369  0.00  0.00     0.002 A 
ATOM     10  C   UNL d   1     -58.649 -98.756 -42.624  0.00  0.00     0.002 A 
ATOM     11  C   UNL d   1     -59.483 -98.756 -42.653  0.00  0.00     0.000 A 
ENDROOT
BRANCH   3  12
ATOM     12  C   UNL d   1     -56.932 -98.757 -44.487  0.00  0.00     0.184 C 
BRANCH  12  13
ATOM     13  O   UNL d   1     -56.143 -98.875 -44.721  0.00  0.00    -0.300 OA
BRANCH  13  14
ATOM     14  C   UNL d   1     -55.737 -99.542 -44.468  0.00  0.00     0.100 A 
ATOM     15  C   UNL d   1     -55.940-100.290 -44.768  0.00  0.00     0.025 A 
ATOM     16  C   UNL d   1     -55.537-100.959 -44.517  0.00  0.00     0.002 A 
ATOM     17  C   UNL d   1     -54.927-100.888 -43.966  0.00  0.00     0.000 A 
ATOM     18  C   UNL d   1     -54.712-100.148 -43.657  0.00  0.00     0.002 A 
ATOM     19  C   UNL d   1     -55.129 -99.472 -43.918  0.00  0.00     0.025 A 
ENDBRANCH  13  14
ENDBRANCH  12  13
ENDBRANCH   3  12
TORSDOF 3
ENDMDL
