MODEL 1
REMARK VINA RESULT:      -4.7      0.000      0.000
REMARK  2 active torsions:
REMARK  status: ('A' for Active; 'I' for Inactive)
REMARK    1  A    between atoms: C_6  and  C_1 
REMARK    2  A    between atoms: O_10  and  C_6 
ROOT
ATOM      1  C   UNL d   1     -41.668-122.248 -52.771  0.00  0.00     0.096 A 
ATOM      2  S   UNL d   1     -41.352-122.954 -53.084  0.00  0.00    -0.040 SA
ATOM      3  C   UNL d   1     -41.435-123.119 -53.893  0.00  0.00     0.226 A 
ATOM      4  C   UNL d   1     -42.063-121.716 -53.271  0.00  0.00     0.012 A 
ATOM      5  C   UNL d   1     -42.143-121.884 -54.073  0.00  0.00     0.004 A 
ATOM      6  C   UNL d   1     -41.831-122.582 -54.383  0.00  0.00     0.045 A 
ATOM      7  O   UNL d   1     -41.123-123.817 -54.202  0.00  0.00    -0.279 OA
ATOM      8  C   UNL d   1     -42.535-121.354 -54.566  0.00  0.00     0.000 A 
ATOM      9  C   UNL d   1     -41.907-122.757 -55.187  0.00  0.00     0.004 A 
ATOM     10  C   UNL d   1     -42.616-121.521 -55.368  0.00  0.00     0.000 A 
ATOM     11  C   UNL d   1     -42.300-122.227 -55.681  0.00  0.00     0.000 A 
ENDROOT
BRANCH   1  12
ATOM     12  C   UNL d   1     -41.584-122.088 -51.968  0.00  0.00     0.302 C 
ATOM     13  O   UNL d   1     -41.128-121.443 -51.729  0.00  0.00    -0.259 OA
BRANCH  12  14
ATOM     14  O   UNL d   1     -41.944-122.560 -51.403  0.00  0.00    -0.295 OA
ATOM     15  C   UNL d   1     -41.919-122.332 -50.601  0.00  0.00     0.185 C 
ENDBRANCH  12  14
ENDBRANCH   1  12
TORSDOF 2
ENDMDL
MODEL 2
REMARK VINA RESULT:      -4.3      1.117      3.483
REMARK  2 active torsions:
REMARK  status: ('A' for Active; 'I' for Inactive)
REMARK    1  A    between atoms: C_6  and  C_1 
REMARK    2  A    between atoms: O_10  and  C_6 
ROOT
ATOM      1  C   UNL d   1     -41.490-122.364 -53.154  0.00  0.00     0.096 A 
ATOM      2  S   UNL d   1     -41.367-121.640 -52.758  0.00  0.00    -0.040 SA
ATOM      3  C   UNL d   1     -41.244-121.634 -51.938  0.00  0.00     0.226 A 
ATOM      4  C   UNL d   1     -41.489-123.073 -52.724  0.00  0.00     0.012 A 
ATOM      5  C   UNL d   1     -41.368-123.064 -51.909  0.00  0.00     0.004 A 
ATOM      6  C   UNL d   1     -41.246-122.348 -51.518  0.00  0.00     0.045 A 
ATOM      7  O   UNL d   1     -41.123-120.918 -51.547  0.00  0.00    -0.279 OA
ATOM      8  C   UNL d   1     -41.368-123.769 -51.486  0.00  0.00     0.000 A 
ATOM      9  C   UNL d   1     -41.123-122.330 -50.701  0.00  0.00     0.004 A 
ATOM     10  C   UNL d   1     -41.246-123.760 -50.672  0.00  0.00     0.000 A 
ATOM     11  C   UNL d   1     -41.123-123.036 -50.277  0.00  0.00     0.000 A 
ENDROOT
BRANCH   1  12
ATOM     12  C   UNL d   1     -41.610-122.364 -53.968  0.00  0.00     0.302 C 
ATOM     13  O   UNL d   1     -41.130-122.833 -54.448  0.00  0.00    -0.259 OA
BRANCH  12  14
ATOM     14  O   UNL d   1     -42.199-121.907 -54.308  0.00  0.00    -0.295 OA
ATOM     15  C   UNL d   1     -42.412-122.036 -55.104  0.00  0.00     0.185 C 
ENDBRANCH  12  14
ENDBRANCH   1  12
TORSDOF 2
ENDMDL
MODEL 3
REMARK VINA RESULT:      -4.2      1.860      2.763
REMARK  2 active torsions:
REMARK  status: ('A' for Active; 'I' for Inactive)
REMARK    1  A    between atoms: C_6  and  C_1 
REMARK    2  A    between atoms: O_10  and  C_6 
ROOT
ATOM      1  C   UNL d   1     -41.574-122.983 -50.543  0.00  0.00     0.096 A 
ATOM      2  S   UNL d   1     -41.425-122.177 -50.695  0.00  0.00    -0.040 SA
ATOM      3  C   UNL d   1     -41.275-121.925 -51.471  0.00  0.00     0.226 A 
ATOM      4  C   UNL d   1     -41.573-123.528 -51.169  0.00  0.00     0.012 A 
ATOM      5  C   UNL d   1     -41.424-123.274 -51.938  0.00  0.00     0.004 A 
ATOM      6  C   UNL d   1     -41.276-122.477 -52.089  0.00  0.00     0.045 A 
ATOM      7  O   UNL d   1     -41.127-121.127 -51.622  0.00  0.00    -0.279 OA
ATOM      8  C   UNL d   1     -41.423-123.817 -52.556  0.00  0.00     0.000 A 
ATOM      9  C   UNL d   1     -41.126-122.215 -52.859  0.00  0.00     0.004 A 
ATOM     10  C   UNL d   1     -41.274-123.564 -53.325  0.00  0.00     0.000 A 
ATOM     11  C   UNL d   1     -41.125-122.758 -53.477  0.00  0.00     0.000 A 
ENDROOT
BRANCH   1  12
ATOM     12  C   UNL d   1     -41.722-123.228 -49.771  0.00  0.00     0.302 C 
ATOM     13  O   UNL d   1     -41.180-123.721 -49.392  0.00  0.00    -0.259 OA
BRANCH  12  14
ATOM     14  O   UNL d   1     -42.398-122.990 -49.374  0.00  0.00    -0.295 OA
ATOM     15  C   UNL d   1     -42.621-123.380 -48.672  0.00  0.00     0.185 C 
ENDBRANCH  12  14
ENDBRANCH   1  12
TORSDOF 2
ENDMDL
MODEL 4
REMARK VINA RESULT:      -2.0      1.561      4.124
REMARK  2 active torsions:
REMARK  status: ('A' for Active; 'I' for Inactive)
REMARK    1  A    between atoms: C_6  and  C_1 
REMARK    2  A    between atoms: O_10  and  C_6 
ROOT
ATOM      1  C   UNL d   1     -41.860-122.348 -51.155  0.00  0.00     0.096 A 
ATOM      2  S   UNL d   1     -41.371-122.902 -50.768  0.00  0.00    -0.040 SA
ATOM      3  C   UNL d   1     -41.613-123.231 -50.046  0.00  0.00     0.226 A 
ATOM      4  C   UNL d   1     -42.585-122.130 -50.816  0.00  0.00     0.012 A 
ATOM      5  C   UNL d   1     -42.822-122.459 -50.099  0.00  0.00     0.004 A 
ATOM      6  C   UNL d   1     -42.339-123.006 -49.716  0.00  0.00     0.045 A 
ATOM      7  O   UNL d   1     -41.130-123.778 -49.662  0.00  0.00    -0.279 OA
ATOM      8  C   UNL d   1     -43.542-122.240 -49.766  0.00  0.00     0.000 A 
ATOM      9  C   UNL d   1     -42.570-123.341 -48.996  0.00  0.00     0.004 A 
ATOM     10  C   UNL d   1     -43.779-122.569 -49.049  0.00  0.00     0.000 A 
ATOM     11  C   UNL d   1     -43.291-123.122 -48.662  0.00  0.00     0.000 A 
ENDROOT
BRANCH   1  12
ATOM     12  C   UNL d   1     -41.615-122.025 -51.872  0.00  0.00     0.302 C 
ATOM     13  O   UNL d   1     -41.126-121.361 -51.870  0.00  0.00    -0.259 OA
BRANCH  12  14
ATOM     14  O   UNL d   1     -41.850-122.352 -52.585  0.00  0.00    -0.295 OA
ATOM     15  C   UNL d   1     -41.536-122.053 -53.298  0.00  0.00     0.185 C 
ENDBRANCH  12  14
ENDBRANCH   1  12
TORSDOF 2
ENDMDL
