MODEL 1
REMARK VINA RESULT:      72.1      0.000      0.000
REMARK  3 active torsions:
REMARK  status: ('A' for Active; 'I' for Inactive)
REMARK    1  A    between atoms: C_4  and  C_1 
REMARK    2  A    between atoms: C_9  and  N_2 
REMARK    3  A    between atoms: C_8  and  N_3 
ROOT
ATOM      1  C   UNL d   1      59.418  49.250  51.177  0.00  0.00     0.139 A 
ATOM      2  N   UNL d   1      59.783  49.330  51.912  0.00  0.00    -0.290 N 
ATOM      3  N   UNL d   1      58.621  49.445  51.257  0.00  0.00    -0.290 N 
ATOM      4  C   UNL d   1      59.219  49.573  52.444  0.00  0.00     0.101 A 
ATOM      5  C   UNL d   1      58.509  49.644  52.049  0.00  0.00     0.101 A 
ENDROOT
BRANCH   2   6
ATOM      6  C   UNL d   1      60.573  49.210  52.162  0.00  0.00     0.066 A 
ATOM      7  C   UNL d   1      61.029  48.613  51.843  0.00  0.00     0.018 A 
ATOM      8  C   UNL d   1      61.797  48.500  52.089  0.00  0.00     0.002 A 
ATOM      9  C   UNL d   1      62.119  48.993  52.668  0.00  0.00     0.000 A 
ATOM     10  C   UNL d   1      61.662  49.590  52.989  0.00  0.00     0.002 A 
ATOM     11  C   UNL d   1      60.888  49.706  52.742  0.00  0.00     0.018 A 
ENDBRANCH   2   6
BRANCH   1  12
ATOM     12  C   UNL d   1      59.814  49.011  50.488  0.00  0.00     0.063 A 
ATOM     13  S   UNL d   1      59.982  49.706  50.025  0.00  0.00    -0.083 SA
ATOM     14  C   UNL d   1      60.375  49.454  49.343  0.00  0.00     0.035 A 
ATOM     15  C   UNL d   1      60.456  48.641  49.366  0.00  0.00     0.008 A 
ATOM     16  C   UNL d   1      60.109  48.355  50.074  0.00  0.00     0.010 A 
ENDBRANCH   1  12
BRANCH   3  17
ATOM     17  C   UNL d   1      58.118  49.415  50.613  0.00  0.00     0.066 A 
ATOM     18  C   UNL d   1      58.353  49.707  49.880  0.00  0.00     0.018 A 
ATOM     19  C   UNL d   1      57.828  49.668  49.240  0.00  0.00     0.002 A 
ATOM     20  C   UNL d   1      57.088  49.346  49.323  0.00  0.00     0.000 A 
ATOM     21  C   UNL d   1      56.834  49.046  50.058  0.00  0.00     0.002 A 
ATOM     22  C   UNL d   1      57.351  49.082  50.702  0.00  0.00     0.018 A 
ENDBRANCH   3  17
TORSDOF 3
ENDMDL
MODEL 2
REMARK VINA RESULT:      73.8      1.047      3.899
REMARK  3 active torsions:
REMARK  status: ('A' for Active; 'I' for Inactive)
REMARK    1  A    between atoms: C_4  and  C_1 
REMARK    2  A    between atoms: C_9  and  N_2 
REMARK    3  A    between atoms: C_8  and  N_3 
ROOT
ATOM      1  C   UNL d   1      59.104  49.124  50.368  0.00  0.00     0.139 A 
ATOM      2  N   UNL d   1      58.600  49.159  49.716  0.00  0.00    -0.290 N 
ATOM      3  N   UNL d   1      59.875  49.271  50.112  0.00  0.00    -0.290 N 
ATOM      4  C   UNL d   1      59.051  49.326  49.062  0.00  0.00     0.101 A 
ATOM      5  C   UNL d   1      59.829  49.395  49.299  0.00  0.00     0.101 A 
ENDROOT
BRANCH   2   6
ATOM      6  C   UNL d   1      57.772  49.056  49.641  0.00  0.00     0.066 A 
ATOM      7  C   UNL d   1      57.417  48.348  49.835  0.00  0.00     0.018 A 
ATOM      8  C   UNL d   1      56.611  48.254  49.760  0.00  0.00     0.002 A 
ATOM      9  C   UNL d   1      56.149  48.880  49.487  0.00  0.00     0.000 A 
ATOM     10  C   UNL d   1      56.504  49.590  49.292  0.00  0.00     0.002 A 
ATOM     11  C   UNL d   1      57.316  49.687  49.367  0.00  0.00     0.018 A 
ENDBRANCH   2   6
BRANCH   1  12
ATOM     12  C   UNL d   1      58.850  48.964  51.141  0.00  0.00     0.063 A 
ATOM     13  S   UNL d   1      58.612  49.701  51.498  0.00  0.00    -0.083 SA
ATOM     14  C   UNL d   1      58.362  49.527  52.267  0.00  0.00     0.035 A 
ATOM     15  C   UNL d   1      58.434  48.724  52.398  0.00  0.00     0.008 A 
ATOM     16  C   UNL d   1      58.737  48.364  51.703  0.00  0.00     0.010 A 
ENDBRANCH   1  12
BRANCH   3  17
ATOM     17  C   UNL d   1      60.497  49.272  50.643  0.00  0.00     0.066 A 
ATOM     18  C   UNL d   1      61.194  48.867  50.476  0.00  0.00     0.018 A 
ATOM     19  C   UNL d   1      61.812  48.880  51.028  0.00  0.00     0.002 A 
ATOM     20  C   UNL d   1      61.743  49.285  51.728  0.00  0.00     0.000 A 
ATOM     21  C   UNL d   1      61.043  49.700  51.911  0.00  0.00     0.002 A 
ATOM     22  C   UNL d   1      60.422  49.692  51.367  0.00  0.00     0.018 A 
ENDBRANCH   3  17
TORSDOF 3
ENDMDL
