MODEL 1
REMARK VINA RESULT:      37.9      0.000      0.000
REMARK  7 active torsions:
REMARK  status: ('A' for Active; 'I' for Inactive)
REMARK    1  A    between atoms: C_4  and  C_1 
REMARK    2  A    between atoms: C_13  and  N_3 
REMARK    3  A    between atoms: C_15  and  N_5 
REMARK    4  A    between atoms: C_12  and  C_15 
REMARK    5  A    between atoms: C_18  and  C_13 
REMARK    6  A    between atoms: O_16  and  C_18 
REMARK    7  A    between atoms: C_17  and  O_16 
ROOT
ATOM      1  C   UNL d   1      13.788  12.603  -2.723  0.00  0.00     0.149 A 
ATOM      2  N   UNL d   1      13.514  11.944  -3.139  0.00  0.00    -0.227 NA
ATOM      3  N   UNL d   1      13.723  13.265  -3.218  0.00  0.00    -0.287 N 
ATOM      4  C   UNL d   1      13.406  13.011  -3.948  0.00  0.00     0.083 A 
ATOM      5  C   UNL d   1      13.279  12.195  -3.892  0.00  0.00     0.099 A 
ATOM      6  C   UNL d   1      13.219  13.411  -4.644  0.00  0.00     0.019 A 
ATOM      7  C   UNL d   1      12.966  11.782  -4.533  0.00  0.00     0.021 A 
ATOM      8  C   UNL d   1      12.905  12.997  -5.285  0.00  0.00     0.002 A 
ATOM      9  C   UNL d   1      12.780  12.190  -5.230  0.00  0.00     0.002 A 
ENDROOT
BRANCH   1  10
ATOM     10  C   UNL d   1      14.078  12.611  -1.949  0.00  0.00     0.057 A 
ATOM     11  C   UNL d   1      14.476  13.233  -1.582  0.00  0.00     0.086 A 
ATOM     12  N   UNL d   1      14.661  12.996  -0.812  0.00  0.00    -0.272 N 
ATOM     13  C   UNL d   1      14.376  12.227  -0.706  0.00  0.00     0.265 A 
ATOM     14  C   UNL d   1      14.017  11.994  -1.411  0.00  0.00     0.066 A 
ATOM     15  O   UNL d   1      14.442  11.779  -0.017  0.00  0.00    -0.267 OA
BRANCH  12  16
ATOM     16  C   UNL d   1      15.062  13.456  -0.253  0.00  0.00     0.083 C 
BRANCH  16  17
ATOM     17  C   UNL d   1      15.141  14.272  -0.353  0.00  0.00     0.019 C 
ATOM     18  C   UNL d   1      15.890  14.620  -0.368  0.00  0.00     0.002 C 
ENDBRANCH  16  17
ENDBRANCH  12  16
ENDBRANCH   1  10
BRANCH   3  19
ATOM     19  C   UNL d   1      13.977  13.973  -2.879  0.00  0.00     0.108 C 
BRANCH  19  20
ATOM     20  C   UNL d   1      14.106  14.634  -3.351  0.00  0.00     0.142 C 
BRANCH  20  21
ATOM     21  O   UNL d   1      14.239  15.366  -3.009  0.00  0.00    -0.304 OA
BRANCH  21  22
ATOM     22  C   UNL d   1      14.575  15.975  -3.449  0.00  0.00     0.100 A 
ATOM     23  C   UNL d   1      14.866  16.635  -3.071  0.00  0.00     0.025 A 
ATOM     24  C   UNL d   1      15.200  17.241  -3.513  0.00  0.00     0.002 A 
ATOM     25  C   UNL d   1      15.240  17.180  -4.328  0.00  0.00     0.000 A 
ATOM     26  C   UNL d   1      14.942  16.504  -4.700  0.00  0.00     0.002 A 
ATOM     27  C   UNL d   1      14.611  15.905  -4.263  0.00  0.00     0.025 A 
ENDBRANCH  21  22
ENDBRANCH  20  21
ENDBRANCH  19  20
ENDBRANCH   3  19
TORSDOF 7
ENDMDL
