MODEL 1
REMARK VINA RESULT:      -5.8      0.000      0.000
REMARK  3 active torsions:
REMARK  status: ('A' for Active; 'I' for Inactive)
REMARK    1  A    between atoms: N_3  and  C_1 
REMARK       I    between atoms: C_2  and  N_3 
REMARK       I    between atoms: N_14  and  C_2 
REMARK    2  A    between atoms: C_16  and  N_14 
REMARK    3  A    between atoms: C_17  and  C_16 
ROOT
ATOM      1  C   UNL d   1     -41.299-122.755 -52.581  0.00  0.00     0.127 A 
ATOM      2  C   UNL d   1     -41.454-122.158 -51.639  0.00  0.00    -0.006 A 
ATOM      3  C   UNL d   1     -41.124-123.817 -51.742  0.00  0.00     0.046 A 
ATOM      4  C   UNL d   1     -41.383-122.596 -51.252  0.00  0.00    -0.006 A 
ATOM      5  C   UNL d   1     -41.418-122.280 -51.944  0.00  0.00    -0.001 A 
ATOM      6  C   UNL d   1     -41.417-122.105 -52.831  0.00  0.00    -0.001 A 
ATOM      7  C   UNL d   1     -41.173-123.421 -52.464  0.00  0.00     0.040 A 
ATOM      8  C   UNL d   1     -41.265-123.139 -51.545  0.00  0.00    -0.022 A 
ATOM      9  C   UNL d   1     -41.239-123.351 -51.153  0.00  0.00    -0.022 A 
ATOM     10  C   UNL d   1     -41.605-121.659 -50.274  0.00  0.00    -0.001 A 
ENDROOT
BRANCH   1  11
ATOM     11  N   UNL d   1     -41.148-123.393 -53.241  0.00  0.00    -0.213 NA
ATOM     12  C   UNL d   1     -41.305-123.178 -54.107  0.00  0.00     0.365 C 
ATOM     13  O   UNL d   1     -41.158-123.797 -54.750  0.00  0.00    -0.243 OA
ATOM     14  N   UNL d   1     -41.625-122.301 -54.355  0.00  0.00    -0.186 NA
BRANCH  14  15
ATOM     15  C   UNL d   1     -41.775-122.110 -55.238  0.00  0.00     0.149 C 
BRANCH  15  16
ATOM     16  C   UNL d   1     -42.604-121.846 -55.517  0.00  0.00     0.255 C 
ATOM     17  O   UNL d   1     -42.919-122.034 -56.384  0.00  0.00    -0.281 OA
ENDBRANCH  15  16
ENDBRANCH  14  15
ENDBRANCH   1  11
TORSDOF 3
ENDMDL
MODEL 2
REMARK VINA RESULT:      -4.8      1.456      2.252
REMARK  3 active torsions:
REMARK  status: ('A' for Active; 'I' for Inactive)
REMARK    1  A    between atoms: N_3  and  C_1 
REMARK       I    between atoms: C_2  and  N_3 
REMARK       I    between atoms: N_14  and  C_2 
REMARK    2  A    between atoms: C_16  and  N_14 
REMARK    3  A    between atoms: C_17  and  C_16 
ROOT
ATOM      1  C   UNL d   1     -41.785-122.455 -50.929  0.00  0.00     0.127 A 
ATOM      2  C   UNL d   1     -41.466-123.050 -50.029  0.00  0.00    -0.006 A 
ATOM      3  C   UNL d   1     -42.970-122.306 -50.267  0.00  0.00     0.046 A 
ATOM      4  C   UNL d   1     -41.965-123.004 -49.719  0.00  0.00    -0.006 A 
ATOM      5  C   UNL d   1     -41.504-122.888 -50.314  0.00  0.00    -0.001 A 
ATOM      6  C   UNL d   1     -41.125-122.641 -51.097  0.00  0.00    -0.001 A 
ATOM      7  C   UNL d   1     -42.428-122.214 -50.882  0.00  0.00     0.040 A 
ATOM      8  C   UNL d   1     -42.393-122.667 -50.031  0.00  0.00    -0.022 A 
ATOM      9  C   UNL d   1     -42.685-122.718 -49.696  0.00  0.00    -0.022 A 
ATOM     10  C   UNL d   1     -41.341-123.757 -48.756  0.00  0.00    -0.001 A 
ENDROOT
BRANCH   1  11
ATOM     11  N   UNL d   1     -42.212-121.944 -51.579  0.00  0.00    -0.213 NA
ATOM     12  C   UNL d   1     -42.011-122.082 -52.452  0.00  0.00     0.365 C 
ATOM     13  O   UNL d   1     -42.424-121.587 -53.085  0.00  0.00    -0.243 OA
ATOM     14  N   UNL d   1     -41.364-122.749 -52.717  0.00  0.00    -0.186 NA
BRANCH  14  15
ATOM     15  C   UNL d   1     -41.179-122.869 -53.605  0.00  0.00     0.149 C 
BRANCH  15  16
ATOM     16  C   UNL d   1     -41.306-123.686 -53.995  0.00  0.00     0.255 C 
ATOM     17  O   UNL d   1     -41.186-123.817 -54.920  0.00  0.00    -0.281 OA
ENDBRANCH  15  16
ENDBRANCH  14  15
ENDBRANCH   1  11
TORSDOF 3
ENDMDL
MODEL 3
REMARK VINA RESULT:      -4.6      2.150      3.387
REMARK  3 active torsions:
REMARK  status: ('A' for Active; 'I' for Inactive)
REMARK    1  A    between atoms: N_3  and  C_1 
REMARK       I    between atoms: C_2  and  N_3 
REMARK       I    between atoms: N_14  and  C_2 
REMARK    2  A    between atoms: C_16  and  N_14 
REMARK    3  A    between atoms: C_17  and  C_16 
ROOT
ATOM      1  C   UNL d   1     -41.404-122.720 -52.296  0.00  0.00     0.127 A 
ATOM      2  C   UNL d   1     -41.702-122.193 -53.246  0.00  0.00    -0.006 A 
ATOM      3  C   UNL d   1     -41.139-123.786 -53.106  0.00  0.00     0.046 A 
ATOM      4  C   UNL d   1     -41.596-122.636 -53.620  0.00  0.00    -0.006 A 
ATOM      5  C   UNL d   1     -41.629-122.296 -52.940  0.00  0.00    -0.001 A 
ATOM      6  C   UNL d   1     -41.594-122.082 -52.062  0.00  0.00    -0.001 A 
ATOM      7  C   UNL d   1     -41.195-123.367 -52.398  0.00  0.00     0.040 A 
ATOM      8  C   UNL d   1     -41.385-123.143 -53.317  0.00  0.00    -0.022 A 
ATOM      9  C   UNL d   1     -41.356-123.368 -53.702  0.00  0.00    -0.022 A 
ATOM     10  C   UNL d   1     -42.010-121.783 -54.614  0.00  0.00    -0.001 A 
ENDROOT
BRANCH   1  11
ATOM     11  N   UNL d   1     -41.123-123.301 -51.626  0.00  0.00    -0.213 NA
ATOM     12  C   UNL d   1     -41.510-123.252 -50.808  0.00  0.00     0.365 C 
ATOM     13  O   UNL d   1     -41.238-123.816 -50.155  0.00  0.00    -0.243 OA
ATOM     14  N   UNL d   1     -42.207-122.610 -50.622  0.00  0.00    -0.186 NA
BRANCH  14  15
ATOM     15  C   UNL d   1     -42.582-122.582 -49.787  0.00  0.00     0.149 C 
BRANCH  15  16
ATOM     16  C   UNL d   1     -43.490-122.547 -49.691  0.00  0.00     0.255 C 
ATOM     17  O   UNL d   1     -44.019-121.950 -50.192  0.00  0.00    -0.281 OA
ENDBRANCH  15  16
ENDBRANCH  14  15
ENDBRANCH   1  11
TORSDOF 3
ENDMDL
MODEL 4
REMARK VINA RESULT:      -3.8      2.565      3.517
REMARK  3 active torsions:
REMARK  status: ('A' for Active; 'I' for Inactive)
REMARK    1  A    between atoms: N_3  and  C_1 
REMARK       I    between atoms: C_2  and  N_3 
REMARK       I    between atoms: N_14  and  C_2 
REMARK    2  A    between atoms: C_16  and  N_14 
REMARK    3  A    between atoms: C_17  and  C_16 
ROOT
ATOM      1  C   UNL d   1     -41.804-123.552 -49.442  0.00  0.00     0.127 A 
ATOM      2  C   UNL d   1     -41.783-123.262 -48.354  0.00  0.00    -0.006 A 
ATOM      3  C   UNL d   1     -43.140-123.750 -49.244  0.00  0.00     0.046 A 
ATOM      4  C   UNL d   1     -42.355-123.339 -48.238  0.00  0.00    -0.006 A 
ATOM      5  C   UNL d   1     -41.730-123.336 -48.672  0.00  0.00    -0.001 A 
ATOM      6  C   UNL d   1     -41.123-123.397 -49.339  0.00  0.00    -0.001 A 
ATOM      7  C   UNL d   1     -42.431-123.728 -49.664  0.00  0.00     0.040 A 
ATOM      8  C   UNL d   1     -42.665-123.531 -48.749  0.00  0.00    -0.022 A 
ATOM      9  C   UNL d   1     -43.048-123.543 -48.519  0.00  0.00    -0.022 A 
ATOM     10  C   UNL d   1     -42.064-122.948 -46.955  0.00  0.00    -0.001 A 
ENDROOT
BRANCH   1  11
ATOM     11  N   UNL d   1     -42.006-123.818 -50.310  0.00  0.00    -0.213 NA
ATOM     12  C   UNL d   1     -41.815-123.260 -50.998  0.00  0.00     0.365 C 
ATOM     13  O   UNL d   1     -42.010-123.517 -51.844  0.00  0.00    -0.243 OA
ATOM     14  N   UNL d   1     -41.407-122.398 -50.845  0.00  0.00    -0.186 NA
BRANCH  14  15
ATOM     15  C   UNL d   1     -41.225-121.853 -51.559  0.00  0.00     0.149 C 
BRANCH  15  16
ATOM     16  C   UNL d   1     -41.149-120.950 -51.440  0.00  0.00     0.255 C 
ATOM     17  O   UNL d   1     -41.211-120.349 -52.162  0.00  0.00    -0.281 OA
ENDBRANCH  15  16
ENDBRANCH  14  15
ENDBRANCH   1  11
TORSDOF 3
ENDMDL
MODEL 5
REMARK VINA RESULT:      -3.8      1.773      3.496
REMARK  3 active torsions:
REMARK  status: ('A' for Active; 'I' for Inactive)
REMARK    1  A    between atoms: N_3  and  C_1 
REMARK       I    between atoms: C_2  and  N_3 
REMARK       I    between atoms: N_14  and  C_2 
REMARK    2  A    between atoms: C_16  and  N_14 
REMARK    3  A    between atoms: C_17  and  C_16 
ROOT
ATOM      1  C   UNL d   1     -41.705-122.771 -53.439  0.00  0.00     0.127 A 
ATOM      2  C   UNL d   1     -41.864-122.129 -54.350  0.00  0.00    -0.006 A 
ATOM      3  C   UNL d   1     -41.220-123.697 -54.317  0.00  0.00     0.046 A 
ATOM      4  C   UNL d   1     -41.660-122.507 -54.753  0.00  0.00    -0.006 A 
ATOM      5  C   UNL d   1     -41.840-122.270 -54.052  0.00  0.00    -0.001 A 
ATOM      6  C   UNL d   1     -41.981-122.182 -53.164  0.00  0.00    -0.001 A 
ATOM      7  C   UNL d   1     -41.434-123.386 -53.584  0.00  0.00     0.040 A 
ATOM      8  C   UNL d   1     -41.471-123.042 -54.485  0.00  0.00    -0.022 A 
ATOM      9  C   UNL d   1     -41.356-123.208 -54.883  0.00  0.00    -0.022 A 
ATOM     10  C   UNL d   1     -41.949-121.543 -55.686  0.00  0.00    -0.001 A 
ENDROOT
BRANCH   1  11
ATOM     11  N   UNL d   1     -41.508-123.427 -52.810  0.00  0.00    -0.213 NA
ATOM     12  C   UNL d   1     -41.319-123.180 -51.959  0.00  0.00     0.365 C 
ATOM     13  O   UNL d   1     -41.127-123.817 -51.346  0.00  0.00    -0.243 OA
ATOM     14  N   UNL d   1     -41.319-122.251 -51.696  0.00  0.00    -0.186 NA
BRANCH  14  15
ATOM     15  C   UNL d   1     -41.124-122.029 -50.829  0.00  0.00     0.149 C 
BRANCH  15  16
ATOM     16  C   UNL d   1     -41.798-121.897 -50.226  0.00  0.00     0.255 C 
ATOM     17  O   UNL d   1     -41.851-122.392 -49.427  0.00  0.00    -0.281 OA
ENDBRANCH  15  16
ENDBRANCH  14  15
ENDBRANCH   1  11
TORSDOF 3
ENDMDL
