MODEL 1
REMARK VINA RESULT:      43.8      0.000      0.000
REMARK  1 active torsions:
REMARK  status: ('A' for Active; 'I' for Inactive)
REMARK    1  A    between atoms: C_15  and  C_10 
ROOT
ATOM      1  C   UNL d   1     -53.133  24.401  33.478  0.00  0.00     0.111 A 
ATOM      2  C   UNL d   1     -51.784  24.853  33.408  0.00  0.00     0.062 A 
ATOM      3  C   UNL d   1     -52.039  25.619  33.438  0.00  0.00     0.105 A 
ATOM      4  C   UNL d   1     -53.389  25.167  33.508  0.00  0.00     0.213 A 
ATOM      5  C   UNL d   1     -52.331  24.236  33.428  0.00  0.00     0.018 A 
ATOM      6  O   UNL d   1     -52.846  25.782  33.488  0.00  0.00    -0.287 OA
ATOM      7  C   UNL d   1     -50.946  24.662  33.355  0.00  0.00     0.198 A 
ATOM      8  C   UNL d   1     -53.685  23.782  33.499  0.00  0.00     0.105 C 
ATOM      9  C   UNL d   1     -51.484  26.277  33.418  0.00  0.00     0.025 A 
ATOM     10  C   UNL d   1     -50.660  26.098  33.366  0.00  0.00     0.005 A 
ATOM     11  C   UNL d   1     -50.392  25.293  33.334  0.00  0.00     0.042 A 
ATOM     12  N   UNL d   1     -54.224  23.189  33.519  0.00  0.00    -0.191 NA
ATOM     13  O   UNL d   1     -50.748  24.068  33.331  0.00  0.00    -0.286 OA
ATOM     14  N   UNL d   1     -54.200  25.328  33.559  0.00  0.00    -0.120 N 
ATOM     15  C   UNL d   1     -52.029  23.427  33.394  0.00  0.00     0.001 C 
ENDROOT
BRANCH  10  16
ATOM     16  C   UNL d   1     -50.128  26.709  33.346  0.00  0.00     0.000 A 
ATOM     17  C   UNL d   1     -49.315  26.574  33.345  0.00  0.00     0.000 A 
ATOM     18  C   UNL d   1     -48.798  27.193  33.326  0.00  0.00     0.000 A 
ATOM     19  C   UNL d   1     -49.074  27.983  33.306  0.00  0.00     0.000 A 
ATOM     20  C   UNL d   1     -49.883  28.107  33.307  0.00  0.00     0.000 A 
ATOM     21  C   UNL d   1     -50.420  27.470  33.327  0.00  0.00     0.000 A 
ENDBRANCH  10  16
TORSDOF 1
ENDMDL
