MODEL 1
REMARK VINA RESULT:      -8.8      0.000      0.000
REMARK  4 active torsions:
REMARK  status: ('A' for Active; 'I' for Inactive)
REMARK    1  A    between atoms: N_5  and  C_9 
REMARK    2  A    between atoms: O_11  and  C_8 
REMARK    3  A    between atoms: C_20  and  O_11 
REMARK    4  A    between atoms: C_21  and  C_20 
ROOT
ATOM      1  C   UNL d   1     -48.935  12.650  23.314  0.00  0.00     0.009 A 
ATOM      2  C   UNL d   1     -48.928  13.448  23.122  0.00  0.00     0.046 A 
ATOM      3  C   UNL d   1     -49.635  12.272  23.499  0.00  0.00     0.064 A 
ATOM      4  C   UNL d   1     -50.341  12.694  23.493  0.00  0.00     0.300 A 
ATOM      5  C   UNL d   1     -49.627  13.882  23.113  0.00  0.00     0.105 A 
ATOM      6  O   UNL d   1     -50.344  13.494  23.303  0.00  0.00    -0.273 OA
ATOM      7  C   UNL d   1     -48.212  13.828  22.934  0.00  0.00     0.102 A 
ATOM      8  C   UNL d   1     -49.632  14.678  22.923  0.00  0.00     0.025 A 
ATOM      9  C   UNL d   1     -48.211  14.640  22.740  0.00  0.00     0.025 A 
ATOM     10  O   UNL d   1     -51.064  12.319  23.681  0.00  0.00    -0.259 OA
ATOM     11  C   UNL d   1     -48.922  15.055  22.737  0.00  0.00     0.004 A 
ATOM     12  C   UNL d   1     -48.225  12.225  23.319  0.00  0.00     0.000 A 
ATOM     13  C   UNL d   1     -49.645  11.469  23.692  0.00  0.00     0.005 A 
ATOM     14  C   UNL d   1     -48.918  15.865  22.542  0.00  0.00     0.000 C 
ATOM     15  C   UNL d   1     -48.216  11.422  23.510  0.00  0.00     0.000 A 
ATOM     16  C   UNL d   1     -48.936  11.045  23.698  0.00  0.00     0.000 A 
ENDROOT
BRANCH   7  17
ATOM     17  O   UNL d   1     -47.515  13.406  22.941  0.00  0.00    -0.305 OA
BRANCH  17  18
ATOM     18  C   UNL d   1     -46.786  13.804  23.005  0.00  0.00     0.122 C 
BRANCH  18  19
ATOM     19  C   UNL d   1     -46.102  13.438  22.733  0.00  0.00     0.025 A 
ATOM     20  C   UNL d   1     -45.781  13.657  22.006  0.00  0.00     0.004 A 
ATOM     21  C   UNL d   1     -45.100  13.300  21.725  0.00  0.00     0.024 A 
ATOM     22  C   UNL d   1     -44.732  12.717  22.174  0.00  0.00     0.127 A 
ATOM     23  C   UNL d   1     -45.041  12.487  22.903  0.00  0.00     0.024 A 
ATOM     24  C   UNL d   1     -45.737  12.855  23.185  0.00  0.00     0.004 A 
BRANCH  22  25
ATOM     25  N   UNL d   1     -44.045  12.350  21.900  0.00  0.00    -0.114 N 
ATOM     26  O   UNL d   1     -43.734  12.540  21.167  0.00  0.00    -0.532 OA
ATOM     27  O   UNL d   1     -43.672  11.787  22.376  0.00  0.00    -0.532 OA
ENDBRANCH  22  25
ENDBRANCH  18  19
ENDBRANCH  17  18
ENDBRANCH   7  17
TORSDOF 4
ENDMDL
MODEL 2
REMARK VINA RESULT:      -8.7      0.910      2.517
REMARK  4 active torsions:
REMARK  status: ('A' for Active; 'I' for Inactive)
REMARK    1  A    between atoms: N_5  and  C_9 
REMARK    2  A    between atoms: O_11  and  C_8 
REMARK    3  A    between atoms: C_20  and  O_11 
REMARK    4  A    between atoms: C_21  and  C_20 
ROOT
ATOM      1  C   UNL d   1     -49.330  14.455  22.963  0.00  0.00     0.009 A 
ATOM      2  C   UNL d   1     -49.658  13.725  23.145  0.00  0.00     0.046 A 
ATOM      3  C   UNL d   1     -49.788  15.132  22.972  0.00  0.00     0.064 A 
ATOM      4  C   UNL d   1     -50.586  15.083  23.165  0.00  0.00     0.300 A 
ATOM      5  C   UNL d   1     -50.456  13.662  23.340  0.00  0.00     0.105 A 
ATOM      6  O   UNL d   1     -50.923  14.356  23.349  0.00  0.00    -0.273 OA
ATOM      7  C   UNL d   1     -49.188  13.039  23.134  0.00  0.00     0.102 A 
ATOM      8  C   UNL d   1     -50.793  12.940  23.523  0.00  0.00     0.025 A 
ATOM      9  C   UNL d   1     -49.528  12.299  23.320  0.00  0.00     0.025 A 
ATOM     10  O   UNL d   1     -51.064  15.768  23.178  0.00  0.00    -0.259 OA
ATOM     11  C   UNL d   1     -50.327  12.259  23.513  0.00  0.00     0.004 A 
ATOM     12  C   UNL d   1     -48.528  14.505  22.768  0.00  0.00     0.000 A 
ATOM     13  C   UNL d   1     -49.460  15.867  22.789  0.00  0.00     0.005 A 
ATOM     14  C   UNL d   1     -50.663  11.519  23.698  0.00  0.00     0.000 C 
ATOM     15  C   UNL d   1     -48.183  15.232  22.583  0.00  0.00     0.000 A 
ATOM     16  C   UNL d   1     -48.658  15.917  22.595  0.00  0.00     0.000 A 
ENDROOT
BRANCH   7  17
ATOM     17  O   UNL d   1     -48.398  13.092  22.942  0.00  0.00    -0.305 OA
BRANCH  17  18
ATOM     18  C   UNL d   1     -47.917  12.412  22.958  0.00  0.00     0.122 C 
BRANCH  18  19
ATOM     19  C   UNL d   1     -47.118  12.479  22.777  0.00  0.00     0.025 A 
ATOM     20  C   UNL d   1     -46.559  12.476  23.384  0.00  0.00     0.004 A 
ATOM     21  C   UNL d   1     -45.760  12.542  23.215  0.00  0.00     0.024 A 
ATOM     22  C   UNL d   1     -45.513  12.612  22.433  0.00  0.00     0.127 A 
ATOM     23  C   UNL d   1     -46.061  12.616  21.817  0.00  0.00     0.024 A 
ATOM     24  C   UNL d   1     -46.876  12.549  21.994  0.00  0.00     0.004 A 
BRANCH  22  25
ATOM     25  N   UNL d   1     -44.711  12.679  22.252  0.00  0.00    -0.114 N 
ATOM     26  O   UNL d   1     -44.214  12.032  22.313  0.00  0.00    -0.532 OA
ATOM     27  O   UNL d   1     -44.413  13.409  22.006  0.00  0.00    -0.532 OA
ENDBRANCH  22  25
ENDBRANCH  18  19
ENDBRANCH  17  18
ENDBRANCH   7  17
TORSDOF 4
ENDMDL
MODEL 3
REMARK VINA RESULT:      -7.5      1.309      1.603
REMARK  4 active torsions:
REMARK  status: ('A' for Active; 'I' for Inactive)
REMARK    1  A    between atoms: N_5  and  C_9 
REMARK    2  A    between atoms: O_11  and  C_8 
REMARK    3  A    between atoms: C_20  and  O_11 
REMARK    4  A    between atoms: C_21  and  C_20 
ROOT
ATOM      1  C   UNL d   1     -49.120  12.961  22.320  0.00  0.00     0.009 A 
ATOM      2  C   UNL d   1     -48.693  13.661  22.311  0.00  0.00     0.046 A 
ATOM      3  C   UNL d   1     -49.902  12.944  22.081  0.00  0.00     0.064 A 
ATOM      4  C   UNL d   1     -50.265  13.638  21.829  0.00  0.00     0.300 A 
ATOM      5  C   UNL d   1     -49.046  14.362  22.061  0.00  0.00     0.105 A 
ATOM      6  O   UNL d   1     -49.846  14.345  21.816  0.00  0.00    -0.273 OA
ATOM      7  C   UNL d   1     -47.898  13.671  22.555  0.00  0.00     0.102 A 
ATOM      8  C   UNL d   1     -48.629  15.066  22.048  0.00  0.00     0.025 A 
ATOM      9  C   UNL d   1     -47.469  14.388  22.544  0.00  0.00     0.025 A 
ATOM     10  O   UNL d   1     -51.064  13.635  21.582  0.00  0.00    -0.259 OA
ATOM     11  C   UNL d   1     -47.841  15.077  22.290  0.00  0.00     0.004 A 
ATOM     12  C   UNL d   1     -48.755  12.263  22.574  0.00  0.00     0.000 A 
ATOM     13  C   UNL d   1     -50.333  12.241  22.090  0.00  0.00     0.005 A 
ATOM     14  C   UNL d   1     -47.410  15.790  22.279  0.00  0.00     0.000 C 
ATOM     15  C   UNL d   1     -49.171  11.550  22.589  0.00  0.00     0.000 A 
ATOM     16  C   UNL d   1     -49.968  11.544  22.344  0.00  0.00     0.000 A 
ENDROOT
BRANCH   7  17
ATOM     17  O   UNL d   1     -47.542  12.983  22.805  0.00  0.00    -0.305 OA
BRANCH  17  18
ATOM     18  C   UNL d   1     -46.912  13.011  23.348  0.00  0.00     0.122 C 
BRANCH  18  19
ATOM     19  C   UNL d   1     -46.338  12.422  23.332  0.00  0.00     0.025 A 
ATOM     20  C   UNL d   1     -45.620  12.559  22.951  0.00  0.00     0.004 A 
ATOM     21  C   UNL d   1     -45.042  11.979  22.929  0.00  0.00     0.024 A 
ATOM     22  C   UNL d   1     -45.179  11.253  23.291  0.00  0.00     0.127 A 
ATOM     23  C   UNL d   1     -45.893  11.102  23.675  0.00  0.00     0.024 A 
ATOM     24  C   UNL d   1     -46.480  11.697  23.695  0.00  0.00     0.004 A 
BRANCH  22  25
ATOM     25  N   UNL d   1     -44.603  10.662  23.274  0.00  0.00    -0.114 N 
ATOM     26  O   UNL d   1     -43.832  10.837  23.067  0.00  0.00    -0.532 OA
ATOM     27  O   UNL d   1     -44.815   9.888  23.470  0.00  0.00    -0.532 OA
ENDBRANCH  22  25
ENDBRANCH  18  19
ENDBRANCH  17  18
ENDBRANCH   7  17
TORSDOF 4
ENDMDL
