MODEL 1
REMARK VINA RESULT:     105.8      0.000      0.000
REMARK  5 active torsions:
REMARK  status: ('A' for Active; 'I' for Inactive)
REMARK    1  A    between atoms: N_6  and  C_1 
REMARK    2  A    between atoms: C_11  and  N_2 
REMARK    3  A    between atoms: S_3  and  C_10 
REMARK    4  A    between atoms: N_8  and  S_3 
REMARK       I    between atoms: C_9  and  N_6 
REMARK    5  A    between atoms: C_15  and  C_9 
ROOT
ATOM      1  N   UNL d   1     -56.140-101.846 -40.355  0.00  0.00    -0.189 NA
ATOM      2  C   UNL d   1     -55.753-102.088 -40.997  0.00  0.00     0.281 C 
ATOM      3  O   UNL d   1     -55.480-102.862 -40.961  0.00  0.00    -0.265 OA
ENDROOT
BRANCH   2   4
ATOM      4  C   UNL d   1     -55.618-101.616 -41.670  0.00  0.00     0.058 A 
ATOM      5  C   UNL d   1     -56.150-101.497 -42.167  0.00  0.00     0.005 A 
ATOM      6  C   UNL d   1     -56.033-101.054 -42.804  0.00  0.00     0.013 A 
ATOM      7  C   UNL d   1     -55.279-100.712 -42.911  0.00  0.00     0.104 A 
ATOM      8  C   UNL d   1     -54.768-100.876 -42.353  0.00  0.00     0.013 A 
ATOM      9  C   UNL d   1     -54.901-101.322 -41.720  0.00  0.00     0.005 A 
BRANCH   7  10
ATOM     10  S   UNL d   1     -55.148-100.236 -43.592  0.00  0.00     0.271 S 
ATOM     11  O   UNL d   1     -55.527-100.740 -44.053  0.00  0.00    -0.200 OA
ATOM     12  O   UNL d   1     -54.730 -99.673 -43.102  0.00  0.00    -0.200 OA
BRANCH  10  13
ATOM     13  N   UNL d   1     -55.054 -99.821 -44.289  0.00  0.00    -0.229 N 
ATOM     14  C   UNL d   1     -54.744-100.136 -44.968  0.00  0.00     0.092 A 
ATOM     15  C   UNL d   1     -54.756 -99.505 -45.540  0.00  0.00     0.021 A 
ATOM     16  C   UNL d   1     -55.054 -98.866 -45.209  0.00  0.00     0.021 A 
ATOM     17  C   UNL d   1     -55.249 -99.032 -44.431  0.00  0.00     0.092 A 
ENDBRANCH  10  13
ENDBRANCH   7  10
ENDBRANCH   2   4
BRANCH   1  18
ATOM     18  C   UNL d   1     -56.319-102.233 -39.654  0.00  0.00     0.165 A 
ATOM     19  N   UNL d   1     -56.954-102.565 -39.321  0.00  0.00    -0.238 N 
ATOM     20  N   UNL d   1     -56.865-102.877 -38.627  0.00  0.00    -0.168 NA
ATOM     21  C   UNL d   1     -56.077-102.757 -38.438  0.00  0.00     0.111 A 
ATOM     22  C   UNL d   1     -55.723-102.362 -39.057  0.00  0.00     0.062 A 
ATOM     23  C   UNL d   1     -55.470-102.872 -37.864  0.00  0.00     0.056 A 
ATOM     24  C   UNL d   1     -54.904-102.227 -38.881  0.00  0.00     0.040 A 
ATOM     25  S   UNL d   1     -54.755-102.554 -38.123  0.00  0.00    -0.084 SA
BRANCH  19  26
ATOM     26  C   UNL d   1     -57.714-102.601 -39.668  0.00  0.00     0.088 C 
ATOM     27  C   UNL d   1     -57.385-102.879 -40.398  0.00  0.00     0.025 C 
ATOM     28  C   UNL d   1     -58.059-102.317 -38.928  0.00  0.00     0.025 C 
ATOM     29  C   UNL d   1     -58.521-102.627 -40.002  0.00  0.00     0.025 C 
ENDBRANCH  19  26
ENDBRANCH   1  18
TORSDOF 5
ENDMDL
