MODEL 1
REMARK VINA RESULT:      49.3      0.000      0.000
REMARK  6 active torsions:
REMARK  status: ('A' for Active; 'I' for Inactive)
REMARK       I    between atoms: N_2  and  C_1 
REMARK    1  A    between atoms: C_5  and  C_1 
REMARK    2  A    between atoms: C_4  and  N_2 
REMARK    3  A    between atoms: C_3  and  C_4 
REMARK    4  A    between atoms: N_7  and  C_4 
REMARK    5  A    between atoms: C_15  and  N_7 
REMARK    6  A    between atoms: C_14  and  C_15 
ROOT
ATOM      1  C   UNL d   1      15.057  14.038  -1.160  0.00  0.00     0.280 C 
ATOM      2  N   UNL d   1      14.674  14.755  -1.078  0.00  0.00    -0.189 NA
ATOM      3  O   UNL d   1      15.829  14.012  -1.427  0.00  0.00    -0.265 OA
ENDROOT
BRANCH   2   4
ATOM      4  C   UNL d   1      15.060  15.467  -1.262  0.00  0.00     0.185 C 
BRANCH   4   5
ATOM      5  C   UNL d   1      15.277  15.984  -0.644  0.00  0.00     0.250 C 
ATOM      6 CL   UNL d   1      15.499  15.324  -0.202  0.00  0.00    -0.075 Cl
ATOM      7 CL   UNL d   1      15.043  16.618  -1.121  0.00  0.00    -0.075 Cl
ATOM      8 CL   UNL d   1      15.496  16.516  -0.017  0.00  0.00    -0.075 Cl
ENDBRANCH   4   5
BRANCH   4   9
ATOM      9  N   UNL d   1      15.217  15.643  -2.039  0.00  0.00    -0.226 NA
BRANCH   9  10
ATOM     10  C   UNL d   1      14.670  16.075  -2.500  0.00  0.00     0.102 C 
BRANCH  10  11
ATOM     11  C   UNL d   1      14.794  16.227  -3.281  0.00  0.00     0.038 A 
ATOM     12  C   UNL d   1      15.531  16.534  -3.529  0.00  0.00     0.101 A 
ATOM     13  N   UNL d   1      15.655  16.689  -4.334  0.00  0.00    -0.242 NA
ATOM     14  C   UNL d   1      15.083  16.549  -4.874  0.00  0.00     0.099 A 
ATOM     15  C   UNL d   1      14.354  16.244  -4.616  0.00  0.00     0.021 A 
ATOM     16  C   UNL d   1      14.211  16.084  -3.829  0.00  0.00     0.005 A 
ENDBRANCH  10  11
ENDBRANCH   9  10
ENDBRANCH   4   9
ENDBRANCH   2   4
BRANCH   1  17
ATOM     17  C   UNL d   1      14.691  13.336  -0.983  0.00  0.00     0.058 A 
ATOM     18  C   UNL d   1      14.310  12.907  -1.543  0.00  0.00     0.005 A 
ATOM     19  C   UNL d   1      13.934  12.192  -1.372  0.00  0.00     0.000 A 
ATOM     20  C   UNL d   1      14.302  13.207  -2.314  0.00  0.00     0.000 A 
ATOM     21  C   UNL d   1      13.553  11.779  -1.969  0.00  0.00     0.000 A 
ATOM     22  C   UNL d   1      13.951  11.911  -0.608  0.00  0.00     0.000 A 
ATOM     23  C   UNL d   1      13.541  12.072  -2.743  0.00  0.00     0.000 A 
ATOM     24  C   UNL d   1      13.922  12.802  -2.927  0.00  0.00     0.000 A 
ATOM     25  C   UNL d   1      14.344  12.346  -0.015  0.00  0.00     0.000 A 
ATOM     26  C   UNL d   1      14.706  13.049  -0.212  0.00  0.00     0.005 A 
ENDBRANCH   1  17
TORSDOF 6
ENDMDL
MODEL 2
REMARK VINA RESULT:      50.2      1.967      3.209
REMARK  6 active torsions:
REMARK  status: ('A' for Active; 'I' for Inactive)
REMARK       I    between atoms: N_2  and  C_1 
REMARK    1  A    between atoms: C_5  and  C_1 
REMARK    2  A    between atoms: C_4  and  N_2 
REMARK    3  A    between atoms: C_3  and  C_4 
REMARK    4  A    between atoms: N_7  and  C_4 
REMARK    5  A    between atoms: C_15  and  N_7 
REMARK    6  A    between atoms: C_14  and  C_15 
ROOT
ATOM      1  C   UNL d   1      13.458  14.443  -3.871  0.00  0.00     0.280 C 
ATOM      2  N   UNL d   1      14.180  14.759  -4.087  0.00  0.00    -0.189 NA
ATOM      3  O   UNL d   1      12.884  14.919  -3.537  0.00  0.00    -0.265 OA
ENDROOT
BRANCH   2   4
ATOM      4  C   UNL d   1      14.343  15.566  -3.972  0.00  0.00     0.185 C 
BRANCH   4   5
ATOM      5  C   UNL d   1      14.484  16.051  -4.636  0.00  0.00     0.250 C 
ATOM      6 CL   UNL d   1      15.221  15.692  -4.713  0.00  0.00    -0.075 Cl
ATOM      7 CL   UNL d   1      13.735  16.384  -4.523  0.00  0.00    -0.075 Cl
ATOM      8 CL   UNL d   1      14.620  16.548  -5.313  0.00  0.00    -0.075 Cl
ENDBRANCH   4   5
BRANCH   4   9
ATOM      9  N   UNL d   1      14.362  15.862  -3.216  0.00  0.00    -0.226 NA
BRANCH   9  10
ATOM     10  C   UNL d   1      15.079  15.899  -2.788  0.00  0.00     0.102 C 
BRANCH  10  11
ATOM     11  C   UNL d   1      15.118  16.210  -2.046  0.00  0.00     0.038 A 
ATOM     12  C   UNL d   1      15.216  15.701  -1.391  0.00  0.00     0.101 A 
ATOM     13  N   UNL d   1      15.256  16.026  -0.628  0.00  0.00    -0.242 NA
ATOM     14  C   UNL d   1      15.203  16.814  -0.512  0.00  0.00     0.099 A 
ATOM     15  C   UNL d   1      15.106  17.311  -1.172  0.00  0.00     0.021 A 
ATOM     16  C   UNL d   1      15.064  17.013  -1.930  0.00  0.00     0.005 A 
ENDBRANCH  10  11
ENDBRANCH   9  10
ENDBRANCH   4   9
ENDBRANCH   2   4
BRANCH   1  17
ATOM     17  C   UNL d   1      13.287  13.657  -3.978  0.00  0.00     0.058 A 
ATOM     18  C   UNL d   1      13.442  13.112  -3.411  0.00  0.00     0.005 A 
ATOM     19  C   UNL d   1      13.271  12.310  -3.511  0.00  0.00     0.000 A 
ATOM     20  C   UNL d   1      13.783  13.379  -2.708  0.00  0.00     0.000 A 
ATOM     21  C   UNL d   1      13.442  11.779  -2.911  0.00  0.00     0.000 A 
ATOM     22  C   UNL d   1      12.935  12.063  -4.211  0.00  0.00     0.000 A 
ATOM     23  C   UNL d   1      13.784  12.039  -2.204  0.00  0.00     0.000 A 
ATOM     24  C   UNL d   1      13.962  12.856  -2.092  0.00  0.00     0.000 A 
ATOM     25  C   UNL d   1      12.769  12.619  -4.810  0.00  0.00     0.000 A 
ATOM     26  C   UNL d   1      12.947  13.404  -4.684  0.00  0.00     0.005 A 
ENDBRANCH   1  17
TORSDOF 6
ENDMDL
