MODEL 1
REMARK VINA RESULT:       2.4      0.000      0.000
REMARK  4 active torsions:
REMARK  status: ('A' for Active; 'I' for Inactive)
REMARK    1  A    between atoms: C_2  and  C_1 
REMARK    2  A    between atoms: C_3  and  C_4 
REMARK       I    between atoms: N_12  and  C_3 
REMARK    3  A    between atoms: C_4  and  C_5 
REMARK    4  A    between atoms: C_5  and  C_11 
ROOT
ATOM      1  C   UNL d   1      24.353  13.321  -0.600  0.00  0.00     0.071 A 
ATOM      2  C   UNL d   1      24.376  13.109  -1.396  0.00  0.00     0.004 A 
ATOM      3  C   UNL d   1      24.582  12.340  -1.611  0.00  0.00     0.000 A 
ATOM      4  C   UNL d   1      24.538  12.761  -0.014  0.00  0.00     0.004 A 
ATOM      5  C   UNL d   1      24.744  11.992  -0.229  0.00  0.00    -0.000 A 
ATOM      6  C   UNL d   1      24.767  11.779  -1.026  0.00  0.00    -0.000 A 
ENDROOT
BRANCH   3   7
ATOM      7  C   UNL d   1      24.603  12.133  -2.414  0.00  0.00     0.005 C 
BRANCH   7   8
ATOM      8  C   UNL d   1      24.582  12.731  -2.993  0.00  0.00     0.062 C 
BRANCH   8   9
ATOM      9  C   UNL d   1      24.507  12.533  -3.790  0.00  0.00     0.279 C 
ATOM     10  O   UNL d   1      24.169  11.808  -4.000  0.00  0.00    -0.265 OA
ATOM     11  N   UNL d   1      24.768  13.055  -4.376  0.00  0.00    -0.205 NA
ATOM     12  C   UNL d   1      24.690  12.850  -5.175  0.00  0.00     0.123 C 
ENDBRANCH   8   9
ENDBRANCH   7   8
ENDBRANCH   3   7
BRANCH   1  13
ATOM     13  C   UNL d   1      24.147  14.087  -0.382  0.00  0.00     0.419 C 
ATOM     14  F   UNL d   1      23.375  14.390  -0.101  0.00  0.00    -0.166 F 
ATOM     15  F   UNL d   1      24.624  14.802  -0.368  0.00  0.00    -0.166 F 
ATOM     16  F   UNL d   1      23.952  14.787  -0.181  0.00  0.00    -0.166 F 
ENDBRANCH   1  13
TORSDOF 4
ENDMDL
