MODEL 1
REMARK VINA RESULT:      -6.1      0.000      0.000
REMARK  1 active torsions:
REMARK  status: ('A' for Active; 'I' for Inactive)
REMARK    1  A    between atoms: C_6  and  C_1 
ROOT
ATOM      1  C   UNL d   1      57.128  -0.441  31.336  0.00  0.00     0.162 A 
ATOM      2  N   UNL d   1      57.391  -1.149  30.997  0.00  0.00    -0.225 NA
ATOM      3  N   UNL d   1      57.459   0.181  30.932  0.00  0.00    -0.225 NA
ATOM      4  C   UNL d   1      57.896  -0.966  30.368  0.00  0.00     0.101 A 
ATOM      5  C   UNL d   1      57.935  -0.149  30.332  0.00  0.00     0.101 A 
ATOM      6  C   UNL d   1      58.316  -1.432  29.835  0.00  0.00     0.021 A 
ATOM      7  C   UNL d   1      58.403   0.220  29.752  0.00  0.00     0.021 A 
ATOM      8  C   UNL d   1      58.792  -1.084  29.246  0.00  0.00     0.002 A 
ATOM      9  C   UNL d   1      58.843  -0.254  29.194  0.00  0.00     0.002 A 
ENDROOT
BRANCH   1  10
ATOM     10  C   UNL d   1      56.632  -0.425  31.957  0.00  0.00     0.036 A 
ATOM     11  C   UNL d   1      56.379  -1.135  32.302  0.00  0.00     0.005 A 
ATOM     12  C   UNL d   1      55.865  -1.129  32.946  0.00  0.00     0.030 A 
ATOM     13  C   UNL d   1      55.597  -0.413  33.252  0.00  0.00     0.140 A 
ATOM     14  C   UNL d   1      55.846   0.297  32.912  0.00  0.00     0.030 A 
ATOM     15  F   UNL d   1      55.074  -0.420  33.908  0.00  0.00    -0.204 F 
ATOM     16  C   UNL d   1      56.356   0.300  32.274  0.00  0.00     0.005 A 
ENDBRANCH   1  10
TORSDOF 1
ENDMDL
MODEL 2
REMARK VINA RESULT:      -5.8      1.770      3.789
REMARK  1 active torsions:
REMARK  status: ('A' for Active; 'I' for Inactive)
REMARK    1  A    between atoms: C_6  and  C_1 
ROOT
ATOM      1  C   UNL d   1      57.302  -0.149  31.177  0.00  0.00     0.162 A 
ATOM      2  N   UNL d   1      57.008  -0.869  31.461  0.00  0.00    -0.225 NA
ATOM      3  N   UNL d   1      57.022   0.451  31.647  0.00  0.00    -0.225 NA
ATOM      4  C   UNL d   1      56.534  -0.715  32.122  0.00  0.00     0.101 A 
ATOM      5  C   UNL d   1      56.546   0.096  32.232  0.00  0.00     0.101 A 
ATOM      6  C   UNL d   1      56.103  -1.203  32.626  0.00  0.00     0.021 A 
ATOM      7  C   UNL d   1      56.119   0.437  32.858  0.00  0.00     0.021 A 
ATOM      8  C   UNL d   1      55.668  -0.883  33.260  0.00  0.00     0.002 A 
ATOM      9  C   UNL d   1      55.668  -0.060  33.388  0.00  0.00     0.002 A 
ENDROOT
BRANCH   1  10
ATOM     10  C   UNL d   1      57.779  -0.106  30.542  0.00  0.00     0.036 A 
ATOM     11  C   UNL d   1      57.922   0.627  30.182  0.00  0.00     0.005 A 
ATOM     12  C   UNL d   1      58.415   0.682  29.524  0.00  0.00     0.030 A 
ATOM     13  C   UNL d   1      58.770   0.005  29.218  0.00  0.00     0.140 A 
ATOM     14  C   UNL d   1      58.631  -0.728  29.573  0.00  0.00     0.030 A 
ATOM     15  F   UNL d   1      59.270   0.073  28.548  0.00  0.00    -0.204 F 
ATOM     16  C   UNL d   1      58.144  -0.791  30.226  0.00  0.00     0.005 A 
ENDBRANCH   1  10
TORSDOF 1
ENDMDL
MODEL 3
REMARK VINA RESULT:      -4.0      0.776      1.311
REMARK  1 active torsions:
REMARK  status: ('A' for Active; 'I' for Inactive)
REMARK    1  A    between atoms: C_6  and  C_1 
ROOT
ATOM      1  C   UNL d   1      56.888  -0.244  31.977  0.00  0.00     0.162 A 
ATOM      2  N   UNL d   1      57.533   0.223  31.749  0.00  0.00    -0.225 NA
ATOM      3  N   UNL d   1      56.839  -0.881  31.476  0.00  0.00    -0.225 NA
ATOM      4  C   UNL d   1      57.893  -0.129  31.093  0.00  0.00     0.101 A 
ATOM      5  C   UNL d   1      57.464  -0.807  30.929  0.00  0.00     0.101 A 
ATOM      6  C   UNL d   1      58.545   0.078  30.635  0.00  0.00     0.021 A 
ATOM      7  C   UNL d   1      57.683  -1.295  30.293  0.00  0.00     0.021 A 
ATOM      8  C   UNL d   1      58.783  -0.396  29.993  0.00  0.00     0.002 A 
ATOM      9  C   UNL d   1      58.358  -1.089  29.811  0.00  0.00     0.002 A 
ENDROOT
BRANCH   1  10
ATOM     10  C   UNL d   1      56.423  -0.056  32.593  0.00  0.00     0.036 A 
ATOM     11  C   UNL d   1      55.734   0.387  32.471  0.00  0.00     0.005 A 
ATOM     12  C   UNL d   1      55.245   0.587  33.104  0.00  0.00     0.030 A 
ATOM     13  C   UNL d   1      55.441   0.346  33.867  0.00  0.00     0.140 A 
ATOM     14  C   UNL d   1      56.128  -0.095  33.994  0.00  0.00     0.030 A 
ATOM     15  F   UNL d   1      54.936   0.556  34.503  0.00  0.00    -0.204 F 
ATOM     16  C   UNL d   1      56.617  -0.297  33.372  0.00  0.00     0.005 A 
ENDBRANCH   1  10
TORSDOF 1
ENDMDL
MODEL 4
REMARK VINA RESULT:      -3.1      2.960      4.570
REMARK  1 active torsions:
REMARK  status: ('A' for Active; 'I' for Inactive)
REMARK    1  A    between atoms: C_6  and  C_1 
ROOT
ATOM      1  C   UNL d   1      59.037  -1.965  29.198  0.00  0.00     0.162 A 
ATOM      2  N   UNL d   1      58.617  -1.829  29.899  0.00  0.00    -0.225 NA
ATOM      3  N   UNL d   1      59.054  -1.277  28.767  0.00  0.00    -0.225 NA
ATOM      4  C   UNL d   1      58.366  -1.041  29.905  0.00  0.00     0.101 A 
ATOM      5  C   UNL d   1      58.636  -0.706  29.208  0.00  0.00     0.101 A 
ATOM      6  C   UNL d   1      57.934  -0.596  30.447  0.00  0.00     0.021 A 
ATOM      7  C   UNL d   1      58.476   0.091  29.040  0.00  0.00     0.021 A 
ATOM      8  C   UNL d   1      57.762   0.206  30.299  0.00  0.00     0.002 A 
ATOM      9  C   UNL d   1      58.028   0.563  29.595  0.00  0.00     0.002 A 
ENDROOT
BRANCH   1  10
ATOM     10  C   UNL d   1      59.354  -2.673  29.023  0.00  0.00     0.036 A 
ATOM     11  C   UNL d   1      58.877  -3.272  28.707  0.00  0.00     0.005 A 
ATOM     12  C   UNL d   1      59.196  -4.009  28.523  0.00  0.00     0.030 A 
ATOM     13  C   UNL d   1      59.997  -4.155  28.652  0.00  0.00     0.140 A 
ATOM     14  C   UNL d   1      60.476  -3.561  28.967  0.00  0.00     0.030 A 
ATOM     15  F   UNL d   1      60.310  -4.909  28.460  0.00  0.00    -0.204 F 
ATOM     16  C   UNL d   1      60.168  -2.828  29.152  0.00  0.00     0.005 A 
ENDBRANCH   1  10
TORSDOF 1
ENDMDL
