MODEL 1
REMARK VINA RESULT:      28.1      0.000      0.000
REMARK  1 active torsions:
REMARK  status: ('A' for Active; 'I' for Inactive)
REMARK    1  A    between atoms: C_12  and  N_4 
ROOT
ATOM      1  C   UNL d   1     -57.475 -98.761 -44.321  0.00  0.00     0.081 A 
ATOM      2  C   UNL d   1     -57.634 -98.765 -45.097  0.00  0.00     0.118 A 
ATOM      3  C   UNL d   1     -58.094 -98.760 -43.767  0.00  0.00     0.268 A 
ATOM      4  N   UNL d   1     -58.868 -98.762 -44.038  0.00  0.00    -0.249 N 
ATOM      5  N   UNL d   1     -58.402 -98.767 -45.360  0.00  0.00    -0.212 NA
ATOM      6  C   UNL d   1     -59.041 -98.765 -44.808  0.00  0.00     0.209 A 
ATOM      7  S   UNL d   1     -56.943 -98.766 -45.549  0.00  0.00    -0.068 SA
ATOM      8  C   UNL d   1     -56.644 -98.760 -44.250  0.00  0.00     0.013 A 
ATOM      9  C   UNL d   1     -56.306 -98.763 -45.019  0.00  0.00     0.031 A 
ATOM     10  S   UNL d   1     -59.839 -98.767 -45.040  0.00  0.00    -0.038 SA
ATOM     11  O   UNL d   1     -57.953 -98.756 -42.952  0.00  0.00    -0.267 OA
ATOM     12  C   UNL d   1     -56.319 -98.757 -43.514  0.00  0.00     0.001 A 
ATOM     13  C   UNL d   1     -55.503 -98.763 -45.181  0.00  0.00     0.006 A 
ATOM     14  C   UNL d   1     -55.497 -98.755 -43.336  0.00  0.00     0.000 A 
ATOM     15  C   UNL d   1     -54.865 -98.760 -44.678  0.00  0.00     0.001 A 
ATOM     16  C   UNL d   1     -54.854 -98.757 -43.853  0.00  0.00     0.000 A 
ENDROOT
BRANCH   4  17
ATOM     17  C   UNL d   1     -59.508 -98.760 -43.479  0.00  0.00     0.085 C 
ATOM     18  C   UNL d   1     -59.344 -98.756 -42.676  0.00  0.00     0.021 C 
ENDBRANCH   4  17
TORSDOF 1
ENDMDL
MODEL 2
REMARK VINA RESULT:      28.2      1.080      1.704
REMARK  1 active torsions:
REMARK  status: ('A' for Active; 'I' for Inactive)
REMARK    1  A    between atoms: C_12  and  N_4 
ROOT
ATOM      1  C   UNL d   1     -57.644 -98.757 -44.489  0.00  0.00     0.081 A 
ATOM      2  C   UNL d   1     -57.756 -98.757 -43.705  0.00  0.00     0.118 A 
ATOM      3  C   UNL d   1     -58.294 -98.756 -45.005  0.00  0.00     0.268 A 
ATOM      4  N   UNL d   1     -59.051 -98.757 -44.689  0.00  0.00    -0.249 N 
ATOM      5  N   UNL d   1     -58.507 -98.757 -43.397  0.00  0.00    -0.212 NA
ATOM      6  C   UNL d   1     -59.178 -98.757 -43.910  0.00  0.00     0.209 A 
ATOM      7  S   UNL d   1     -57.039 -98.757 -43.294  0.00  0.00    -0.068 SA
ATOM      8  C   UNL d   1     -56.818 -98.756 -44.609  0.00  0.00     0.013 A 
ATOM      9  C   UNL d   1     -56.435 -98.757 -43.862  0.00  0.00     0.031 A 
ATOM     10  S   UNL d   1     -59.961 -98.757 -43.632  0.00  0.00    -0.038 SA
ATOM     11  O   UNL d   1     -58.201 -98.756 -45.827  0.00  0.00    -0.267 OA
ATOM     12  C   UNL d   1     -56.537 -98.756 -45.363  0.00  0.00     0.001 A 
ATOM     13  C   UNL d   1     -55.623 -98.757 -43.747  0.00  0.00     0.006 A 
ATOM     14  C   UNL d   1     -55.727 -98.755 -45.589  0.00  0.00     0.000 A 
ATOM     15  C   UNL d   1     -55.017 -98.756 -44.287  0.00  0.00     0.001 A 
ATOM     16  C   UNL d   1     -55.054 -98.756 -45.111  0.00  0.00     0.000 A 
ENDROOT
BRANCH   4  17
ATOM     17  C   UNL d   1     -59.723 -98.756 -45.209  0.00  0.00     0.085 C 
ATOM     18  C   UNL d   1     -59.631 -98.991 -45.989  0.00  0.00     0.021 C 
ENDBRANCH   4  17
TORSDOF 1
ENDMDL
MODEL 3
REMARK VINA RESULT:      28.8      1.079      3.179
REMARK  1 active torsions:
REMARK  status: ('A' for Active; 'I' for Inactive)
REMARK    1  A    between atoms: C_12  and  N_4 
ROOT
ATOM      1  C   UNL d   1     -57.299 -98.758 -44.372  0.00  0.00     0.081 A 
ATOM      2  C   UNL d   1     -57.226 -98.758 -45.161  0.00  0.00     0.118 A 
ATOM      3  C   UNL d   1     -56.624 -98.759 -43.889  0.00  0.00     0.268 A 
ATOM      4  N   UNL d   1     -55.884 -98.758 -44.242  0.00  0.00    -0.249 N 
ATOM      5  N   UNL d   1     -56.491 -98.757 -45.505  0.00  0.00    -0.212 NA
ATOM      6  C   UNL d   1     -55.796 -98.757 -45.026  0.00  0.00     0.209 A 
ATOM      7  S   UNL d   1     -57.962 -98.758 -45.535  0.00  0.00    -0.068 SA
ATOM      8  C   UNL d   1     -58.118 -98.759 -44.212  0.00  0.00     0.013 A 
ATOM      9  C   UNL d   1     -58.537 -98.758 -44.938  0.00  0.00     0.031 A 
ATOM     10  S   UNL d   1     -55.028 -98.756 -45.343  0.00  0.00    -0.038 SA
ATOM     11  O   UNL d   1     -56.676 -98.759 -43.063  0.00  0.00    -0.267 OA
ATOM     12  C   UNL d   1     -58.362 -98.760 -43.444  0.00  0.00     0.001 A 
ATOM     13  C   UNL d   1     -59.354 -98.759 -45.013  0.00  0.00     0.006 A 
ATOM     14  C   UNL d   1     -59.159 -98.760 -43.178  0.00  0.00     0.000 A 
ATOM     15  C   UNL d   1     -59.933 -98.760 -44.444  0.00  0.00     0.001 A 
ATOM     16  C   UNL d   1     -59.855 -98.760 -43.622  0.00  0.00     0.000 A 
ENDROOT
BRANCH   4  17
ATOM     17  C   UNL d   1     -55.187 -98.758 -43.756  0.00  0.00     0.085 C 
ATOM     18  C   UNL d   1     -54.875 -99.470 -43.497  0.00  0.00     0.021 C 
ENDBRANCH   4  17
TORSDOF 1
ENDMDL
