MODEL 1
REMARK VINA RESULT:      -3.4      0.000      0.000
REMARK  3 active torsions:
REMARK  status: ('A' for Active; 'I' for Inactive)
REMARK    1  A    between atoms: C_9  and  N_1 
REMARK       I    between atoms: C_8  and  N_2 
REMARK    2  A    between atoms: C_3  and  C_9 
REMARK    3  A    between atoms: C_13  and  C_8 
ROOT
ATOM      1  N   UNL d   1      31.419  16.914 -23.874  0.00  0.00    -0.194 N 
ATOM      2  C   UNL d   1      32.453  17.759 -23.941  0.00  0.00     0.055 A 
ATOM      3  N   UNL d   1      31.288  17.442 -24.513  0.00  0.00    -0.163 NA
ATOM      4  C   UNL d   1      32.134  17.118 -23.534  0.00  0.00     0.089 A 
ATOM      5  C   UNL d   1      30.913  16.308 -23.646  0.00  0.00     0.286 C 
ATOM      6  C   UNL d   1      31.932  17.959 -24.545  0.00  0.00     0.104 A 
ATOM      7  O   UNL d   1      31.125  15.830 -22.997  0.00  0.00    -0.265 OA
ATOM      8  C   UNL d   1      32.474  16.736 -22.883  0.00  0.00     0.021 C 
ATOM      9  C   UNL d   1      32.029  18.572 -25.095  0.00  0.00     0.023 C 
ENDROOT
BRANCH   2  10
ATOM     10  C   UNL d   1      33.177  18.135 -23.769  0.00  0.00     0.089 C 
BRANCH  10  11
ATOM     11  N   UNL d   1      33.190  18.817 -23.301  0.00  0.00    -0.240 N 
ATOM     12  C   UNL d   1      33.210  18.835 -22.483  0.00  0.00     0.267 A 
ATOM     13  C   UNL d   1      33.218  19.631 -22.255  0.00  0.00     0.061 A 
ATOM     14  O   UNL d   1      33.221  18.180 -21.980  0.00  0.00    -0.267 OA
ATOM     15  C   UNL d   1      33.237  19.982 -21.511  0.00  0.00     0.005 A 
ATOM     16  C   UNL d   1      33.202  20.097 -22.927  0.00  0.00     0.061 A 
ATOM     17  C   UNL d   1      33.240  20.802 -21.442  0.00  0.00     0.000 A 
ATOM     18  C   UNL d   1      33.225  21.274 -22.119  0.00  0.00     0.000 A 
ATOM     19  C   UNL d   1      33.206  20.922 -22.864  0.00  0.00     0.005 A 
ATOM     20  C   UNL d   1      33.185  19.597 -23.585  0.00  0.00     0.267 A 
ATOM     21  O   UNL d   1      33.166  19.834 -24.378  0.00  0.00    -0.267 OA
ENDBRANCH  10  11
ENDBRANCH   2  10
BRANCH   5  22
ATOM     22  C   UNL d   1      30.210  16.181 -24.056  0.00  0.00     0.087 A 
ATOM     23  S   UNL d   1      30.105  15.649 -24.679  0.00  0.00    -0.082 SA
ATOM     24  C   UNL d   1      29.319  15.703 -24.923  0.00  0.00     0.036 A 
ATOM     25  C   UNL d   1      28.942  16.258 -24.459  0.00  0.00     0.008 A 
ATOM     26  C   UNL d   1      29.495  16.558 -23.918  0.00  0.00     0.012 A 
ENDBRANCH   5  22
TORSDOF 3
ENDMDL
MODEL 2
REMARK VINA RESULT:      -3.4      0.925      1.702
REMARK  3 active torsions:
REMARK  status: ('A' for Active; 'I' for Inactive)
REMARK    1  A    between atoms: C_9  and  N_1 
REMARK       I    between atoms: C_8  and  N_2 
REMARK    2  A    between atoms: C_3  and  C_9 
REMARK    3  A    between atoms: C_13  and  C_8 
ROOT
ATOM      1  N   UNL d   1      30.635  17.173 -24.416  0.00  0.00    -0.194 N 
ATOM      2  C   UNL d   1      31.925  17.470 -24.232  0.00  0.00     0.055 A 
ATOM      3  N   UNL d   1      30.985  16.558 -23.966  0.00  0.00    -0.163 NA
ATOM      4  C   UNL d   1      31.219  17.724 -24.572  0.00  0.00     0.089 A 
ATOM      5  C   UNL d   1      29.847  17.203 -24.649  0.00  0.00     0.286 C 
ATOM      6  C   UNL d   1      31.782  16.752 -23.858  0.00  0.00     0.104 A 
ATOM      7  O   UNL d   1      29.584  17.854 -25.096  0.00  0.00    -0.265 OA
ATOM      8  C   UNL d   1      31.108  18.421 -25.003  0.00  0.00     0.021 C 
ATOM      9  C   UNL d   1      32.335  16.295 -23.443  0.00  0.00     0.023 C 
ENDROOT
BRANCH   2  10
ATOM     10  C   UNL d   1      32.654  17.873 -24.263  0.00  0.00     0.089 C 
BRANCH  10  11
ATOM     11  N   UNL d   1      32.792  18.522 -23.769  0.00  0.00    -0.240 N 
ATOM     12  C   UNL d   1      32.873  19.300 -24.012  0.00  0.00     0.267 A 
ATOM     13  C   UNL d   1      33.003  19.756 -23.334  0.00  0.00     0.061 A 
ATOM     14  O   UNL d   1      32.831  19.575 -24.789  0.00  0.00    -0.267 OA
ATOM     15  C   UNL d   1      33.122  20.565 -23.239  0.00  0.00     0.005 A 
ATOM     16  C   UNL d   1      33.003  19.263 -22.681  0.00  0.00     0.061 A 
ATOM     17  C   UNL d   1      33.241  20.879 -22.488  0.00  0.00     0.000 A 
ATOM     18  C   UNL d   1      33.241  20.383 -21.828  0.00  0.00     0.000 A 
ATOM     19  C   UNL d   1      33.121  19.574 -21.923  0.00  0.00     0.005 A 
ATOM     20  C   UNL d   1      32.871  18.491 -22.944  0.00  0.00     0.267 A 
ATOM     21  O   UNL d   1      32.828  17.814 -22.468  0.00  0.00    -0.267 OA
ENDBRANCH  10  11
ENDBRANCH   2  10
BRANCH   5  22
ATOM     22  C   UNL d   1      29.332  16.595 -24.441  0.00  0.00     0.087 A 
ATOM     23  S   UNL d   1      29.153  15.935 -24.904  0.00  0.00    -0.082 SA
ATOM     24  C   UNL d   1      28.616  15.472 -24.482  0.00  0.00     0.036 A 
ATOM     25  C   UNL d   1      28.464  15.838 -23.769  0.00  0.00     0.008 A 
ATOM     26  C   UNL d   1      28.909  16.538 -23.741  0.00  0.00     0.012 A 
ENDBRANCH   5  22
TORSDOF 3
ENDMDL
MODEL 3
REMARK VINA RESULT:      -2.8      1.755      4.489
REMARK  3 active torsions:
REMARK  status: ('A' for Active; 'I' for Inactive)
REMARK    1  A    between atoms: C_9  and  N_1 
REMARK       I    between atoms: C_8  and  N_2 
REMARK    2  A    between atoms: C_3  and  C_9 
REMARK    3  A    between atoms: C_13  and  C_8 
ROOT
ATOM      1  N   UNL d   1      33.014  19.995 -22.382  0.00  0.00    -0.194 N 
ATOM      2  C   UNL d   1      33.135  19.136 -23.399  0.00  0.00     0.055 A 
ATOM      3  N   UNL d   1      32.936  20.423 -23.098  0.00  0.00    -0.163 NA
ATOM      4  C   UNL d   1      33.135  19.210 -22.579  0.00  0.00     0.089 A 
ATOM      5  C   UNL d   1      32.974  20.319 -21.627  0.00  0.00     0.286 C 
ATOM      6  C   UNL d   1      33.012  19.882 -23.721  0.00  0.00     0.104 A 
ATOM      7  O   UNL d   1      33.063  19.817 -20.968  0.00  0.00    -0.265 OA
ATOM      8  C   UNL d   1      33.240  18.597 -22.033  0.00  0.00     0.021 C 
ATOM      9  C   UNL d   1      32.971  20.070 -24.526  0.00  0.00     0.023 C 
ENDROOT
BRANCH   2  10
ATOM     10  C   UNL d   1      33.241  18.427 -23.824  0.00  0.00     0.089 C 
BRANCH  10  11
ATOM     11  N   UNL d   1      32.602  17.915 -23.944  0.00  0.00    -0.240 N 
ATOM     12  C   UNL d   1      32.467  17.215 -23.542  0.00  0.00     0.267 A 
ATOM     13  C   UNL d   1      31.769  16.890 -23.844  0.00  0.00     0.061 A 
ATOM     14  O   UNL d   1      32.942  16.896 -22.947  0.00  0.00    -0.267 OA
ATOM     15  C   UNL d   1      31.367  16.198 -23.652  0.00  0.00     0.005 A 
ATOM     16  C   UNL d   1      31.478  17.385 -24.425  0.00  0.00     0.061 A 
ATOM     17  C   UNL d   1      30.671  16.003 -24.046  0.00  0.00     0.000 A 
ATOM     18  C   UNL d   1      30.376  16.501 -24.634  0.00  0.00     0.000 A 
ATOM     19  C   UNL d   1      30.778  17.194 -24.825  0.00  0.00     0.005 A 
ATOM     20  C   UNL d   1      31.992  18.028 -24.495  0.00  0.00     0.267 A 
ATOM     21  O   UNL d   1      31.910  18.664 -25.019  0.00  0.00    -0.267 OA
ENDBRANCH  10  11
ENDBRANCH   2  10
BRANCH   5  22
ATOM     22  C   UNL d   1      32.848  21.127 -21.532  0.00  0.00     0.087 A 
ATOM     23  S   UNL d   1      32.303  21.473 -21.016  0.00  0.00    -0.082 SA
ATOM     24  C   UNL d   1      32.363  22.291 -21.100  0.00  0.00     0.036 A 
ATOM     25  C   UNL d   1      32.935  22.451 -21.660  0.00  0.00     0.008 A 
ATOM     26  C   UNL d   1      33.239  21.728 -21.930  0.00  0.00     0.012 A 
ENDBRANCH   5  22
TORSDOF 3
ENDMDL
MODEL 4
REMARK VINA RESULT:      -2.7      0.832      1.436
REMARK  3 active torsions:
REMARK  status: ('A' for Active; 'I' for Inactive)
REMARK    1  A    between atoms: C_9  and  N_1 
REMARK       I    between atoms: C_8  and  N_2 
REMARK    2  A    between atoms: C_3  and  C_9 
REMARK    3  A    between atoms: C_13  and  C_8 
ROOT
ATOM      1  N   UNL d   1      30.506  16.615 -23.928  0.00  0.00    -0.194 N 
ATOM      2  C   UNL d   1      31.595  17.345 -24.195  0.00  0.00     0.055 A 
ATOM      3  N   UNL d   1      30.287  17.235 -24.449  0.00  0.00    -0.163 NA
ATOM      4  C   UNL d   1      31.307  16.693 -23.781  0.00  0.00     0.089 A 
ATOM      5  C   UNL d   1      29.998  16.042 -23.630  0.00  0.00     0.286 C 
ATOM      6  C   UNL d   1      30.967  17.680 -24.607  0.00  0.00     0.104 A 
ATOM      7  O   UNL d   1      30.303  15.461 -23.117  0.00  0.00    -0.265 OA
ATOM      8  C   UNL d   1      31.748  16.192 -23.292  0.00  0.00     0.021 C 
ATOM      9  C   UNL d   1      31.001  18.346 -25.097  0.00  0.00     0.023 C 
ENDROOT
BRANCH   2  10
ATOM     10  C   UNL d   1      32.383  17.614 -24.193  0.00  0.00     0.089 C 
BRANCH  10  11
ATOM     11  N   UNL d   1      32.585  18.309 -23.795  0.00  0.00    -0.240 N 
ATOM     12  C   UNL d   1      32.700  19.042 -24.140  0.00  0.00     0.267 A 
ATOM     13  C   UNL d   1      32.892  19.572 -23.533  0.00  0.00     0.061 A 
ATOM     14  O   UNL d   1      32.637  19.218 -24.944  0.00  0.00    -0.267 OA
ATOM     15  C   UNL d   1      33.064  20.376 -23.551  0.00  0.00     0.005 A 
ATOM     16  C   UNL d   1      32.893  19.168 -22.822  0.00  0.00     0.061 A 
ATOM     17  C   UNL d   1      33.239  20.776 -22.852  0.00  0.00     0.000 A 
ATOM     18  C   UNL d   1      33.241  20.370 -22.134  0.00  0.00     0.000 A 
ATOM     19  C   UNL d   1      33.068  19.564 -22.117  0.00  0.00     0.005 A 
ATOM     20  C   UNL d   1      32.703  18.379 -22.976  0.00  0.00     0.267 A 
ATOM     21  O   UNL d   1      32.642  17.773 -22.415  0.00  0.00    -0.267 OA
ENDBRANCH  10  11
ENDBRANCH   2  10
BRANCH   5  22
ATOM     22  C   UNL d   1      29.201  16.048 -23.840  0.00  0.00     0.087 A 
ATOM     23  S   UNL d   1      28.849  15.567 -24.411  0.00  0.00    -0.082 SA
ATOM     24  C   UNL d   1      28.047  15.758 -24.439  0.00  0.00     0.036 A 
ATOM     25  C   UNL d   1      27.904  16.348 -23.894  0.00  0.00     0.008 A 
ATOM     26  C   UNL d   1      28.621  16.531 -23.519  0.00  0.00     0.012 A 
ENDBRANCH   5  22
TORSDOF 3
ENDMDL
