MODEL 1
REMARK VINA RESULT:      80.3      0.000      0.000
REMARK  3 active torsions:
REMARK  status: ('A' for Active; 'I' for Inactive)
REMARK    1  A    between atoms: N_2  and  C_1 
REMARK       I    between atoms: C_5  and  N_2 
REMARK    2  A    between atoms: C_8  and  C_5 
REMARK    3  A    between atoms: O_17  and  C_13 
ROOT
ATOM      1  N   UNL d   1      59.616  49.523  52.687  0.00  0.00    -0.184 NA
ATOM      2  C   UNL d   1      59.345  49.594  51.910  0.00  0.00     0.281 C 
ATOM      3  O   UNL d   1      58.536  49.704  51.785  0.00  0.00    -0.265 OA
ENDROOT
BRANCH   1   4
ATOM      4  C   UNL d   1      59.070  49.563  53.310  0.00  0.00     0.182 A 
ATOM      5  N   UNL d   1      59.219  49.626  54.135  0.00  0.00    -0.283 N 
ATOM      6  C   UNL d   1      58.448  49.645  54.500  0.00  0.00     0.072 A 
ATOM      7  C   UNL d   1      59.931  49.660  54.485  0.00  0.00     0.101 C 
ATOM      8  C   UNL d   1      58.205  49.703  55.305  0.00  0.00     0.018 A 
ATOM      9  C   UNL d   1      57.909  49.596  53.916  0.00  0.00     0.048 A 
ATOM     10  C   UNL d   1      57.378  49.708  55.486  0.00  0.00     0.002 A 
ATOM     11  C   UNL d   1      56.839  49.657  54.886  0.00  0.00     0.001 A 
ATOM     12  C   UNL d   1      57.078  49.601  54.087  0.00  0.00     0.008 A 
ATOM     13  S   UNL d   1      58.264  49.547  53.199  0.00  0.00    -0.048 SA
ENDBRANCH   1   4
BRANCH   2  14
ATOM     14  C   UNL d   1      59.835  49.562  51.268  0.00  0.00     0.058 A 
ATOM     15  C   UNL d   1      59.521  49.604  50.519  0.00  0.00     0.007 A 
ATOM     16  C   UNL d   1      60.025  49.570  49.867  0.00  0.00     0.024 A 
ATOM     17  C   UNL d   1      60.831  49.495  49.974  0.00  0.00     0.094 A 
ATOM     18  C   UNL d   1      61.145  49.453  50.723  0.00  0.00     0.024 A 
ATOM     19  C   UNL d   1      60.651  49.485  51.403  0.00  0.00     0.007 A 
BRANCH  17  20
ATOM     20  O   UNL d   1      61.331  49.462  49.312  0.00  0.00    -0.328 OA
ATOM     21  C   UNL d   1      61.673  48.738  48.947  0.00  0.00     0.181 C 
ENDBRANCH  17  20
ENDBRANCH   2  14
TORSDOF 3
ENDMDL
