MODEL 1
REMARK VINA RESULT:      10.1      0.000      0.000
REMARK  6 active torsions:
REMARK  status: ('A' for Active; 'I' for Inactive)
REMARK    1  A    between atoms: C_3  and  C_1 
REMARK    2  A    between atoms: C_2  and  C_4 
REMARK    3  A    between atoms: C_9  and  C_3 
REMARK    4  A    between atoms: C_4  and  C_10 
REMARK    5  A    between atoms: C_17  and  C_9 
REMARK    6  A    between atoms: C_10  and  C_17 
ROOT
ATOM      1  C   UNL d   1      45.868 -16.868  44.448  0.00  0.00     0.006 C 
ATOM      2  C   UNL d   1      45.275 -17.198  44.955  0.00  0.00     0.000 C 
ENDROOT
BRANCH   1   3
ATOM      3  C   UNL d   1      46.026 -16.062  44.515  0.00  0.00     0.043 C 
BRANCH   3   4
ATOM      4  C   UNL d   1      45.427 -15.504  44.530  0.00  0.00     0.202 C 
ATOM      5  O   UNL d   1      44.621 -15.720  44.452  0.00  0.00    -0.286 OA
BRANCH   4   6
ATOM      6  C   UNL d   1      45.605 -14.704  44.624  0.00  0.00     0.068 A 
ATOM      7  S   UNL d   1      45.046 -14.103  44.513  0.00  0.00    -0.083 SA
ATOM      8  C   UNL d   1      45.396 -13.375  44.648  0.00  0.00     0.035 A 
ATOM      9  C   UNL d   1      46.191 -13.519  44.848  0.00  0.00     0.008 A 
ATOM     10  C   UNL d   1      46.307 -14.330  44.830  0.00  0.00     0.010 A 
ENDBRANCH   4   6
ENDBRANCH   3   4
ENDBRANCH   1   3
BRANCH   1  11
ATOM     11  C   UNL d   1      46.275 -17.331  43.905  0.00  0.00     0.043 C 
BRANCH  11  12
ATOM     12  C   UNL d   1      46.386 -18.163  44.054  0.00  0.00     0.202 C 
ATOM     13  O   UNL d   1      46.409 -18.440  44.823  0.00  0.00    -0.286 OA
BRANCH  12  14
ATOM     14  C   UNL d   1      46.470 -18.688  43.406  0.00  0.00     0.068 A 
ATOM     15  S   UNL d   1      46.583 -19.529  43.457  0.00  0.00    -0.083 SA
ATOM     16  C   UNL d   1      46.637 -19.822  42.693  0.00  0.00     0.035 A 
ATOM     17  C   UNL d   1      46.561 -19.185  42.164  0.00  0.00     0.008 A 
ATOM     18  C   UNL d   1      46.461 -18.505  42.595  0.00  0.00     0.010 A 
ENDBRANCH  12  14
ENDBRANCH  11  12
ENDBRANCH   1  11
TORSDOF 6
ENDMDL
MODEL 2
REMARK VINA RESULT:      10.9      0.902      4.523
REMARK  6 active torsions:
REMARK  status: ('A' for Active; 'I' for Inactive)
REMARK    1  A    between atoms: C_3  and  C_1 
REMARK    2  A    between atoms: C_2  and  C_4 
REMARK    3  A    between atoms: C_9  and  C_3 
REMARK    4  A    between atoms: C_4  and  C_10 
REMARK    5  A    between atoms: C_17  and  C_9 
REMARK    6  A    between atoms: C_10  and  C_17 
ROOT
ATOM      1  C   UNL d   1      45.897 -16.937  44.220  0.00  0.00     0.006 C 
ATOM      2  C   UNL d   1      45.324 -17.012  43.600  0.00  0.00     0.000 C 
ENDROOT
BRANCH   1   3
ATOM      3  C   UNL d   1      46.316 -17.611  44.440  0.00  0.00     0.043 C 
BRANCH   3   4
ATOM      4  C   UNL d   1      46.493 -18.205  43.904  0.00  0.00     0.202 C 
ATOM      5  O   UNL d   1      46.631 -18.040  43.094  0.00  0.00    -0.286 OA
BRANCH   4   6
ATOM      6  C   UNL d   1      46.540 -18.991  44.152  0.00  0.00     0.068 A 
ATOM      7  S   UNL d   1      46.538 -19.629  43.625  0.00  0.00    -0.083 SA
ATOM      8  C   UNL d   1      46.591 -20.330  44.044  0.00  0.00     0.035 A 
ATOM      9  C   UNL d   1      46.628 -20.131  44.851  0.00  0.00     0.008 A 
ATOM     10  C   UNL d   1      46.596 -19.313  44.905  0.00  0.00     0.010 A 
ENDBRANCH   4   6
ENDBRANCH   3   4
ENDBRANCH   1   3
BRANCH   1  11
ATOM     11  C   UNL d   1      46.034 -16.218  44.593  0.00  0.00     0.043 C 
BRANCH  11  12
ATOM     12  C   UNL d   1      45.385 -15.686  44.741  0.00  0.00     0.202 C 
ATOM     13  O   UNL d   1      44.636 -15.983  44.877  0.00  0.00    -0.286 OA
BRANCH  12  14
ATOM     14  C   UNL d   1      45.526 -14.858  44.745  0.00  0.00     0.068 A 
ATOM     15  S   UNL d   1      44.962 -14.259  44.955  0.00  0.00    -0.083 SA
ATOM     16  C   UNL d   1      45.331 -13.530  44.882  0.00  0.00     0.035 A 
ATOM     17  C   UNL d   1      46.114 -13.660  44.632  0.00  0.00     0.008 A 
ATOM     18  C   UNL d   1      46.228 -14.459  44.551  0.00  0.00     0.010 A 
ENDBRANCH  12  14
ENDBRANCH  11  12
ENDBRANCH   1  11
TORSDOF 6
ENDMDL
