MODEL 1
REMARK VINA RESULT:      -8.4      0.000      0.000
REMARK  5 active torsions:
REMARK  status: ('A' for Active; 'I' for Inactive)
REMARK    1  A    between atoms: C_5  and  C_1 
REMARK    2  A    between atoms: N_7  and  C_5 
REMARK    3  A    between atoms: C_10  and  C_5 
REMARK    4  A    between atoms: C_16  and  C_19 
REMARK    5  A    between atoms: C_20  and  C_16 
ROOT
ATOM      1  C   UNL d   1      53.567  32.802  53.799  0.00  0.00     0.085 C 
ENDROOT
BRANCH   1   2
ATOM      2  C   UNL d   1      53.457  31.966  53.719  0.00  0.00     0.059 A 
ATOM      3  C   UNL d   1      53.418  31.476  54.398  0.00  0.00     0.214 A 
ATOM      4  C   UNL d   1      53.310  30.658  54.302  0.00  0.00     0.121 A 
ATOM      5  O   UNL d   1      53.483  31.793  55.148  0.00  0.00    -0.285 OA
ATOM      6  N   UNL d   1      53.270  30.174  54.961  0.00  0.00    -0.241 NA
ATOM      7  C   UNL d   1      53.243  30.335  53.537  0.00  0.00     0.032 A 
ATOM      8  C   UNL d   1      53.161  29.350  54.850  0.00  0.00     0.099 A 
ATOM      9  C   UNL d   1      53.097  29.040  54.115  0.00  0.00     0.021 A 
ATOM     10  C   UNL d   1      53.137  29.531  53.440  0.00  0.00     0.004 A 
ATOM     11  C   UNL d   1      53.285  30.834  52.876  0.00  0.00     0.059 A 
ATOM     12  C   UNL d   1      53.393  31.655  52.984  0.00  0.00     0.016 A 
ATOM     13 CL   UNL d   1      53.219  30.515  52.123  0.00  0.00    -0.082 Cl
ENDBRANCH   1   2
BRANCH   1  14
ATOM     14  N   UNL d   1      52.957  33.320  53.597  0.00  0.00    -0.302 N 
ATOM     15  C   UNL d   1      52.292  33.407  54.087  0.00  0.00     0.080 A 
ATOM     16  C   UNL d   1      51.683  33.925  53.886  0.00  0.00     0.019 A 
ATOM     17  C   UNL d   1      51.732  34.361  53.191  0.00  0.00     0.003 A 
ATOM     18  C   UNL d   1      52.390  34.280  52.699  0.00  0.00     0.019 A 
ATOM     19  C   UNL d   1      52.994  33.767  52.899  0.00  0.00     0.080 A 
BRANCH  17  20
ATOM     20  C   UNL d   1      51.128  34.875  52.991  0.00  0.00     0.000 C 
BRANCH  20  21
ATOM     21  C   UNL d   1      50.527  34.628  52.506  0.00  0.00     0.000 A 
ATOM     22  C   UNL d   1      50.685  34.404  51.733  0.00  0.00     0.000 A 
ATOM     23  C   UNL d   1      50.081  34.155  51.241  0.00  0.00     0.000 A 
ATOM     24  C   UNL d   1      49.307  34.129  51.527  0.00  0.00     0.000 A 
ATOM     25  C   UNL d   1      49.144  34.351  52.298  0.00  0.00     0.000 A 
ATOM     26  C   UNL d   1      49.760  34.605  52.797  0.00  0.00     0.000 A 
ENDBRANCH  20  21
ENDBRANCH  17  20
ENDBRANCH   1  14
BRANCH   1  27
ATOM     27  C   UNL d   1      54.302  33.103  54.087  0.00  0.00     0.098 A 
ATOM     28  N   UNL d   1      54.965  33.106  53.582  0.00  0.00    -0.243 NA
ATOM     29  C   UNL d   1      55.679  33.398  53.858  0.00  0.00     0.099 A 
ATOM     30  C   UNL d   1      55.732  33.682  54.627  0.00  0.00     0.021 A 
ATOM     31  C   UNL d   1      55.077  33.682  55.133  0.00  0.00     0.003 A 
ATOM     32  C   UNL d   1      54.363  33.391  54.858  0.00  0.00     0.021 A 
ENDBRANCH   1  27
TORSDOF 5
ENDMDL
MODEL 2
REMARK VINA RESULT:      -7.9      1.254      2.801
REMARK  5 active torsions:
REMARK  status: ('A' for Active; 'I' for Inactive)
REMARK    1  A    between atoms: C_5  and  C_1 
REMARK    2  A    between atoms: N_7  and  C_5 
REMARK    3  A    between atoms: C_10  and  C_5 
REMARK    4  A    between atoms: C_16  and  C_19 
REMARK    5  A    between atoms: C_20  and  C_16 
ROOT
ATOM      1  C   UNL d   1      52.805  32.596  53.351  0.00  0.00     0.085 C 
ENDROOT
BRANCH   1   2
ATOM      2  C   UNL d   1      53.533  32.875  53.684  0.00  0.00     0.059 A 
ATOM      3  C   UNL d   1      53.583  33.061  54.499  0.00  0.00     0.214 A 
ATOM      4  C   UNL d   1      54.304  33.332  54.809  0.00  0.00     0.121 A 
ATOM      5  O   UNL d   1      52.935  32.978  54.989  0.00  0.00    -0.285 OA
ATOM      6  N   UNL d   1      54.361  33.516  55.605  0.00  0.00    -0.241 NA
ATOM      7  C   UNL d   1      54.966  33.416  54.309  0.00  0.00     0.032 A 
ATOM      8  C   UNL d   1      55.095  33.789  55.904  0.00  0.00     0.099 A 
ATOM      9  C   UNL d   1      55.730  33.870  55.424  0.00  0.00     0.021 A 
ATOM     10  C   UNL d   1      55.677  33.683  54.611  0.00  0.00     0.004 A 
ATOM     11  C   UNL d   1      54.899  33.228  53.505  0.00  0.00     0.059 A 
ATOM     12  C   UNL d   1      54.168  32.955  53.203  0.00  0.00     0.016 A 
ATOM     13 CL   UNL d   1      55.550  33.311  53.012  0.00  0.00    -0.082 Cl
ENDBRANCH   1   2
BRANCH   1  14
ATOM     14  N   UNL d   1      52.197  33.128  53.182  0.00  0.00    -0.302 N 
ATOM     15  C   UNL d   1      52.282  33.692  52.578  0.00  0.00     0.080 A 
ATOM     16  C   UNL d   1      51.674  34.224  52.408  0.00  0.00     0.019 A 
ATOM     17  C   UNL d   1      50.977  34.198  52.841  0.00  0.00     0.003 A 
ATOM     18  C   UNL d   1      50.886  33.639  53.443  0.00  0.00     0.019 A 
ATOM     19  C   UNL d   1      51.488  33.112  53.611  0.00  0.00     0.080 A 
BRANCH  17  20
ATOM     20  C   UNL d   1      50.374  34.724  52.673  0.00  0.00     0.000 C 
BRANCH  20  21
ATOM     21  C   UNL d   1      49.870  34.584  52.054  0.00  0.00     0.000 A 
ATOM     22  C   UNL d   1      50.168  34.452  51.301  0.00  0.00     0.000 A 
ATOM     23  C   UNL d   1      49.663  34.310  50.673  0.00  0.00     0.000 A 
ATOM     24  C   UNL d   1      48.848  34.301  50.801  0.00  0.00     0.000 A 
ATOM     25  C   UNL d   1      48.545  34.433  51.550  0.00  0.00     0.000 A 
ATOM     26  C   UNL d   1      49.061  34.577  52.188  0.00  0.00     0.000 A 
ENDBRANCH  20  21
ENDBRANCH  17  20
ENDBRANCH   1  14
BRANCH   1  27
ATOM     27  C   UNL d   1      52.705  31.772  53.193  0.00  0.00     0.098 A 
ATOM     28  N   UNL d   1      52.935  31.470  52.452  0.00  0.00    -0.243 NA
ATOM     29  C   UNL d   1      52.838  30.671  52.296  0.00  0.00     0.099 A 
ATOM     30  C   UNL d   1      52.517  30.181  52.871  0.00  0.00     0.021 A 
ATOM     31  C   UNL d   1      52.286  30.475  53.610  0.00  0.00     0.003 A 
ATOM     32  C   UNL d   1      52.382  31.273  53.766  0.00  0.00     0.021 A 
ENDBRANCH   1  27
TORSDOF 5
ENDMDL
MODEL 3
REMARK VINA RESULT:      -7.5      1.750      4.656
REMARK  5 active torsions:
REMARK  status: ('A' for Active; 'I' for Inactive)
REMARK    1  A    between atoms: C_5  and  C_1 
REMARK    2  A    between atoms: N_7  and  C_5 
REMARK    3  A    between atoms: C_10  and  C_5 
REMARK    4  A    between atoms: C_16  and  C_19 
REMARK    5  A    between atoms: C_20  and  C_16 
ROOT
ATOM      1  C   UNL d   1      52.077  33.559  53.165  0.00  0.00     0.085 C 
ENDROOT
BRANCH   1   2
ATOM      2  C   UNL d   1      51.408  33.887  52.762  0.00  0.00     0.059 A 
ATOM      3  C   UNL d   1      50.701  34.054  53.179  0.00  0.00     0.214 A 
ATOM      4  C   UNL d   1      50.055  34.375  52.768  0.00  0.00     0.121 A 
ATOM      5  O   UNL d   1      50.641  33.904  53.980  0.00  0.00    -0.285 OA
ATOM      6  N   UNL d   1      49.360  34.541  53.169  0.00  0.00    -0.241 NA
ATOM      7  C   UNL d   1      50.116  34.528  51.951  0.00  0.00     0.032 A 
ATOM      8  C   UNL d   1      48.716  34.865  52.742  0.00  0.00     0.099 A 
ATOM      9  C   UNL d   1      48.775  35.012  51.957  0.00  0.00     0.021 A 
ATOM     10  C   UNL d   1      49.482  34.845  51.545  0.00  0.00     0.004 A 
ATOM     11  C   UNL d   1      50.823  34.358  51.554  0.00  0.00     0.059 A 
ATOM     12  C   UNL d   1      51.468  34.034  51.977  0.00  0.00     0.016 A 
ATOM     13 CL   UNL d   1      50.884  34.508  50.750  0.00  0.00    -0.082 Cl
ENDBRANCH   1   2
BRANCH   1  14
ATOM     14  N   UNL d   1      52.268  32.762  53.069  0.00  0.00    -0.302 N 
ATOM     15  C   UNL d   1      52.990  32.537  52.725  0.00  0.00     0.080 A 
ATOM     16  C   UNL d   1      53.182  31.740  52.629  0.00  0.00     0.019 A 
ATOM     17  C   UNL d   1      52.654  31.161  52.876  0.00  0.00     0.003 A 
ATOM     18  C   UNL d   1      51.934  31.379  53.219  0.00  0.00     0.019 A 
ATOM     19  C   UNL d   1      51.744  32.168  53.314  0.00  0.00     0.080 A 
BRANCH  17  20
ATOM     20  C   UNL d   1      52.843  30.371  52.781  0.00  0.00     0.000 C 
BRANCH  20  21
ATOM     21  C   UNL d   1      53.055  29.922  53.422  0.00  0.00     0.000 A 
ATOM     22  C   UNL d   1      53.813  29.976  53.731  0.00  0.00     0.000 A 
ATOM     23  C   UNL d   1      54.030  29.525  54.378  0.00  0.00     0.000 A 
ATOM     24  C   UNL d   1      53.481  29.012  54.720  0.00  0.00     0.000 A 
ATOM     25  C   UNL d   1      52.723  28.955  54.415  0.00  0.00     0.000 A 
ATOM     26  C   UNL d   1      52.504  29.415  53.757  0.00  0.00     0.000 A 
ENDBRANCH  20  21
ENDBRANCH  17  20
ENDBRANCH   1  14
BRANCH   1  27
ATOM     27  C   UNL d   1      52.547  34.051  53.666  0.00  0.00     0.098 A 
ATOM     28  N   UNL d   1      52.582  33.885  54.482  0.00  0.00    -0.243 NA
ATOM     29  C   UNL d   1      53.037  34.360  54.970  0.00  0.00     0.099 A 
ATOM     30  C   UNL d   1      53.452  34.992  54.649  0.00  0.00     0.021 A 
ATOM     31  C   UNL d   1      53.422  35.163  53.839  0.00  0.00     0.003 A 
ATOM     32  C   UNL d   1      52.967  34.688  53.352  0.00  0.00     0.021 A 
ENDBRANCH   1  27
TORSDOF 5
ENDMDL
MODEL 4
REMARK VINA RESULT:      -6.1      1.630      2.377
REMARK  5 active torsions:
REMARK  status: ('A' for Active; 'I' for Inactive)
REMARK    1  A    between atoms: C_5  and  C_1 
REMARK    2  A    between atoms: N_7  and  C_5 
REMARK    3  A    between atoms: C_10  and  C_5 
REMARK    4  A    between atoms: C_16  and  C_19 
REMARK    5  A    between atoms: C_20  and  C_16 
ROOT
ATOM      1  C   UNL d   1      52.278  33.891  53.458  0.00  0.00     0.085 C 
ENDROOT
BRANCH   1   2
ATOM      2  C   UNL d   1      52.606  33.117  53.552  0.00  0.00     0.059 A 
ATOM      3  C   UNL d   1      52.644  32.589  52.902  0.00  0.00     0.214 A 
ATOM      4  C   UNL d   1      52.969  31.833  53.012  0.00  0.00     0.121 A 
ATOM      5  O   UNL d   1      52.366  32.811  52.166  0.00  0.00    -0.285 OA
ATOM      6  N   UNL d   1      53.009  31.312  52.380  0.00  0.00    -0.241 NA
ATOM      7  C   UNL d   1      53.253  31.608  53.762  0.00  0.00     0.032 A 
ATOM      8  C   UNL d   1      53.340  30.553  52.505  0.00  0.00     0.099 A 
ATOM      9  C   UNL d   1      53.612  30.336  53.226  0.00  0.00     0.021 A 
ATOM     10  C   UNL d   1      53.573  30.864  53.873  0.00  0.00     0.004 A 
ATOM     11  C   UNL d   1      53.208  32.141  54.394  0.00  0.00     0.059 A 
ATOM     12  C   UNL d   1      52.879  32.900  54.273  0.00  0.00     0.016 A 
ATOM     13 CL   UNL d   1      53.487  31.919  55.134  0.00  0.00    -0.082 Cl
ENDBRANCH   1   2
BRANCH   1  14
ATOM     14  N   UNL d   1      51.510  33.983  53.171  0.00  0.00    -0.302 N 
ATOM     15  C   UNL d   1      51.373  34.300  52.415  0.00  0.00     0.080 A 
ATOM     16  C   UNL d   1      50.605  34.392  52.128  0.00  0.00     0.019 A 
ATOM     17  C   UNL d   1      49.966  34.169  52.593  0.00  0.00     0.003 A 
ATOM     18  C   UNL d   1      50.096  33.854  53.347  0.00  0.00     0.019 A 
ATOM     19  C   UNL d   1      50.856  33.763  53.631  0.00  0.00     0.080 A 
BRANCH  17  20
ATOM     20  C   UNL d   1      49.205  34.261  52.310  0.00  0.00     0.000 C 
BRANCH  20  21
ATOM     21  C   UNL d   1      48.803  34.953  52.436  0.00  0.00     0.000 A 
ATOM     22  C   UNL d   1      48.759  35.274  53.190  0.00  0.00     0.000 A 
ATOM     23  C   UNL d   1      48.354  35.973  53.320  0.00  0.00     0.000 A 
ATOM     24  C   UNL d   1      47.988  36.356  52.688  0.00  0.00     0.000 A 
ATOM     25  C   UNL d   1      48.030  36.040  51.933  0.00  0.00     0.000 A 
ATOM     26  C   UNL d   1      48.443  35.329  51.802  0.00  0.00     0.000 A 
ENDBRANCH  20  21
ENDBRANCH  17  20
ENDBRANCH   1  14
BRANCH   1  27
ATOM     27  C   UNL d   1      52.741  34.570  53.659  0.00  0.00     0.098 A 
ATOM     28  N   UNL d   1      52.626  34.935  54.399  0.00  0.00    -0.243 NA
ATOM     29  C   UNL d   1      53.073  35.592  54.596  0.00  0.00     0.099 A 
ATOM     30  C   UNL d   1      53.626  35.882  54.063  0.00  0.00     0.021 A 
ATOM     31  C   UNL d   1      53.745  35.525  53.326  0.00  0.00     0.003 A 
ATOM     32  C   UNL d   1      53.298  34.867  53.128  0.00  0.00     0.021 A 
ENDBRANCH   1  27
TORSDOF 5
ENDMDL
