MODEL 1
REMARK VINA RESULT:      -7.5      0.000      0.000
REMARK  5 active torsions:
REMARK  status: ('A' for Active; 'I' for Inactive)
REMARK    1  A    between atoms: C_6  and  C_1 
REMARK    2  A    between atoms: C_3  and  C_5 
REMARK    3  A    between atoms: C_5  and  C_6 
REMARK    4  A    between atoms: C_17  and  C_13 
REMARK    5  A    between atoms: C_20  and  C_17 
ROOT
ATOM      1  C   UNL d   1     -48.535  12.144  22.954  0.00  0.00     0.201 C 
ATOM      2  O   UNL d   1     -48.840  11.946  22.210  0.00  0.00    -0.286 OA
ENDROOT
BRANCH   1   3
ATOM      3  C   UNL d   1     -47.760  11.930  23.137  0.00  0.00     0.078 A 
ATOM      4  C   UNL d   1     -47.608  11.202  23.511  0.00  0.00     0.202 A 
ATOM      5  C   UNL d   1     -46.833  10.989  23.693  0.00  0.00     0.084 A 
ATOM      6  O   UNL d   1     -48.235  10.699  23.697  0.00  0.00    -0.286 OA
ATOM      7  C   UNL d   1     -46.215  11.490  23.507  0.00  0.00     0.199 A 
ATOM      8  C   UNL d   1     -46.366  12.218  23.133  0.00  0.00     0.039 A 
ATOM      9  O   UNL d   1     -45.436  11.264  23.696  0.00  0.00    -0.286 OA
ATOM     10  C   UNL d   1     -47.125  12.421  22.957  0.00  0.00     0.010 A 
BRANCH   8  11
ATOM     11  C   UNL d   1     -45.727  12.710  22.953  0.00  0.00     0.003 C 
BRANCH  11  12
ATOM     12  C   UNL d   1     -45.801  13.344  22.430  0.00  0.00     0.000 C 
ATOM     13  C   UNL d   1     -45.144  13.742  22.140  0.00  0.00     0.000 C 
ENDBRANCH  11  12
ENDBRANCH   8  11
ENDBRANCH   1   3
BRANCH   1  14
ATOM     14  C   UNL d   1     -49.011  12.550  23.499  0.00  0.00     0.068 C 
BRANCH  14  15
ATOM     15  C   UNL d   1     -49.446  13.203  23.274  0.00  0.00     0.114 A 
ATOM     16  N   UNL d   1     -49.410  13.953  23.621  0.00  0.00    -0.238 NA
ATOM     17  C   UNL d   1     -49.942  14.437  23.217  0.00  0.00     0.088 A 
ATOM     18  C   UNL d   1     -50.139  15.226  23.317  0.00  0.00     0.020 A 
ATOM     19  C   UNL d   1     -50.304  13.996  22.628  0.00  0.00     0.049 A 
ATOM     20  C   UNL d   1     -50.702  15.587  22.829  0.00  0.00     0.002 A 
ATOM     21  C   UNL d   1     -51.064  15.131  22.233  0.00  0.00     0.001 A 
ATOM     22  C   UNL d   1     -50.867  14.343  22.134  0.00  0.00     0.008 A 
ATOM     23  S   UNL d   1     -50.003  13.218  22.651  0.00  0.00    -0.066 SA
ENDBRANCH  14  15
ENDBRANCH   1  14
TORSDOF 5
ENDMDL
MODEL 2
REMARK VINA RESULT:      -7.4      1.835      4.764
REMARK  5 active torsions:
REMARK  status: ('A' for Active; 'I' for Inactive)
REMARK    1  A    between atoms: C_6  and  C_1 
REMARK    2  A    between atoms: C_3  and  C_5 
REMARK    3  A    between atoms: C_5  and  C_6 
REMARK    4  A    between atoms: C_17  and  C_13 
REMARK    5  A    between atoms: C_20  and  C_17 
ROOT
ATOM      1  C   UNL d   1     -47.822  13.707  22.576  0.00  0.00     0.201 C 
ATOM      2  O   UNL d   1     -47.646  13.398  21.828  0.00  0.00    -0.286 OA
ENDROOT
BRANCH   1   3
ATOM      3  C   UNL d   1     -48.543  14.091  22.688  0.00  0.00     0.078 A 
ATOM      4  C   UNL d   1     -48.608  14.906  22.529  0.00  0.00     0.202 A 
ATOM      5  C   UNL d   1     -49.329  15.289  22.642  0.00  0.00     0.084 A 
ATOM      6  O   UNL d   1     -47.949  15.324  22.262  0.00  0.00    -0.286 OA
ATOM      7  C   UNL d   1     -49.979  14.872  22.907  0.00  0.00     0.199 A 
ATOM      8  C   UNL d   1     -49.915  14.056  23.066  0.00  0.00     0.039 A 
ATOM      9  O   UNL d   1     -50.702  15.269  23.016  0.00  0.00    -0.286 OA
ATOM     10  C   UNL d   1     -49.208  13.687  22.954  0.00  0.00     0.010 A 
BRANCH   8  11
ATOM     11  C   UNL d   1     -50.584  13.652  23.333  0.00  0.00     0.003 C 
BRANCH  11  12
ATOM     12  C   UNL d   1     -50.714  12.859  23.150  0.00  0.00     0.000 C 
ATOM     13  C   UNL d   1     -51.064  12.344  23.686  0.00  0.00     0.000 C 
ENDBRANCH  11  12
ENDBRANCH   8  11
ENDBRANCH   1   3
BRANCH   1  14
ATOM     14  C   UNL d   1     -47.275  13.627  23.194  0.00  0.00     0.068 C 
BRANCH  14  15
ATOM     15  C   UNL d   1     -46.770  12.986  23.230  0.00  0.00     0.114 A 
ATOM     16  N   UNL d   1     -45.993  12.965  22.951  0.00  0.00    -0.238 NA
ATOM     17  C   UNL d   1     -45.696  12.210  23.104  0.00  0.00     0.088 A 
ATOM     18  C   UNL d   1     -44.965  11.874  22.951  0.00  0.00     0.020 A 
ATOM     19  C   UNL d   1     -46.280  11.768  23.473  0.00  0.00     0.049 A 
ATOM     20  C   UNL d   1     -44.806  11.090  23.164  0.00  0.00     0.002 A 
ATOM     21  C   UNL d   1     -45.405  10.649  23.538  0.00  0.00     0.001 A 
ATOM     22  C   UNL d   1     -46.136  10.985  23.691  0.00  0.00     0.008 A 
ATOM     23  S   UNL d   1     -46.962  12.242  23.559  0.00  0.00    -0.066 SA
ENDBRANCH  14  15
ENDBRANCH   1  14
TORSDOF 5
ENDMDL
MODEL 3
REMARK VINA RESULT:      -7.0      1.518      2.491
REMARK  5 active torsions:
REMARK  status: ('A' for Active; 'I' for Inactive)
REMARK    1  A    between atoms: C_6  and  C_1 
REMARK    2  A    between atoms: C_3  and  C_5 
REMARK    3  A    between atoms: C_5  and  C_6 
REMARK    4  A    between atoms: C_17  and  C_13 
REMARK    5  A    between atoms: C_20  and  C_17 
ROOT
ATOM      1  C   UNL d   1     -46.978  12.811  22.941  0.00  0.00     0.201 C 
ATOM      2  O   UNL d   1     -47.159  13.285  23.595  0.00  0.00    -0.286 OA
ENDROOT
BRANCH   1   3
ATOM      3  C   UNL d   1     -46.186  12.700  22.736  0.00  0.00     0.078 A 
ATOM      4  C   UNL d   1     -45.787  13.282  22.294  0.00  0.00     0.202 A 
ATOM      5  C   UNL d   1     -44.996  13.171  22.091  0.00  0.00     0.084 A 
ATOM      6  O   UNL d   1     -46.186  13.966  22.064  0.00  0.00    -0.286 OA
ATOM      7  C   UNL d   1     -44.604  12.492  22.321  0.00  0.00     0.199 A 
ATOM      8  C   UNL d   1     -45.003  11.910  22.763  0.00  0.00     0.039 A 
ATOM      9  O   UNL d   1     -43.805  12.391  22.109  0.00  0.00    -0.286 OA
ATOM     10  C   UNL d   1     -45.775  12.023  22.959  0.00  0.00     0.010 A 
BRANCH   8  11
ATOM     11  C   UNL d   1     -44.588  11.230  22.986  0.00  0.00     0.003 C 
BRANCH  11  12
ATOM     12  C   UNL d   1     -44.916  10.669  23.493  0.00  0.00     0.000 C 
ATOM     13  C   UNL d   1     -44.512   9.984  23.698  0.00  0.00     0.000 C 
ENDBRANCH  11  12
ENDBRANCH   8  11
ENDBRANCH   1   3
BRANCH   1  14
ATOM     14  C   UNL d   1     -47.589  12.458  22.505  0.00  0.00     0.068 C 
BRANCH  14  15
ATOM     15  C   UNL d   1     -48.363  12.490  22.763  0.00  0.00     0.114 A 
ATOM     16  N   UNL d   1     -48.841  13.163  22.783  0.00  0.00    -0.238 NA
ATOM     17  C   UNL d   1     -49.576  12.937  23.082  0.00  0.00     0.088 A 
ATOM     18  C   UNL d   1     -50.259  13.365  23.224  0.00  0.00     0.020 A 
ATOM     19  C   UNL d   1     -49.555  12.133  23.247  0.00  0.00     0.049 A 
ATOM     20  C   UNL d   1     -50.933  12.998  23.533  0.00  0.00     0.002 A 
ATOM     21  C   UNL d   1     -50.903  12.182  23.698  0.00  0.00     0.001 A 
ATOM     22  C   UNL d   1     -50.220  11.754  23.556  0.00  0.00     0.008 A 
ATOM     23  S   UNL d   1     -48.800  11.838  23.052  0.00  0.00    -0.066 SA
ENDBRANCH  14  15
ENDBRANCH   1  14
TORSDOF 5
ENDMDL
MODEL 4
REMARK VINA RESULT:      -7.0      1.556      4.349
REMARK  5 active torsions:
REMARK  status: ('A' for Active; 'I' for Inactive)
REMARK    1  A    between atoms: C_6  and  C_1 
REMARK    2  A    between atoms: C_3  and  C_5 
REMARK    3  A    between atoms: C_5  and  C_6 
REMARK    4  A    between atoms: C_17  and  C_13 
REMARK    5  A    between atoms: C_20  and  C_17 
ROOT
ATOM      1  C   UNL d   1     -47.929  12.316  22.875  0.00  0.00     0.201 C 
ATOM      2  O   UNL d   1     -47.784  11.839  22.214  0.00  0.00    -0.286 OA
ENDROOT
BRANCH   1   3
ATOM      3  C   UNL d   1     -48.710  12.486  23.080  0.00  0.00     0.078 A 
ATOM      4  C   UNL d   1     -49.241  11.863  23.240  0.00  0.00     0.202 A 
ATOM      5  C   UNL d   1     -50.021  12.034  23.444  0.00  0.00     0.084 A 
ATOM      6  O   UNL d   1     -48.981  11.082  23.192  0.00  0.00    -0.286 OA
ATOM      7  C   UNL d   1     -50.274  12.809  23.490  0.00  0.00     0.199 A 
ATOM      8  C   UNL d   1     -49.744  13.431  23.330  0.00  0.00     0.039 A 
ATOM      9  O   UNL d   1     -51.064  12.968  23.697  0.00  0.00    -0.286 OA
ATOM     10  C   UNL d   1     -48.983  13.260  23.131  0.00  0.00     0.010 A 
BRANCH   8  11
ATOM     11  C   UNL d   1     -50.020  14.208  23.382  0.00  0.00     0.003 C 
BRANCH  11  12
ATOM     12  C   UNL d   1     -49.564  14.848  23.131  0.00  0.00     0.000 C 
ATOM     13  C   UNL d   1     -49.828  15.622  23.209  0.00  0.00     0.000 C 
ENDBRANCH  11  12
ENDBRANCH   8  11
ENDBRANCH   1   3
BRANCH   1  14
ATOM     14  C   UNL d   1     -47.294  12.614  23.317  0.00  0.00     0.068 C 
BRANCH  14  15
ATOM     15  C   UNL d   1     -46.535  12.620  23.013  0.00  0.00     0.114 A 
ATOM     16  N   UNL d   1     -45.939  12.074  23.184  0.00  0.00    -0.238 NA
ATOM     17  C   UNL d   1     -45.270  12.296  22.755  0.00  0.00     0.088 A 
ATOM     18  C   UNL d   1     -44.523  11.964  22.707  0.00  0.00     0.020 A 
ATOM     19  C   UNL d   1     -45.447  12.970  22.323  0.00  0.00     0.049 A 
ATOM     20  C   UNL d   1     -43.939  12.301  22.226  0.00  0.00     0.002 A 
ATOM     21  C   UNL d   1     -44.128  12.985  21.791  0.00  0.00     0.001 A 
ATOM     22  C   UNL d   1     -44.875  13.317  21.839  0.00  0.00     0.008 A 
ATOM     23  S   UNL d   1     -46.239  13.186  22.474  0.00  0.00    -0.066 SA
ENDBRANCH  14  15
ENDBRANCH   1  14
TORSDOF 5
ENDMDL
