MODEL 1
REMARK VINA RESULT:      -9.1      0.000      0.000
REMARK  3 active torsions:
REMARK  status: ('A' for Active; 'I' for Inactive)
REMARK    1  A    between atoms: N_6  and  C_1 
REMARK    2  A    between atoms: C_11  and  C_2 
REMARK    3  A    between atoms: C_5  and  C_8 
REMARK       I    between atoms: C_8  and  N_6 
ROOT
ATOM      1  N   UNL d   1     -47.300  11.979  23.513  0.00  0.00    -0.200 NA
ATOM      2  C   UNL d   1     -47.962  11.489  23.366  0.00  0.00     0.302 C 
ATOM      3  O   UNL d   1     -47.933  10.681  23.588  0.00  0.00    -0.263 OA
ENDROOT
BRANCH   1   4
ATOM      4  C   UNL d   1     -47.325  12.741  23.305  0.00  0.00     0.119 A 
ATOM      5  C   UNL d   1     -46.754  13.132  22.961  0.00  0.00     0.084 A 
ATOM      6  C   UNL d   1     -47.014  13.872  22.854  0.00  0.00     0.013 A 
ATOM      7  C   UNL d   1     -46.660  14.508  22.528  0.00  0.00     0.001 A 
ATOM      8  C   UNL d   1     -47.734  13.922  23.132  0.00  0.00     0.031 A 
ATOM      9  C   UNL d   1     -47.063  15.190  22.496  0.00  0.00     0.001 A 
ATOM     10  C   UNL d   1     -47.796  15.231  22.781  0.00  0.00     0.006 A 
ATOM     11  S   UNL d   1     -47.940  13.227  23.415  0.00  0.00    -0.068 SA
BRANCH   5  12
ATOM     12  C   UNL d   1     -46.048  12.862  22.752  0.00  0.00     0.299 C 
ATOM     13  O   UNL d   1     -45.523  12.672  23.316  0.00  0.00    -0.264 OA
ATOM     14  N   UNL d   1     -45.849  12.776  21.996  0.00  0.00    -0.102 N 
ENDBRANCH   5  12
ENDBRANCH   1   4
BRANCH   2  15
ATOM     15  C   UNL d   1     -48.639  11.793  23.006  0.00  0.00     0.158 A 
ATOM     16  O   UNL d   1     -48.769  11.894  22.194  0.00  0.00    -0.302 OA
ATOM     17  C   UNL d   1     -49.520  12.215  22.077  0.00  0.00     0.100 A 
ATOM     18  C   UNL d   1     -49.945  12.432  21.396  0.00  0.00     0.025 A 
ATOM     19  C   UNL d   1     -49.870  12.319  22.827  0.00  0.00     0.025 A 
ATOM     20  C   UNL d   1     -50.704  12.747  21.454  0.00  0.00     0.002 A 
ATOM     21  C   UNL d   1     -51.063  12.854  22.207  0.00  0.00     0.000 A 
ATOM     22  C   UNL d   1     -50.635  12.635  22.890  0.00  0.00     0.002 A 
ATOM     23  C   UNL d   1     -49.326  12.058  23.400  0.00  0.00     0.032 A 
ENDBRANCH   2  15
TORSDOF 3
ENDMDL
MODEL 2
REMARK VINA RESULT:      -8.7      1.528      2.502
REMARK  3 active torsions:
REMARK  status: ('A' for Active; 'I' for Inactive)
REMARK    1  A    between atoms: N_6  and  C_1 
REMARK    2  A    between atoms: C_11  and  C_2 
REMARK    3  A    between atoms: C_5  and  C_8 
REMARK       I    between atoms: C_8  and  N_6 
ROOT
ATOM      1  N   UNL d   1     -49.127  12.102  21.793  0.00  0.00    -0.200 NA
ATOM      2  C   UNL d   1     -49.835  12.548  21.808  0.00  0.00     0.302 C 
ATOM      3  O   UNL d   1     -50.529  12.231  21.463  0.00  0.00    -0.263 OA
ENDROOT
BRANCH   1   4
ATOM      4  C   UNL d   1     -48.472  12.400  22.119  0.00  0.00     0.119 A 
ATOM      5  C   UNL d   1     -48.031  12.048  22.648  0.00  0.00     0.084 A 
ATOM      6  C   UNL d   1     -47.437  12.541  22.817  0.00  0.00     0.013 A 
ATOM      7  C   UNL d   1     -46.823  12.465  23.321  0.00  0.00     0.001 A 
ATOM      8  C   UNL d   1     -47.521  13.183  22.394  0.00  0.00     0.031 A 
ATOM      9  C   UNL d   1     -46.303  13.062  23.377  0.00  0.00     0.001 A 
ATOM     10  C   UNL d   1     -46.397  13.711  22.941  0.00  0.00     0.006 A 
ATOM     11  S   UNL d   1     -48.159  13.110  21.955  0.00  0.00    -0.068 SA
BRANCH   5  12
ATOM     12  C   UNL d   1     -48.141  11.339  22.964  0.00  0.00     0.299 C 
ATOM     13  O   UNL d   1     -47.957  10.693  22.541  0.00  0.00    -0.264 OA
ATOM     14  N   UNL d   1     -48.429  11.255  23.691  0.00  0.00    -0.102 N 
ENDBRANCH   5  12
ENDBRANCH   1   4
BRANCH   2  15
ATOM     15  C   UNL d   1     -49.855  13.295  22.159  0.00  0.00     0.158 A 
ATOM     16  O   UNL d   1     -49.588  14.007  21.829  0.00  0.00    -0.302 OA
ATOM     17  C   UNL d   1     -49.712  14.619  22.368  0.00  0.00     0.100 A 
ATOM     18  C   UNL d   1     -49.559  15.436  22.346  0.00  0.00     0.025 A 
ATOM     19  C   UNL d   1     -50.063  14.289  23.049  0.00  0.00     0.025 A 
ATOM     20  C   UNL d   1     -49.748  15.921  22.985  0.00  0.00     0.002 A 
ATOM     21  C   UNL d   1     -50.102  15.593  23.674  0.00  0.00     0.000 A 
ATOM     22  C   UNL d   1     -50.256  14.773  23.696  0.00  0.00     0.002 A 
ATOM     23  C   UNL d   1     -50.151  13.472  22.920  0.00  0.00     0.032 A 
ENDBRANCH   2  15
TORSDOF 3
ENDMDL
MODEL 3
REMARK VINA RESULT:      -8.4      1.438      3.241
REMARK  3 active torsions:
REMARK  status: ('A' for Active; 'I' for Inactive)
REMARK    1  A    between atoms: N_6  and  C_1 
REMARK    2  A    between atoms: C_11  and  C_2 
REMARK    3  A    between atoms: C_5  and  C_8 
REMARK       I    between atoms: C_8  and  N_6 
ROOT
ATOM      1  N   UNL d   1     -49.293  11.940  23.398  0.00  0.00    -0.200 NA
ATOM      2  C   UNL d   1     -48.518  11.631  23.346  0.00  0.00     0.302 C 
ATOM      3  O   UNL d   1     -48.389  10.816  23.492  0.00  0.00    -0.263 OA
ENDROOT
BRANCH   1   4
ATOM      4  C   UNL d   1     -49.417  12.708  23.260  0.00  0.00     0.119 A 
ATOM      5  C   UNL d   1     -49.934  13.000  22.766  0.00  0.00     0.084 A 
ATOM      6  C   UNL d   1     -49.870  13.788  22.805  0.00  0.00     0.013 A 
ATOM      7  C   UNL d   1     -50.265  14.363  22.418  0.00  0.00     0.001 A 
ATOM      8  C   UNL d   1     -49.319  13.965  23.318  0.00  0.00     0.031 A 
ATOM      9  C   UNL d   1     -50.079  15.119  22.572  0.00  0.00     0.001 A 
ATOM     10  C   UNL d   1     -49.516  15.289  23.096  0.00  0.00     0.006 A 
ATOM     11  S   UNL d   1     -49.029  13.305  23.609  0.00  0.00    -0.068 SA
BRANCH   5  12
ATOM     12  C   UNL d   1     -50.433  12.605  22.308  0.00  0.00     0.299 C 
ATOM     13  O   UNL d   1     -50.298  12.569  21.527  0.00  0.00    -0.264 OA
ATOM     14  N   UNL d   1     -51.064  12.243  22.607  0.00  0.00    -0.102 N 
ENDBRANCH   5  12
ENDBRANCH   1   4
BRANCH   2  15
ATOM     15  C   UNL d   1     -47.881  12.120  23.154  0.00  0.00     0.158 A 
ATOM     16  O   UNL d   1     -47.616  12.315  22.394  0.00  0.00    -0.302 OA
ATOM     17  C   UNL d   1     -46.965  12.818  22.455  0.00  0.00     0.100 A 
ATOM     18  C   UNL d   1     -46.477  13.188  21.892  0.00  0.00     0.025 A 
ATOM     19  C   UNL d   1     -46.817  12.943  23.266  0.00  0.00     0.025 A 
ATOM     20  C   UNL d   1     -45.853  13.673  22.124  0.00  0.00     0.002 A 
ATOM     21  C   UNL d   1     -45.699  13.802  22.942  0.00  0.00     0.000 A 
ATOM     22  C   UNL d   1     -46.189  13.431  23.507  0.00  0.00     0.002 A 
ATOM     23  C   UNL d   1     -47.383  12.512  23.698  0.00  0.00     0.032 A 
ENDBRANCH   2  15
TORSDOF 3
ENDMDL
MODEL 4
REMARK VINA RESULT:      -8.1      1.867      3.924
REMARK  3 active torsions:
REMARK  status: ('A' for Active; 'I' for Inactive)
REMARK    1  A    between atoms: N_6  and  C_1 
REMARK    2  A    between atoms: C_11  and  C_2 
REMARK    3  A    between atoms: C_5  and  C_8 
REMARK       I    between atoms: C_8  and  N_6 
ROOT
ATOM      1  N   UNL d   1     -49.268  14.911  22.531  0.00  0.00    -0.200 NA
ATOM      2  C   UNL d   1     -48.462  15.100  22.408  0.00  0.00     0.302 C 
ATOM      3  O   UNL d   1     -48.252  15.882  22.193  0.00  0.00    -0.263 OA
ENDROOT
BRANCH   1   4
ATOM      4  C   UNL d   1     -49.469  14.174  22.734  0.00  0.00     0.119 A 
ATOM      5  C   UNL d   1     -50.012  13.744  22.391  0.00  0.00     0.084 A 
ATOM      6  C   UNL d   1     -50.029  13.050  22.769  0.00  0.00     0.013 A 
ATOM      7  C   UNL d   1     -50.479  12.402  22.651  0.00  0.00     0.001 A 
ATOM      8  C   UNL d   1     -49.500  13.064  23.333  0.00  0.00     0.031 A 
ATOM      9  C   UNL d   1     -50.372  11.775  23.124  0.00  0.00     0.001 A 
ATOM     10  C   UNL d   1     -49.831  11.799  23.697  0.00  0.00     0.006 A 
ATOM     11  S   UNL d   1     -49.145  13.756  23.324  0.00  0.00    -0.068 SA
BRANCH   5  12
ATOM     12  C   UNL d   1     -50.466  13.945  21.784  0.00  0.00     0.299 C 
ATOM     13  O   UNL d   1     -50.319  13.634  21.069  0.00  0.00    -0.264 OA
ATOM     14  N   UNL d   1     -51.064  14.449  21.869  0.00  0.00    -0.102 N 
ENDBRANCH   5  12
ENDBRANCH   1   4
BRANCH   2  15
ATOM     15  C   UNL d   1     -47.876  14.525  22.497  0.00  0.00     0.158 A 
ATOM     16  O   UNL d   1     -47.623  13.981  21.925  0.00  0.00    -0.302 OA
ATOM     17  C   UNL d   1     -47.027  13.509  22.246  0.00  0.00     0.100 A 
ATOM     18  C   UNL d   1     -46.573  12.883  21.942  0.00  0.00     0.025 A 
ATOM     19  C   UNL d   1     -46.903  13.759  23.032  0.00  0.00     0.025 A 
ATOM     20  C   UNL d   1     -46.004  12.508  22.406  0.00  0.00     0.002 A 
ATOM     21  C   UNL d   1     -45.874  12.755  23.200  0.00  0.00     0.000 A 
ATOM     22  C   UNL d   1     -46.331  13.385  23.504  0.00  0.00     0.002 A 
ATOM     23  C   UNL d   1     -47.427  14.386  23.187  0.00  0.00     0.032 A 
ENDBRANCH   2  15
TORSDOF 3
ENDMDL
MODEL 5
REMARK VINA RESULT:      -7.3      1.360      2.274
REMARK  3 active torsions:
REMARK  status: ('A' for Active; 'I' for Inactive)
REMARK    1  A    between atoms: N_6  and  C_1 
REMARK    2  A    between atoms: C_11  and  C_2 
REMARK    3  A    between atoms: C_5  and  C_8 
REMARK       I    between atoms: C_8  and  N_6 
ROOT
ATOM      1  N   UNL d   1     -47.261  14.553  22.810  0.00  0.00    -0.200 NA
ATOM      2  C   UNL d   1     -47.938  14.924  22.488  0.00  0.00     0.302 C 
ATOM      3  O   UNL d   1     -47.911  15.740  22.303  0.00  0.00    -0.263 OA
ENDROOT
BRANCH   1   4
ATOM      4  C   UNL d   1     -47.284  13.782  22.986  0.00  0.00     0.119 A 
ATOM      5  C   UNL d   1     -46.713  13.276  22.868  0.00  0.00     0.084 A 
ATOM      6  C   UNL d   1     -46.972  12.573  23.122  0.00  0.00     0.013 A 
ATOM      7  C   UNL d   1     -46.616  11.859  23.134  0.00  0.00     0.001 A 
ATOM      8  C   UNL d   1     -47.692  12.659  23.390  0.00  0.00     0.031 A 
ATOM      9  C   UNL d   1     -47.018  11.241  23.427  0.00  0.00     0.001 A 
ATOM     10  C   UNL d   1     -47.752  11.339  23.698  0.00  0.00     0.006 A 
ATOM     11  S   UNL d   1     -47.900  13.404  23.312  0.00  0.00    -0.068 SA
BRANCH   5  12
ATOM     12  C   UNL d   1     -46.007  13.417  22.557  0.00  0.00     0.299 C 
ATOM     13  O   UNL d   1     -45.460  13.794  22.991  0.00  0.00    -0.264 OA
ATOM     14  N   UNL d   1     -45.830  13.193  21.824  0.00  0.00    -0.102 N 
ENDBRANCH   5  12
ENDBRANCH   1   4
BRANCH   2  15
ATOM     15  C   UNL d   1     -48.629  14.494  22.352  0.00  0.00     0.158 A 
ATOM     16  O   UNL d   1     -48.818  14.057  21.674  0.00  0.00    -0.302 OA
ATOM     17  C   UNL d   1     -49.562  13.714  21.770  0.00  0.00     0.100 A 
ATOM     18  C   UNL d   1     -50.031  13.227  21.286  0.00  0.00     0.025 A 
ATOM     19  C   UNL d   1     -49.848  13.939  22.521  0.00  0.00     0.025 A 
ATOM     20  C   UNL d   1     -50.770  12.965  21.538  0.00  0.00     0.002 A 
ATOM     21  C   UNL d   1     -51.065  13.188  22.294  0.00  0.00     0.000 A 
ATOM     22  C   UNL d   1     -50.593  13.677  22.780  0.00  0.00     0.002 A 
ATOM     23  C   UNL d   1     -49.272  14.420  22.880  0.00  0.00     0.032 A 
ENDBRANCH   2  15
TORSDOF 3
ENDMDL
MODEL 6
REMARK VINA RESULT:      -6.9      1.530      3.075
REMARK  3 active torsions:
REMARK  status: ('A' for Active; 'I' for Inactive)
REMARK    1  A    between atoms: N_6  and  C_1 
REMARK    2  A    between atoms: C_11  and  C_2 
REMARK    3  A    between atoms: C_5  and  C_8 
REMARK       I    between atoms: C_8  and  N_6 
ROOT
ATOM      1  N   UNL d   1     -47.865  12.678  21.963  0.00  0.00    -0.200 NA
ATOM      2  C   UNL d   1     -47.756  13.503  21.875  0.00  0.00     0.302 C 
ATOM      3  O   UNL d   1     -47.070  13.789  21.488  0.00  0.00    -0.263 OA
ENDROOT
BRANCH   1   4
ATOM      4  C   UNL d   1     -48.511  12.407  22.328  0.00  0.00     0.119 A 
ATOM      5  C   UNL d   1     -48.528  11.840  22.853  0.00  0.00     0.084 A 
ATOM      6  C   UNL d   1     -49.283  11.749  23.070  0.00  0.00     0.013 A 
ATOM      7  C   UNL d   1     -49.619  11.248  23.592  0.00  0.00     0.001 A 
ATOM      8  C   UNL d   1     -49.714  12.257  22.678  0.00  0.00     0.031 A 
ATOM      9  C   UNL d   1     -50.405  11.284  23.698  0.00  0.00     0.001 A 
ATOM     10  C   UNL d   1     -50.836  11.805  23.293  0.00  0.00     0.006 A 
ATOM     11  S   UNL d   1     -49.249  12.672  22.213  0.00  0.00    -0.068 SA
BRANCH   5  12
ATOM     12  C   UNL d   1     -47.921  11.426  23.127  0.00  0.00     0.299 C 
ATOM     13  O   UNL d   1     -47.770  10.709  22.823  0.00  0.00    -0.264 OA
ATOM     14  N   UNL d   1     -47.457  11.707  23.698  0.00  0.00    -0.102 N 
ENDBRANCH   5  12
ENDBRANCH   1   4
BRANCH   2  15
ATOM     15  C   UNL d   1     -48.317  14.035  22.165  0.00  0.00     0.158 A 
ATOM     16  O   UNL d   1     -49.032  14.249  21.805  0.00  0.00    -0.302 OA
ATOM     17  C   UNL d   1     -49.423  14.796  22.284  0.00  0.00     0.100 A 
ATOM     18  C   UNL d   1     -50.147  15.198  22.212  0.00  0.00     0.025 A 
ATOM     19  C   UNL d   1     -48.947  14.929  22.956  0.00  0.00     0.025 A 
ATOM     20  C   UNL d   1     -50.399  15.725  22.794  0.00  0.00     0.002 A 
ATOM     21  C   UNL d   1     -49.923  15.864  23.474  0.00  0.00     0.000 A 
ATOM     22  C   UNL d   1     -49.196  15.459  23.545  0.00  0.00     0.002 A 
ATOM     23  C   UNL d   1     -48.265  14.460  22.882  0.00  0.00     0.032 A 
ENDBRANCH   2  15
TORSDOF 3
ENDMDL
MODEL 7
REMARK VINA RESULT:      -6.3      1.903      3.074
REMARK  3 active torsions:
REMARK  status: ('A' for Active; 'I' for Inactive)
REMARK    1  A    between atoms: N_6  and  C_1 
REMARK    2  A    between atoms: C_11  and  C_2 
REMARK    3  A    between atoms: C_5  and  C_8 
REMARK       I    between atoms: C_8  and  N_6 
ROOT
ATOM      1  N   UNL d   1     -50.569  13.311  23.050  0.00  0.00    -0.200 NA
ATOM      2  C   UNL d   1     -50.425  12.492  23.137  0.00  0.00     0.302 C 
ATOM      3  O   UNL d   1     -51.064  11.976  23.301  0.00  0.00    -0.263 OA
ENDROOT
BRANCH   1   4
ATOM      4  C   UNL d   1     -49.967  13.799  22.895  0.00  0.00     0.119 A 
ATOM      5  C   UNL d   1     -49.992  14.410  22.423  0.00  0.00     0.084 A 
ATOM      6  C   UNL d   1     -49.272  14.738  22.431  0.00  0.00     0.013 A 
ATOM      7  C   UNL d   1     -48.985  15.376  22.049  0.00  0.00     0.001 A 
ATOM      8  C   UNL d   1     -48.820  14.326  22.905  0.00  0.00     0.031 A 
ATOM      9  C   UNL d   1     -48.227  15.578  22.167  0.00  0.00     0.001 A 
ATOM     10  C   UNL d   1     -47.774  15.152  22.651  0.00  0.00     0.006 A 
ATOM     11  S   UNL d   1     -49.238  13.740  23.200  0.00  0.00    -0.068 SA
BRANCH   5  12
ATOM     12  C   UNL d   1     -50.606  14.667  22.008  0.00  0.00     0.299 C 
ATOM     13  O   UNL d   1     -51.055  15.253  22.302  0.00  0.00    -0.264 OA
ATOM     14  N   UNL d   1     -50.787  14.358  21.308  0.00  0.00    -0.102 N 
ENDBRANCH   5  12
ENDBRANCH   1   4
BRANCH   2  15
ATOM     15  C   UNL d   1     -49.661  12.188  23.063  0.00  0.00     0.158 A 
ATOM     16  O   UNL d   1     -49.311  11.883  22.377  0.00  0.00    -0.302 OA
ATOM     17  C   UNL d   1     -48.541  11.640  22.549  0.00  0.00     0.100 A 
ATOM     18  C   UNL d   1     -47.937  11.299  22.091  0.00  0.00     0.025 A 
ATOM     19  C   UNL d   1     -48.403  11.796  23.357  0.00  0.00     0.025 A 
ATOM     20  C   UNL d   1     -47.207  11.112  22.425  0.00  0.00     0.002 A 
ATOM     21  C   UNL d   1     -47.061  11.267  23.239  0.00  0.00     0.000 A 
ATOM     22  C   UNL d   1     -47.668  11.610  23.698  0.00  0.00     0.002 A 
ATOM     23  C   UNL d   1     -49.093  12.134  23.674  0.00  0.00     0.032 A 
ENDBRANCH   2  15
TORSDOF 3
ENDMDL
