MODEL 1
REMARK VINA RESULT:      74.4      0.000      0.000
REMARK  8 active torsions:
REMARK  status: ('A' for Active; 'I' for Inactive)
REMARK    1  A    between atoms: C_2  and  C_1 
REMARK    2  A    between atoms: C_3  and  C_1 
REMARK    3  A    between atoms: C_5  and  C_1 
REMARK    4  A    between atoms: N_4  and  C_6 
REMARK    5  A    between atoms: C_7  and  N_4 
REMARK    6  A    between atoms: C_8  and  N_4 
REMARK    7  A    between atoms: C_20  and  C_7 
REMARK    8  A    between atoms: C_21  and  C_8 
ROOT
ATOM      1  C   UNL d   1     -57.641 -99.400 -44.049  0.00  0.00     0.044 A 
ATOM      2  C   UNL d   1     -56.029 -99.766 -44.140  0.00  0.00     0.064 A 
ATOM      3  C   UNL d   1     -57.316 -99.957 -43.529  0.00  0.00     0.004 A 
ATOM      4  C   UNL d   1     -57.164 -99.030 -44.609  0.00  0.00     0.004 A 
ATOM      5  C   UNL d   1     -56.507-100.142 -43.573  0.00  0.00     0.018 A 
ATOM      6  C   UNL d   1     -56.355 -99.214 -44.654  0.00  0.00     0.018 A 
ENDROOT
BRANCH   2   7
ATOM      7  N   UNL d   1     -55.231 -99.948 -44.184  0.00  0.00    -0.304 N 
BRANCH   7   8
ATOM      8  C   UNL d   1     -54.721 -99.714 -43.584  0.00  0.00     0.080 C 
BRANCH   8   9
ATOM      9  C   UNL d   1     -54.736-100.084 -42.856  0.00  0.00     0.018 A 
ATOM     10  C   UNL d   1     -54.762 -99.623 -42.172  0.00  0.00     0.002 A 
ATOM     11  C   UNL d   1     -54.778 -99.986 -41.420  0.00  0.00     0.000 A 
ATOM     12  C   UNL d   1     -54.766-100.820 -41.366  0.00  0.00     0.000 A 
ATOM     13  C   UNL d   1     -54.740-101.280 -42.049  0.00  0.00     0.000 A 
ATOM     14  C   UNL d   1     -54.725-100.908 -42.797  0.00  0.00     0.002 A 
ENDBRANCH   8   9
ENDBRANCH   7   8
BRANCH   7  15
ATOM     15  C   UNL d   1     -54.938-100.364 -44.826  0.00  0.00     0.080 C 
BRANCH  15  16
ATOM     16  C   UNL d   1     -55.121-101.155 -44.921  0.00  0.00     0.018 A 
ATOM     17  C   UNL d   1     -55.091-101.674 -44.277  0.00  0.00     0.002 A 
ATOM     18  C   UNL d   1     -55.275-102.473 -44.373  0.00  0.00     0.000 A 
ATOM     19  C   UNL d   1     -55.492-102.759 -45.114  0.00  0.00     0.000 A 
ATOM     20  C   UNL d   1     -55.526-102.247 -45.768  0.00  0.00     0.000 A 
ATOM     21  C   UNL d   1     -55.337-101.442 -45.657  0.00  0.00     0.002 A 
ENDBRANCH  15  16
ENDBRANCH   7  15
ENDBRANCH   2   7
BRANCH   1  22
ATOM     22  C   UNL d   1     -58.444 -99.217 -44.005  0.00  0.00     0.297 C 
ATOM     23  O   UNL d   1     -59.247 -99.033 -43.961  0.00  0.00    -0.281 OA
BRANCH  22  24
ATOM     24  C   UNL d   1     -58.362 -99.049 -43.209  0.00  0.00     0.457 C 
ATOM     25  F   UNL d   1     -57.557 -99.223 -43.256  0.00  0.00    -0.163 F 
ATOM     26  F   UNL d   1     -59.167 -98.874 -43.163  0.00  0.00    -0.163 F 
ATOM     27  F   UNL d   1     -58.279 -98.879 -42.406  0.00  0.00    -0.163 F 
ENDBRANCH  22  24
BRANCH  22  28
ATOM     28  C   UNL d   1     -58.528 -99.388 -44.817  0.00  0.00     0.457 C 
ATOM     29  F   UNL d   1     -58.610 -99.555 -45.611  0.00  0.00    -0.163 F 
ATOM     30  F   UNL d   1     -58.025 -98.761 -45.001  0.00  0.00    -0.163 F 
ATOM     31  F   UNL d   1     -59.031-100.015 -44.632  0.00  0.00    -0.163 F 
ENDBRANCH  22  28
ENDBRANCH   1  22
TORSDOF 8
ENDMDL
MODEL 2
REMARK VINA RESULT:      75.2      0.440      2.196
REMARK  8 active torsions:
REMARK  status: ('A' for Active; 'I' for Inactive)
REMARK    1  A    between atoms: C_2  and  C_1 
REMARK    2  A    between atoms: C_3  and  C_1 
REMARK    3  A    between atoms: C_5  and  C_1 
REMARK    4  A    between atoms: N_4  and  C_6 
REMARK    5  A    between atoms: C_7  and  N_4 
REMARK    6  A    between atoms: C_8  and  N_4 
REMARK    7  A    between atoms: C_20  and  C_7 
REMARK    8  A    between atoms: C_21  and  C_8 
ROOT
ATOM      1  C   UNL d   1     -57.700 -99.232 -44.111  0.00  0.00     0.044 A 
ATOM      2  C   UNL d   1     -56.099 -99.648 -44.071  0.00  0.00     0.064 A 
ATOM      3  C   UNL d   1     -57.228 -99.111 -44.781  0.00  0.00     0.004 A 
ATOM      4  C   UNL d   1     -57.375 -99.557 -43.429  0.00  0.00     0.004 A 
ATOM      5  C   UNL d   1     -56.424 -99.319 -44.763  0.00  0.00     0.018 A 
ATOM      6  C   UNL d   1     -56.570 -99.766 -43.410  0.00  0.00     0.018 A 
ENDROOT
BRANCH   2   7
ATOM      7  N   UNL d   1     -55.305 -99.853 -44.053  0.00  0.00    -0.304 N 
BRANCH   7   8
ATOM      8  C   UNL d   1     -54.943-100.158 -44.724  0.00  0.00     0.080 C 
BRANCH   8   9
ATOM      9  C   UNL d   1     -54.869-100.965 -44.829  0.00  0.00     0.018 A 
ATOM     10  C   UNL d   1     -54.812-101.267 -45.594  0.00  0.00     0.002 A 
ATOM     11  C   UNL d   1     -54.736-102.090 -45.718  0.00  0.00     0.000 A 
ATOM     12  C   UNL d   1     -54.719-102.605 -45.060  0.00  0.00     0.000 A 
ATOM     13  C   UNL d   1     -54.776-102.302 -44.294  0.00  0.00     0.000 A 
ATOM     14  C   UNL d   1     -54.852-101.478 -44.181  0.00  0.00     0.002 A 
ENDBRANCH   8   9
ENDBRANCH   7   8
BRANCH   7  15
ATOM     15  C   UNL d   1     -54.870 -99.756 -43.366  0.00  0.00     0.080 C 
BRANCH  15  16
ATOM     16  C   UNL d   1     -54.910-100.315 -42.772  0.00  0.00     0.018 A 
ATOM     17  C   UNL d   1     -54.721-101.107 -42.925  0.00  0.00     0.002 A 
ATOM     18  C   UNL d   1     -54.761-101.671 -42.325  0.00  0.00     0.000 A 
ATOM     19  C   UNL d   1     -54.991-101.450 -41.566  0.00  0.00     0.000 A 
ATOM     20  C   UNL d   1     -55.183-100.658 -41.400  0.00  0.00     0.000 A 
ATOM     21  C   UNL d   1     -55.138-100.097 -42.016  0.00  0.00     0.002 A 
ENDBRANCH  15  16
ENDBRANCH   7  15
ENDBRANCH   2   7
BRANCH   1  22
ATOM     22  C   UNL d   1     -58.499 -99.025 -44.130  0.00  0.00     0.297 C 
ATOM     23  O   UNL d   1     -59.297 -98.818 -44.148  0.00  0.00    -0.281 OA
BRANCH  22  24
ATOM     24  C   UNL d   1     -58.503 -98.970 -43.314  0.00  0.00     0.457 C 
ATOM     25  F   UNL d   1     -57.705 -98.761 -43.324  0.00  0.00    -0.163 F 
ATOM     26  F   UNL d   1     -59.301 -99.179 -43.305  0.00  0.00    -0.163 F 
ATOM     27  F   UNL d   1     -58.508 -98.915 -42.491  0.00  0.00    -0.163 F 
ENDBRANCH  22  24
BRANCH  22  28
ATOM     28  C   UNL d   1     -58.494 -99.080 -44.962  0.00  0.00     0.457 C 
ATOM     29  F   UNL d   1     -58.489 -99.135 -45.776  0.00  0.00    -0.163 F 
ATOM     30  F   UNL d   1     -59.300 -99.256 -44.954  0.00  0.00    -0.163 F 
ATOM     31  F   UNL d   1     -57.688 -98.904 -44.969  0.00  0.00    -0.163 F 
ENDBRANCH  22  28
ENDBRANCH   1  22
TORSDOF 8
ENDMDL
