MODEL 1
REMARK VINA RESULT:     115.2      0.000      0.000
REMARK  4 active torsions:
REMARK  status: ('A' for Active; 'I' for Inactive)
REMARK    1  A    between atoms: C_10  and  C_4 
REMARK       I    between atoms: N_11  and  C_10 
REMARK    2  A    between atoms: C_12  and  C_19 
REMARK    3  A    between atoms: O_26  and  C_12 
REMARK    4  A    between atoms: C_27  and  O_26 
ROOT
ATOM      1  C   UNL d   1      62.114  44.796  50.036  0.00  0.00     0.154 A 
ATOM      2  C   UNL d   1      61.626  44.987  50.670  0.00  0.00     0.093 A 
ATOM      3  N   UNL d   1      62.429  44.027  49.973  0.00  0.00    -0.211 NA
ATOM      4  C   UNL d   1      61.750  46.072  49.901  0.00  0.00     0.122 A 
ATOM      5  N   UNL d   1      62.190  45.463  49.562  0.00  0.00    -0.285 N 
ATOM      6  C   UNL d   1      61.447  44.419  51.246  0.00  0.00     0.269 A 
ATOM      7  N   UNL d   1      61.756  43.660  51.187  0.00  0.00    -0.259 N 
ATOM      8  C   UNL d   1      62.252  43.458  50.545  0.00  0.00     0.140 A 
ATOM      9  C   UNL d   1      61.403  45.772  50.587  0.00  0.00     0.030 A 
ATOM     10  C   UNL d   1      61.579  43.092  51.759  0.00  0.00     0.084 A 
ATOM     11  O   UNL d   1      60.956  44.616  51.883  0.00  0.00    -0.266 OA
ATOM     12  C   UNL d   1      62.560  42.707  50.483  0.00  0.00     0.064 A 
ATOM     13  C   UNL d   1      61.892  42.335  51.692  0.00  0.00     0.018 A 
ATOM     14  C   UNL d   1      62.388  42.140  51.048  0.00  0.00    -0.008 A 
ATOM     15  C   UNL d   1      62.634  45.512  48.864  0.00  0.00     0.101 C 
ENDROOT
BRANCH   4  16
ATOM     16  C   UNL d   1      61.671  46.842  49.608  0.00  0.00     0.281 C 
ATOM     17  N   UNL d   1      61.385  47.439  50.098  0.00  0.00    -0.271 N 
ATOM     18  C   UNL d   1      61.178  47.276  50.878  0.00  0.00     0.083 A 
ATOM     19  C   UNL d   1      61.306  48.210  49.805  0.00  0.00     0.083 A 
ATOM     20  C   UNL d   1      60.894  47.875  51.363  0.00  0.00     0.025 A 
ATOM     21  C   UNL d   1      60.815  48.645  51.069  0.00  0.00     0.067 A 
ATOM     22  C   UNL d   1      61.020  48.811  50.294  0.00  0.00     0.025 A 
ATOM     23  O   UNL d   1      61.877  47.006  48.828  0.00  0.00    -0.265 OA
BRANCH  21  24
ATOM     24  C   UNL d   1      60.529  49.247  51.558  0.00  0.00     0.300 C 
ATOM     25  O   UNL d   1      60.906  49.402  52.279  0.00  0.00    -0.259 OA
BRANCH  24  26
ATOM     26  O   UNL d   1      59.874  49.689  51.328  0.00  0.00    -0.271 OA
BRANCH  26  27
ATOM     27  C   UNL d   1      59.119  49.408  51.492  0.00  0.00     0.126 C 
ATOM     28  C   UNL d   1      58.472  49.708  51.071  0.00  0.00     0.029 C 
ENDBRANCH  26  27
ENDBRANCH  24  26
ENDBRANCH  21  24
ENDBRANCH   4  16
TORSDOF 4
ENDMDL
MODEL 2
REMARK VINA RESULT:     116.7      2.044      5.544
REMARK  4 active torsions:
REMARK  status: ('A' for Active; 'I' for Inactive)
REMARK    1  A    between atoms: C_10  and  C_4 
REMARK       I    between atoms: N_11  and  C_10 
REMARK    2  A    between atoms: C_12  and  C_19 
REMARK    3  A    between atoms: O_26  and  C_12 
REMARK    4  A    between atoms: C_27  and  O_26 
ROOT
ATOM      1  C   UNL d   1      58.875  49.329  51.976  0.00  0.00     0.154 A 
ATOM      2  C   UNL d   1      59.452  49.318  52.563  0.00  0.00     0.093 A 
ATOM      3  N   UNL d   1      58.075  49.430  52.185  0.00  0.00    -0.211 NA
ATOM      4  C   UNL d   1      60.058  49.156  51.383  0.00  0.00     0.122 A 
ATOM      5  N   UNL d   1      59.247  49.229  51.251  0.00  0.00    -0.285 N 
ATOM      6  C   UNL d   1      59.241  49.407  53.359  0.00  0.00     0.269 A 
ATOM      7  N   UNL d   1      58.453  49.507  53.568  0.00  0.00    -0.259 N 
ATOM      8  C   UNL d   1      57.861  49.519  52.978  0.00  0.00     0.140 A 
ATOM      9  C   UNL d   1      60.179  49.212  52.198  0.00  0.00     0.030 A 
ATOM     10  C   UNL d   1      58.239  49.596  54.360  0.00  0.00     0.084 A 
ATOM     11  O   UNL d   1      59.825  49.396  53.946  0.00  0.00    -0.266 OA
ATOM     12  C   UNL d   1      57.078  49.617  53.180  0.00  0.00     0.064 A 
ATOM     13  C   UNL d   1      57.448  49.695  54.561  0.00  0.00     0.018 A 
ATOM     14  C   UNL d   1      56.861  49.706  53.965  0.00  0.00    -0.008 A 
ATOM     15  C   UNL d   1      58.870  49.206  50.513  0.00  0.00     0.101 C 
ENDROOT
BRANCH   4  16
ATOM     16  C   UNL d   1      60.642  49.047  50.806  0.00  0.00     0.281 C 
ATOM     17  N   UNL d   1      60.866  48.284  50.591  0.00  0.00    -0.271 N 
ATOM     18  C   UNL d   1      60.514  47.629  50.946  0.00  0.00     0.083 A 
ATOM     19  C   UNL d   1      61.450  48.175  50.015  0.00  0.00     0.083 A 
ATOM     20  C   UNL d   1      60.742  46.871  50.728  0.00  0.00     0.025 A 
ATOM     21  C   UNL d   1      61.326  46.762  50.151  0.00  0.00     0.067 A 
ATOM     22  C   UNL d   1      61.678  47.411  49.797  0.00  0.00     0.025 A 
ATOM     23  O   UNL d   1      60.994  49.700  50.452  0.00  0.00    -0.265 OA
BRANCH  21  24
ATOM     24  C   UNL d   1      61.555  45.998  49.933  0.00  0.00     0.300 C 
ATOM     25  O   UNL d   1      61.897  45.870  49.190  0.00  0.00    -0.259 OA
BRANCH  24  26
ATOM     26  O   UNL d   1      61.441  45.369  50.452  0.00  0.00    -0.271 OA
BRANCH  26  27
ATOM     27  C   UNL d   1      61.301  44.617  50.152  0.00  0.00     0.126 C 
ATOM     28  C   UNL d   1      61.538  43.954  50.587  0.00  0.00     0.029 C 
ENDBRANCH  26  27
ENDBRANCH  24  26
ENDBRANCH  21  24
ENDBRANCH   4  16
TORSDOF 4
ENDMDL
