MODEL 1
REMARK VINA RESULT:      52.1      0.000      0.000
REMARK  4 active torsions:
REMARK  status: ('A' for Active; 'I' for Inactive)
REMARK    1  A    between atoms: C_10  and  C_2 
REMARK    2  A    between atoms: C_13  and  C_6 
REMARK    3  A    between atoms: O_17  and  C_10 
REMARK    4  A    between atoms: C_23  and  O_17 
ROOT
ATOM      1  C   UNL d   1      44.110 -14.127  44.242  0.00  0.00     0.081 A 
ATOM      2  C   UNL d   1      45.074 -13.303  43.576  0.00  0.00     0.106 A 
ATOM      3  C   UNL d   1      44.481 -12.754  43.386  0.00  0.00     0.208 A 
ATOM      4  C   UNL d   1      43.516 -13.578  44.052  0.00  0.00     0.108 A 
ATOM      5  C   UNL d   1      43.919 -14.810  44.669  0.00  0.00     0.281 A 
ATOM      6  C   UNL d   1      44.890 -13.992  44.005  0.00  0.00     0.015 A 
ATOM      7  O   UNL d   1      43.701 -12.899  43.629  0.00  0.00    -0.288 OA
ATOM      8  N   UNL d   1      43.138 -14.947  44.907  0.00  0.00    -0.208 NA
ATOM      9  C   UNL d   1      42.732 -13.711  44.288  0.00  0.00     0.044 A 
ATOM     10  C   UNL d   1      42.536 -14.399  44.719  0.00  0.00     0.087 A 
ATOM     11  O   UNL d   1      44.508 -15.352  44.855  0.00  0.00    -0.265 OA
ATOM     12  N   UNL d   1      44.666 -12.080  42.966  0.00  0.00    -0.121 N 
ATOM     13  C   UNL d   1      41.767 -14.536  44.955  0.00  0.00     0.021 C 
ENDROOT
BRANCH   6  14
ATOM     14  C   UNL d   1      45.477 -14.536  44.193  0.00  0.00     0.004 A 
ATOM     15  C   UNL d   1      46.037 -14.345  44.767  0.00  0.00     0.021 A 
ATOM     16  C   UNL d   1      46.623 -14.889  44.955  0.00  0.00     0.099 A 
ATOM     17  N   UNL d   1      46.647 -15.616  44.573  0.00  0.00    -0.242 NA
ATOM     18  C   UNL d   1      46.081 -15.802  43.998  0.00  0.00     0.099 A 
ATOM     19  C   UNL d   1      45.500 -15.263  43.811  0.00  0.00     0.021 A 
ENDBRANCH   6  14
BRANCH   2  20
ATOM     20  C   UNL d   1      45.849 -13.162  43.337  0.00  0.00     0.304 C 
ATOM     21  O   UNL d   1      46.356 -12.746  43.832  0.00  0.00    -0.259 OA
BRANCH  20  22
ATOM     22  O   UNL d   1      46.112 -13.432  42.615  0.00  0.00    -0.271 OA
BRANCH  22  23
ATOM     23  C   UNL d   1      46.364 -12.910  42.033  0.00  0.00     0.126 C 
ATOM     24  C   UNL d   1      46.615 -13.199  41.303  0.00  0.00     0.029 C 
ENDBRANCH  22  23
ENDBRANCH  20  22
ENDBRANCH   2  20
TORSDOF 4
ENDMDL
MODEL 2
REMARK VINA RESULT:      52.4      6.041      7.567
REMARK  4 active torsions:
REMARK  status: ('A' for Active; 'I' for Inactive)
REMARK    1  A    between atoms: C_10  and  C_2 
REMARK    2  A    between atoms: C_13  and  C_6 
REMARK    3  A    between atoms: O_17  and  C_10 
REMARK    4  A    between atoms: C_23  and  O_17 
ROOT
ATOM      1  C   UNL d   1      45.324 -14.972  37.121  0.00  0.00     0.081 A 
ATOM      2  C   UNL d   1      45.264 -16.251  37.764  0.00  0.00     0.106 A 
ATOM      3  C   UNL d   1      46.076 -16.213  37.929  0.00  0.00     0.208 A 
ATOM      4  C   UNL d   1      46.137 -14.933  37.286  0.00  0.00     0.108 A 
ATOM      5  C   UNL d   1      44.953 -14.351  36.718  0.00  0.00     0.281 A 
ATOM      6  C   UNL d   1      44.884 -15.631  37.360  0.00  0.00     0.015 A 
ATOM      7  O   UNL d   1      46.508 -15.547  37.685  0.00  0.00    -0.288 OA
ATOM      8  N   UNL d   1      45.392 -13.692  36.479  0.00  0.00    -0.208 NA
ATOM      9  C   UNL d   1      46.580 -14.274  37.048  0.00  0.00     0.044 A 
ATOM     10  C   UNL d   1      46.210 -13.645  36.641  0.00  0.00     0.087 A 
ATOM     11  O   UNL d   1      44.148 -14.392  36.557  0.00  0.00    -0.265 OA
ATOM     12  N   UNL d   1      46.443 -16.823  38.325  0.00  0.00    -0.121 N 
ATOM     13  C   UNL d   1      46.640 -12.994  36.404  0.00  0.00     0.021 C 
ENDROOT
BRANCH   6  14
ATOM     14  C   UNL d   1      44.079 -15.669  37.196  0.00  0.00     0.004 A 
ATOM     15  C   UNL d   1      43.548 -15.271  37.685  0.00  0.00     0.021 A 
ATOM     16  C   UNL d   1      42.744 -15.309  37.521  0.00  0.00     0.099 A 
ATOM     17  N   UNL d   1      42.476 -15.740  36.876  0.00  0.00    -0.242 NA
ATOM     18  C   UNL d   1      43.014 -16.137  36.389  0.00  0.00     0.099 A 
ATOM     19  C   UNL d   1      43.811 -16.100  36.550  0.00  0.00     0.021 A 
ENDBRANCH   6  14
BRANCH   2  20
ATOM     20  C   UNL d   1      44.832 -16.910  38.004  0.00  0.00     0.304 C 
ATOM     21  O   UNL d   1      44.542 -17.432  37.440  0.00  0.00    -0.259 OA
BRANCH  20  22
ATOM     22  O   UNL d   1      44.693 -17.044  38.796  0.00  0.00    -0.271 OA
BRANCH  22  23
ATOM     23  C   UNL d   1      44.924 -17.747  39.153  0.00  0.00     0.126 C 
ATOM     24  C   UNL d   1      45.444 -17.730  39.793  0.00  0.00     0.029 C 
ENDBRANCH  22  23
ENDBRANCH  20  22
ENDBRANCH   2  20
TORSDOF 4
ENDMDL
MODEL 3
REMARK VINA RESULT:      52.7      3.748      5.399
REMARK  4 active torsions:
REMARK  status: ('A' for Active; 'I' for Inactive)
REMARK    1  A    between atoms: C_10  and  C_2 
REMARK    2  A    between atoms: C_13  and  C_6 
REMARK    3  A    between atoms: O_17  and  C_10 
REMARK    4  A    between atoms: C_23  and  O_17 
ROOT
ATOM      1  C   UNL d   1      46.226 -18.779  43.062  0.00  0.00     0.081 A 
ATOM      2  C   UNL d   1      46.165 -18.538  41.651  0.00  0.00     0.106 A 
ATOM      3  C   UNL d   1      46.383 -19.325  41.501  0.00  0.00     0.208 A 
ATOM      4  C   UNL d   1      46.444 -19.567  42.912  0.00  0.00     0.108 A 
ATOM      5  C   UNL d   1      46.149 -18.513  43.842  0.00  0.00     0.281 A 
ATOM      6  C   UNL d   1      46.086 -18.262  42.432  0.00  0.00     0.015 A 
ATOM      7  O   UNL d   1      46.521 -19.835  42.140  0.00  0.00    -0.288 OA
ATOM      8  N   UNL d   1      46.289 -19.030  44.473  0.00  0.00    -0.208 NA
ATOM      9  C   UNL d   1      46.585 -20.088  43.542  0.00  0.00     0.044 A 
ATOM     10  C   UNL d   1      46.509 -19.823  44.330  0.00  0.00     0.087 A 
ATOM     11  O   UNL d   1      45.933 -17.733  43.987  0.00  0.00    -0.265 OA
ATOM     12  N   UNL d   1      46.459 -19.590  40.734  0.00  0.00    -0.121 N 
ATOM     13  C   UNL d   1      46.646 -20.330  44.954  0.00  0.00     0.021 C 
ENDROOT
BRANCH   6  14
ATOM     14  C   UNL d   1      45.870 -17.483  42.581  0.00  0.00     0.004 A 
ATOM     15  C   UNL d   1      45.073 -17.274  42.567  0.00  0.00     0.021 A 
ATOM     16  C   UNL d   1      44.857 -16.495  42.716  0.00  0.00     0.099 A 
ATOM     17  N   UNL d   1      45.434 -15.933  42.877  0.00  0.00    -0.242 NA
ATOM     18  C   UNL d   1      46.233 -16.149  42.889  0.00  0.00     0.099 A 
ATOM     19  C   UNL d   1      46.447 -16.921  42.741  0.00  0.00     0.021 A 
ENDBRANCH   6  14
BRANCH   2  20
ATOM     20  C   UNL d   1      46.027 -18.028  41.019  0.00  0.00     0.304 C 
ATOM     21  O   UNL d   1      45.264 -17.754  40.879  0.00  0.00    -0.259 OA
BRANCH  20  22
ATOM     22  O   UNL d   1      46.640 -17.797  40.535  0.00  0.00    -0.271 OA
BRANCH  22  23
ATOM     23  C   UNL d   1      46.580 -17.854  39.718  0.00  0.00     0.126 C 
ATOM     24  C   UNL d   1      46.228 -17.244  39.289  0.00  0.00     0.029 C 
ENDBRANCH  22  23
ENDBRANCH  20  22
ENDBRANCH   2  20
TORSDOF 4
ENDMDL
MODEL 4
REMARK VINA RESULT:      53.9      6.682      7.773
REMARK  4 active torsions:
REMARK  status: ('A' for Active; 'I' for Inactive)
REMARK    1  A    between atoms: C_10  and  C_2 
REMARK    2  A    between atoms: C_13  and  C_6 
REMARK    3  A    between atoms: O_17  and  C_10 
REMARK    4  A    between atoms: C_23  and  O_17 
ROOT
ATOM      1  C   UNL d   1      44.807 -15.035  36.837  0.00  0.00     0.081 A 
ATOM      2  C   UNL d   1      43.407 -15.340  36.851  0.00  0.00     0.106 A 
ATOM      3  C   UNL d   1      43.234 -14.585  36.554  0.00  0.00     0.208 A 
ATOM      4  C   UNL d   1      44.634 -14.278  36.539  0.00  0.00     0.108 A 
ATOM      5  C   UNL d   1      45.593 -15.254  36.977  0.00  0.00     0.281 A 
ATOM      6  C   UNL d   1      44.195 -15.568  36.994  0.00  0.00     0.015 A 
ATOM      7  O   UNL d   1      43.856 -14.057  36.399  0.00  0.00    -0.288 OA
ATOM      8  N   UNL d   1      46.207 -14.721  36.820  0.00  0.00    -0.208 NA
ATOM      9  C   UNL d   1      45.246 -13.742  36.381  0.00  0.00     0.044 A 
ATOM     10  C   UNL d   1      46.041 -13.959  36.520  0.00  0.00     0.087 A 
ATOM     11  O   UNL d   1      45.761 -16.003  37.272  0.00  0.00    -0.265 OA
ATOM     12  N   UNL d   1      42.461 -14.366  36.415  0.00  0.00    -0.121 N 
ATOM     13  C   UNL d   1      46.647 -13.436  36.367  0.00  0.00     0.021 C 
ENDROOT
BRANCH   6  14
ATOM     14  C   UNL d   1      44.367 -16.315  37.289  0.00  0.00     0.004 A 
ATOM     15  C   UNL d   1      44.382 -16.436  38.104  0.00  0.00     0.021 A 
ATOM     16  C   UNL d   1      44.554 -17.183  38.399  0.00  0.00     0.099 A 
ATOM     17  N   UNL d   1      44.709 -17.803  37.882  0.00  0.00    -0.242 NA
ATOM     18  C   UNL d   1      44.693 -17.675  37.064  0.00  0.00     0.099 A 
ATOM     19  C   UNL d   1      44.522 -16.935  36.772  0.00  0.00     0.021 A 
ENDBRANCH   6  14
BRANCH   2  20
ATOM     20  C   UNL d   1      42.793 -15.866  37.005  0.00  0.00     0.304 C 
ATOM     21  O   UNL d   1      42.585 -16.028  37.784  0.00  0.00    -0.259 OA
BRANCH  20  22
ATOM     22  O   UNL d   1      42.393 -16.223  36.391  0.00  0.00    -0.271 OA
BRANCH  22  23
ATOM     23  C   UNL d   1      41.572 -16.250  36.379  0.00  0.00     0.126 C 
ATOM     24  C   UNL d   1      41.187 -16.977  36.331  0.00  0.00     0.029 C 
ENDBRANCH  22  23
ENDBRANCH  20  22
ENDBRANCH   2  20
TORSDOF 4
ENDMDL
MODEL 5
REMARK VINA RESULT:      54.2      5.818      7.230
REMARK  4 active torsions:
REMARK  status: ('A' for Active; 'I' for Inactive)
REMARK    1  A    between atoms: C_10  and  C_2 
REMARK    2  A    between atoms: C_13  and  C_6 
REMARK    3  A    between atoms: O_17  and  C_10 
REMARK    4  A    between atoms: C_23  and  O_17 
ROOT
ATOM      1  C   UNL d   1      43.567 -15.342  36.965  0.00  0.00     0.081 A 
ATOM      2  C   UNL d   1      44.969 -15.636  36.932  0.00  0.00     0.106 A 
ATOM      3  C   UNL d   1      44.815 -16.351  36.541  0.00  0.00     0.208 A 
ATOM      4  C   UNL d   1      43.413 -16.058  36.573  0.00  0.00     0.108 A 
ATOM      5  C   UNL d   1      42.942 -14.842  37.175  0.00  0.00     0.281 A 
ATOM      6  C   UNL d   1      44.346 -15.128  37.146  0.00  0.00     0.015 A 
ATOM      7  O   UNL d   1      44.031 -16.556  36.364  0.00  0.00    -0.288 OA
ATOM      8  N   UNL d   1      42.162 -15.055  36.994  0.00  0.00    -0.208 NA
ATOM      9  C   UNL d   1      42.634 -16.275  36.391  0.00  0.00     0.044 A 
ATOM     10  C   UNL d   1      41.999 -15.773  36.600  0.00  0.00     0.087 A 
ATOM     11  O   UNL d   1      43.097 -14.134  37.562  0.00  0.00    -0.265 OA
ATOM     12  N   UNL d   1      45.430 -16.845  36.333  0.00  0.00    -0.121 N 
ATOM     13  C   UNL d   1      41.231 -15.981  36.424  0.00  0.00     0.021 C 
ENDROOT
BRANCH   6  14
ATOM     14  C   UNL d   1      44.497 -14.420  37.534  0.00  0.00     0.004 A 
ATOM     15  C   UNL d   1      45.053 -13.898  37.221  0.00  0.00     0.021 A 
ATOM     16  C   UNL d   1      45.205 -13.189  37.609  0.00  0.00     0.099 A 
ATOM     17  N   UNL d   1      44.803 -13.006  38.302  0.00  0.00    -0.242 NA
ATOM     18  C   UNL d   1      44.245 -13.535  38.611  0.00  0.00     0.099 A 
ATOM     19  C   UNL d   1      44.095 -14.237  38.226  0.00  0.00     0.021 A 
ENDBRANCH   6  14
BRANCH   2  20
ATOM     20  C   UNL d   1      45.746 -15.429  37.109  0.00  0.00     0.304 C 
ATOM     21  O   UNL d   1      46.242 -15.165  36.509  0.00  0.00    -0.259 OA
BRANCH  20  22
ATOM     22  O   UNL d   1      46.023 -15.486  37.874  0.00  0.00    -0.271 OA
BRANCH  22  23
ATOM     23  C   UNL d   1      46.647 -15.987  38.062  0.00  0.00     0.126 C 
ATOM     24  C   UNL d   1      46.590 -16.483  38.718  0.00  0.00     0.029 C 
ENDBRANCH  22  23
ENDBRANCH  20  22
ENDBRANCH   2  20
TORSDOF 4
ENDMDL
