MODEL 1
REMARK VINA RESULT:      -5.7      0.000      0.000
REMARK  4 active torsions:
REMARK  status: ('A' for Active; 'I' for Inactive)
REMARK    1  A    between atoms: C_8  and  C_1 
REMARK    2  A    between atoms: N_5  and  C_2 
REMARK       I    between atoms: C_7  and  N_5 
REMARK    3  A    between atoms: C_10  and  C_7 
REMARK    4  A    between atoms: O_17  and  C_16 
ROOT
ATOM      1  N   UNL d   1      57.142  -0.505  31.029  0.00  0.00    -0.165 NA
ATOM      2  C   UNL d   1      57.186  -0.107  31.740  0.00  0.00     0.282 C 
ATOM      3  O   UNL d   1      57.749   0.490  31.854  0.00  0.00    -0.265 OA
ENDROOT
BRANCH   1   4
ATOM      4  C   UNL d   1      57.658  -0.318  30.414  0.00  0.00     0.297 A 
ATOM      5  O   UNL d   1      58.295  -0.782  30.169  0.00  0.00    -0.253 OA
ATOM      6  C   UNL d   1      58.665  -0.392  29.539  0.00  0.00     0.212 A 
ATOM      7  N   UNL d   1      58.255   0.305  29.403  0.00  0.00    -0.119 NA
ATOM      8  N   UNL d   1      57.634   0.350  29.943  0.00  0.00    -0.101 NA
BRANCH   6   9
ATOM      9  C   UNL d   1      59.331  -0.665  29.126  0.00  0.00     0.072 A 
ATOM     10  S   UNL d   1      59.993  -0.222  28.930  0.00  0.00    -0.083 SA
ATOM     11  C   UNL d   1      60.516  -0.712  28.523  0.00  0.00     0.035 A 
ATOM     12  C   UNL d   1      60.173  -1.465  28.469  0.00  0.00     0.008 A 
ATOM     13  C   UNL d   1      59.437  -1.433  28.844  0.00  0.00     0.011 A 
ENDBRANCH   6   9
ENDBRANCH   1   4
BRANCH   2  14
ATOM     14  C   UNL d   1      56.666  -0.295  32.357  0.00  0.00     0.060 A 
ATOM     15  C   UNL d   1      56.438   0.282  32.903  0.00  0.00     0.029 A 
ATOM     16  C   UNL d   1      55.925   0.091  33.510  0.00  0.00     0.094 A 
ATOM     17  C   UNL d   1      55.636  -0.676  33.578  0.00  0.00     0.024 A 
ATOM     18  C   UNL d   1      55.862  -1.258  33.034  0.00  0.00     0.002 A 
ATOM     19  C   UNL d   1      56.377  -1.061  32.426  0.00  0.00     0.005 A 
BRANCH  16  20
ATOM     20  O   UNL d   1      55.687   0.675  34.072  0.00  0.00    -0.328 OA
ATOM     21  C   UNL d   1      55.044   0.542  34.558  0.00  0.00     0.181 C 
ENDBRANCH  16  20
ENDBRANCH   2  14
TORSDOF 4
ENDMDL
MODEL 2
REMARK VINA RESULT:      -4.0      1.867      4.988
REMARK  4 active torsions:
REMARK  status: ('A' for Active; 'I' for Inactive)
REMARK    1  A    between atoms: C_8  and  C_1 
REMARK    2  A    between atoms: N_5  and  C_2 
REMARK       I    between atoms: C_7  and  N_5 
REMARK    3  A    between atoms: C_10  and  C_7 
REMARK    4  A    between atoms: O_17  and  C_16 
ROOT
ATOM      1  N   UNL d   1      57.812  -0.294  31.092  0.00  0.00    -0.165 NA
ATOM      2  C   UNL d   1      57.722   0.228  30.472  0.00  0.00     0.282 C 
ATOM      3  O   UNL d   1      57.012   0.643  30.370  0.00  0.00    -0.265 OA
ENDROOT
BRANCH   1   4
ATOM      4  C   UNL d   1      57.196  -0.416  31.627  0.00  0.00     0.297 A 
ATOM      5  O   UNL d   1      56.975   0.106  32.227  0.00  0.00    -0.253 OA
ATOM      6  C   UNL d   1      56.335  -0.229  32.632  0.00  0.00     0.212 A 
ATOM      7  N   UNL d   1      56.168  -0.950  32.280  0.00  0.00    -0.119 NA
ATOM      8  N   UNL d   1      56.699  -1.065  31.660  0.00  0.00    -0.101 NA
BRANCH   6   9
ATOM      9  C   UNL d   1      55.940   0.112  33.277  0.00  0.00     0.072 A 
ATOM     10  S   UNL d   1      56.290   0.392  33.964  0.00  0.00    -0.083 SA
ATOM     11  C   UNL d   1      55.694   0.682  34.453  0.00  0.00     0.035 A 
ATOM     12  C   UNL d   1      54.969   0.580  34.064  0.00  0.00     0.008 A 
ATOM     13  C   UNL d   1      55.125   0.225  33.333  0.00  0.00     0.011 A 
ENDBRANCH   6   9
ENDBRANCH   1   4
BRANCH   2  14
ATOM     14  C   UNL d   1      58.341   0.349  29.935  0.00  0.00     0.060 A 
ATOM     15  C   UNL d   1      59.114   0.454  30.206  0.00  0.00     0.029 A 
ATOM     16  C   UNL d   1      59.723   0.574  29.672  0.00  0.00     0.094 A 
ATOM     17  C   UNL d   1      59.565   0.589  28.865  0.00  0.00     0.024 A 
ATOM     18  C   UNL d   1      58.791   0.484  28.589  0.00  0.00     0.002 A 
ATOM     19  C   UNL d   1      58.184   0.365  29.128  0.00  0.00     0.005 A 
BRANCH  16  20
ATOM     20  O   UNL d   1      60.516   0.682  29.942  0.00  0.00    -0.328 OA
ATOM     21  C   UNL d   1      61.105   0.168  29.705  0.00  0.00     0.181 C 
ENDBRANCH  16  20
ENDBRANCH   2  14
TORSDOF 4
ENDMDL
MODEL 3
REMARK VINA RESULT:      -2.9      8.961      9.531
REMARK  4 active torsions:
REMARK  status: ('A' for Active; 'I' for Inactive)
REMARK    1  A    between atoms: C_8  and  C_1 
REMARK    2  A    between atoms: N_5  and  C_2 
REMARK       I    between atoms: C_7  and  N_5 
REMARK    3  A    between atoms: C_10  and  C_7 
REMARK    4  A    between atoms: O_17  and  C_16 
ROOT
ATOM      1  N   UNL d   1      59.043  -9.399  33.441  0.00  0.00    -0.165 NA
ATOM      2  C   UNL d   1      59.747  -9.161  33.780  0.00  0.00     0.282 C 
ATOM      3  O   UNL d   1      60.425  -9.060  33.316  0.00  0.00    -0.265 OA
ENDROOT
BRANCH   1   4
ATOM      4  C   UNL d   1      59.000  -9.542  32.630  0.00  0.00     0.297 A 
ATOM      5  O   UNL d   1      58.308  -9.530  32.180  0.00  0.00    -0.253 OA
ATOM      6  C   UNL d   1      58.512  -9.702  31.396  0.00  0.00     0.212 A 
ATOM      7  N   UNL d   1      59.323  -9.818  31.370  0.00  0.00    -0.119 NA
ATOM      8  N   UNL d   1      59.624  -9.719  32.131  0.00  0.00    -0.101 NA
BRANCH   6   9
ATOM      9  C   UNL d   1      57.984  -9.747  30.758  0.00  0.00     0.072 A 
ATOM     10  S   UNL d   1      58.187  -9.768  29.963  0.00  0.00    -0.083 SA
ATOM     11  C   UNL d   1      57.491  -9.812  29.524  0.00  0.00     0.035 A 
ATOM     12  C   UNL d   1      56.852  -9.818  30.053  0.00  0.00     0.008 A 
ATOM     13  C   UNL d   1      57.162  -9.777  30.820  0.00  0.00     0.011 A 
ENDBRANCH   6   9
ENDBRANCH   1   4
BRANCH   2  14
ATOM     14  C   UNL d   1      59.789  -9.018  34.595  0.00  0.00     0.060 A 
ATOM     15  C   UNL d   1      60.004  -8.272  34.877  0.00  0.00     0.029 A 
ATOM     16  C   UNL d   1      60.045  -8.135  35.683  0.00  0.00     0.094 A 
ATOM     17  C   UNL d   1      59.872  -8.741  36.212  0.00  0.00     0.024 A 
ATOM     18  C   UNL d   1      59.656  -9.490  35.933  0.00  0.00     0.002 A 
ATOM     19  C   UNL d   1      59.617  -9.623  35.124  0.00  0.00     0.005 A 
BRANCH  16  20
ATOM     20  O   UNL d   1      60.264  -7.375  35.979  0.00  0.00    -0.328 OA
ATOM     21  C   UNL d   1      59.717  -6.769  36.001  0.00  0.00     0.181 C 
ENDBRANCH  16  20
ENDBRANCH   2  14
TORSDOF 4
ENDMDL
