MODEL 1
REMARK VINA RESULT:      48.4      0.000      0.000
REMARK  3 active torsions:
REMARK  status: ('A' for Active; 'I' for Inactive)
REMARK    1  A    between atoms: C_2  and  C_1 
REMARK    2  A    between atoms: N_12  and  C_6 
REMARK    3  A    between atoms: C_15  and  N_12 
ROOT
ATOM      1  C   UNL d   1      13.863  14.469  -3.760  0.00  0.00     0.082 A 
ATOM      2  C   UNL d   1      13.855  14.900  -4.468  0.00  0.00     0.302 A 
ATOM      3  C   UNL d   1      14.156  14.812  -3.056  0.00  0.00     0.009 A 
ATOM      4  O   UNL d   1      14.141  15.681  -4.478  0.00  0.00    -0.273 OA
ATOM      5  C   UNL d   1      14.437  15.593  -3.085  0.00  0.00     0.025 A 
ATOM      6  C   UNL d   1      14.429  16.021  -3.790  0.00  0.00     0.103 A 
ATOM      7  O   UNL d   1      13.568  14.560  -5.157  0.00  0.00    -0.259 OA
ATOM      8  C   UNL d   1      14.727  15.938  -2.393  0.00  0.00     0.026 A 
ATOM      9  C   UNL d   1      14.715  16.800  -3.795  0.00  0.00     0.027 A 
ATOM     10  C   UNL d   1      15.008  16.708  -2.405  0.00  0.00     0.094 A 
ATOM     11  C   UNL d   1      15.002  17.140  -3.108  0.00  0.00     0.026 A 
ATOM     12  O   UNL d   1      15.295  17.049  -1.721  0.00  0.00    -0.328 OA
ATOM     13  C   UNL d   1      15.583  17.382  -1.023  0.00  0.00     0.181 C 
ENDROOT
BRANCH   1  14
ATOM     14  C   UNL d   1      13.582  13.700  -3.749  0.00  0.00     0.095 A 
ATOM     15  N   UNL d   1      13.676  13.163  -3.141  0.00  0.00    -0.221 NA
ATOM     16  C   UNL d   1      13.309  12.465  -3.362  0.00  0.00     0.194 A 
ATOM     17  S   UNL d   1      12.984  12.568  -4.114  0.00  0.00    -0.046 SA
ATOM     18  C   UNL d   1      13.155  13.338  -4.355  0.00  0.00     0.058 A 
BRANCH  16  19
ATOM     19  N   UNL d   1      13.267  11.779  -2.920  0.00  0.00    -0.221 NA
BRANCH  19  20
ATOM     20  C   UNL d   1      13.530  11.779  -2.146  0.00  0.00     0.087 A 
ATOM     21  C   UNL d   1      14.339  11.779  -1.985  0.00  0.00     0.061 A 
ATOM     22  C   UNL d   1      14.603  11.779  -1.210  0.00  0.00     0.197 A 
ATOM     23  O   UNL d   1      15.409  11.780  -1.054  0.00  0.00    -0.286 OA
ATOM     24  C   UNL d   1      14.056  11.779  -0.587  0.00  0.00     0.042 A 
ATOM     25  C   UNL d   1      13.255  11.779  -0.747  0.00  0.00     0.005 A 
ATOM     26  C   UNL d   1      12.984  11.779  -1.527  0.00  0.00     0.019 A 
ENDBRANCH  19  20
ENDBRANCH  16  19
ENDBRANCH   1  14
TORSDOF 3
ENDMDL
MODEL 2
REMARK VINA RESULT:      49.2      2.015      4.835
REMARK  3 active torsions:
REMARK  status: ('A' for Active; 'I' for Inactive)
REMARK    1  A    between atoms: C_2  and  C_1 
REMARK    2  A    between atoms: N_12  and  C_6 
REMARK    3  A    between atoms: C_15  and  N_12 
ROOT
ATOM      1  C   UNL d   1      14.629  13.299  -1.237  0.00  0.00     0.082 A 
ATOM      2  C   UNL d   1      14.202  12.718  -0.829  0.00  0.00     0.302 A 
ATOM      3  C   UNL d   1      14.553  13.380  -2.066  0.00  0.00     0.009 A 
ATOM      4  O   UNL d   1      13.692  12.211  -1.248  0.00  0.00    -0.273 OA
ATOM      5  C   UNL d   1      14.041  12.865  -2.467  0.00  0.00     0.025 A 
ATOM      6  C   UNL d   1      13.615  12.287  -2.060  0.00  0.00     0.103 A 
ATOM      7  O   UNL d   1      14.278  12.641  -0.016  0.00  0.00    -0.259 OA
ATOM      8  C   UNL d   1      13.961  12.940  -3.286  0.00  0.00     0.026 A 
ATOM      9  C   UNL d   1      13.109  11.784  -2.483  0.00  0.00     0.027 A 
ATOM     10  C   UNL d   1      13.459  12.440  -3.697  0.00  0.00     0.094 A 
ATOM     11  C   UNL d   1      13.032  11.860  -3.295  0.00  0.00     0.026 A 
ATOM     12  O   UNL d   1      13.380  12.514  -4.506  0.00  0.00    -0.328 OA
ATOM     13  C   UNL d   1      13.310  12.599  -5.324  0.00  0.00     0.181 C 
ENDROOT
BRANCH   1  14
ATOM     14  C   UNL d   1      15.131  13.799  -0.825  0.00  0.00     0.095 A 
ATOM     15  N   UNL d   1      15.126  14.615  -0.856  0.00  0.00    -0.221 NA
ATOM     16  C   UNL d   1      15.718  14.889  -0.360  0.00  0.00     0.194 A 
ATOM     17  S   UNL d   1      16.094  14.237  -0.019  0.00  0.00    -0.046 SA
ATOM     18  C   UNL d   1      15.728  13.559  -0.309  0.00  0.00     0.058 A 
BRANCH  16  19
ATOM     19  N   UNL d   1      15.910  15.671  -0.221  0.00  0.00    -0.221 NA
BRANCH  19  20
ATOM     20  C   UNL d   1      15.583  16.257  -0.687  0.00  0.00     0.087 A 
ATOM     21  C   UNL d   1      15.727  16.267  -1.500  0.00  0.00     0.061 A 
ATOM     22  C   UNL d   1      15.400  16.854  -1.967  0.00  0.00     0.197 A 
ATOM     23  O   UNL d   1      15.546  16.860  -2.774  0.00  0.00    -0.286 OA
ATOM     24  C   UNL d   1      14.923  17.438  -1.623  0.00  0.00     0.042 A 
ATOM     25  C   UNL d   1      14.781  17.428  -0.819  0.00  0.00     0.005 A 
ATOM     26  C   UNL d   1      15.108  16.839  -0.343  0.00  0.00     0.019 A 
ENDBRANCH  19  20
ENDBRANCH  16  19
ENDBRANCH   1  14
TORSDOF 3
ENDMDL
