MODEL 1
REMARK VINA RESULT:      -7.8      0.000      0.000
REMARK  2 active torsions:
REMARK  status: ('A' for Active; 'I' for Inactive)
REMARK    1  A    between atoms: C_6  and  C_1 
REMARK    2  A    between atoms: O_16  and  C_13 
ROOT
ATOM      1  C   UNL d   1     -48.192  13.846  22.779  0.00  0.00     0.148 A 
ATOM      2  N   UNL d   1     -48.794  13.591  22.298  0.00  0.00    -0.289 N 
ATOM      3  N   UNL d   1     -48.356  14.612  23.014  0.00  0.00    -0.225 NA
ATOM      4  C   UNL d   1     -49.359  14.197  22.217  0.00  0.00     0.085 A 
ATOM      5  C   UNL d   1     -49.073  14.837  22.673  0.00  0.00     0.118 A 
ATOM      6  C   UNL d   1     -48.932  12.841  21.884  0.00  0.00     0.082 A 
ATOM      7  C   UNL d   1     -50.027  14.097  21.765  0.00  0.00     0.019 A 
ATOM      8  C   UNL d   1     -49.600  12.742  21.432  0.00  0.00     0.019 A 
ATOM      9  C   UNL d   1     -50.177  13.386  21.361  0.00  0.00     0.003 A 
ENDROOT
BRANCH   1  10
ATOM     10  C   UNL d   1     -47.545  13.340  22.953  0.00  0.00     0.035 A 
ATOM     11  C   UNL d   1     -47.617  12.742  23.524  0.00  0.00     0.005 A 
ATOM     12  C   UNL d   1     -46.981  12.252  23.690  0.00  0.00     0.024 A 
ATOM     13  C   UNL d   1     -46.266  12.348  23.292  0.00  0.00     0.094 A 
ATOM     14  C   UNL d   1     -46.192  12.933  22.733  0.00  0.00     0.024 A 
ATOM     15  C   UNL d   1     -46.835  13.439  22.557  0.00  0.00     0.005 A 
BRANCH  13  16
ATOM     16  O   UNL d   1     -45.594  11.854  23.446  0.00  0.00    -0.328 OA
ATOM     17  C   UNL d   1     -45.692  11.056  23.627  0.00  0.00     0.181 C 
ENDBRANCH  13  16
ENDBRANCH   1  10
TORSDOF 2
ENDMDL
MODEL 2
REMARK VINA RESULT:      -7.7      1.825      3.742
REMARK  2 active torsions:
REMARK  status: ('A' for Active; 'I' for Inactive)
REMARK    1  A    between atoms: C_6  and  C_1 
REMARK    2  A    between atoms: O_16  and  C_13 
ROOT
ATOM      1  C   UNL d   1     -48.280  12.056  23.088  0.00  0.00     0.148 A 
ATOM      2  N   UNL d   1     -47.566  12.429  22.988  0.00  0.00    -0.289 N 
ATOM      3  N   UNL d   1     -48.158  11.375  23.524  0.00  0.00    -0.225 NA
ATOM      4  C   UNL d   1     -46.968  11.987  23.362  0.00  0.00     0.085 A 
ATOM      5  C   UNL d   1     -47.352  11.324  23.698  0.00  0.00     0.118 A 
ATOM      6  C   UNL d   1     -47.343  13.162  22.581  0.00  0.00     0.082 A 
ATOM      7  C   UNL d   1     -46.192  12.228  23.353  0.00  0.00     0.019 A 
ATOM      8  C   UNL d   1     -46.567  13.403  22.572  0.00  0.00     0.019 A 
ATOM      9  C   UNL d   1     -45.959  12.928  22.968  0.00  0.00     0.003 A 
ENDROOT
BRANCH   1  10
ATOM     10  C   UNL d   1     -48.981  12.387  22.763  0.00  0.00     0.035 A 
ATOM     11  C   UNL d   1     -49.451  12.905  23.210  0.00  0.00     0.005 A 
ATOM     12  C   UNL d   1     -50.134  13.223  22.887  0.00  0.00     0.024 A 
ATOM     13  C   UNL d   1     -50.358  13.033  22.118  0.00  0.00     0.094 A 
ATOM     14  C   UNL d   1     -49.900  12.527  21.678  0.00  0.00     0.024 A 
ATOM     15  C   UNL d   1     -49.202  12.196  21.998  0.00  0.00     0.005 A 
BRANCH  13  16
ATOM     16  O   UNL d   1     -51.060  13.350  21.761  0.00  0.00    -0.328 OA
ATOM     17  C   UNL d   1     -51.064  14.112  21.447  0.00  0.00     0.181 C 
ENDBRANCH  13  16
ENDBRANCH   1  10
TORSDOF 2
ENDMDL
MODEL 3
REMARK VINA RESULT:      -7.6      1.300      1.763
REMARK  2 active torsions:
REMARK  status: ('A' for Active; 'I' for Inactive)
REMARK    1  A    between atoms: C_6  and  C_1 
REMARK    2  A    between atoms: O_16  and  C_13 
ROOT
ATOM      1  C   UNL d   1     -48.913  13.398  22.271  0.00  0.00     0.148 A 
ATOM      2  N   UNL d   1     -49.352  12.882  22.719  0.00  0.00    -0.289 N 
ATOM      3  N   UNL d   1     -49.419  13.799  21.769  0.00  0.00    -0.225 NA
ATOM      4  C   UNL d   1     -50.154  12.946  22.508  0.00  0.00     0.085 A 
ATOM      5  C   UNL d   1     -50.186  13.527  21.908  0.00  0.00     0.118 A 
ATOM      6  C   UNL d   1     -49.131  12.315  23.338  0.00  0.00     0.082 A 
ATOM      7  C   UNL d   1     -50.725  12.493  22.868  0.00  0.00     0.019 A 
ATOM      8  C   UNL d   1     -49.703  11.862  23.698  0.00  0.00     0.019 A 
ATOM      9  C   UNL d   1     -50.534  11.944  23.463  0.00  0.00     0.003 A 
ENDROOT
BRANCH   1  10
ATOM     10  C   UNL d   1     -48.081  13.447  22.373  0.00  0.00     0.035 A 
ATOM     11  C   UNL d   1     -47.576  12.898  22.006  0.00  0.00     0.005 A 
ATOM     12  C   UNL d   1     -46.765  12.952  22.109  0.00  0.00     0.024 A 
ATOM     13  C   UNL d   1     -46.444  13.549  22.576  0.00  0.00     0.094 A 
ATOM     14  C   UNL d   1     -46.934  14.087  22.937  0.00  0.00     0.024 A 
ATOM     15  C   UNL d   1     -47.763  14.041  22.838  0.00  0.00     0.005 A 
BRANCH  13  16
ATOM     16  O   UNL d   1     -45.607  13.625  22.698  0.00  0.00    -0.328 OA
ATOM     17  C   UNL d   1     -45.073  13.297  22.163  0.00  0.00     0.181 C 
ENDBRANCH  13  16
ENDBRANCH   1  10
TORSDOF 2
ENDMDL
