MODEL 1
REMARK VINA RESULT:      47.3      0.000      0.000
REMARK  4 active torsions:
REMARK  status: ('A' for Active; 'I' for Inactive)
REMARK    1  A    between atoms: C_5  and  N_1 
REMARK    2  A    between atoms: C_7  and  C_5 
REMARK    3  A    between atoms: O_10  and  C_8 
REMARK    4  A    between atoms: C_14  and  O_10 
ROOT
ATOM      1  C   UNL d   1     -56.548 -98.933 -44.326  0.00  0.00     0.087 C 
ENDROOT
BRANCH   1   2
ATOM      2  N   UNL d   1     -55.953 -99.461 -44.522  0.00  0.00    -0.251 N 
ATOM      3  C   UNL d   1     -55.365 -99.393 -45.111  0.00  0.00     0.378 A 
ATOM      4  O   UNL d   1     -54.894-100.079 -45.086  0.00  0.00    -0.258 OA
ATOM      5  O   UNL d   1     -55.269 -98.756 -45.626  0.00  0.00    -0.237 OA
ATOM      6  C   UNL d   1     -55.184-100.570 -44.489  0.00  0.00     0.121 A 
ATOM      7  C   UNL d   1     -55.835-100.191 -44.142  0.00  0.00     0.092 A 
ATOM      8  C   UNL d   1     -54.948-101.318 -44.206  0.00  0.00     0.026 A 
ATOM      9  C   UNL d   1     -56.245-100.557 -43.519  0.00  0.00     0.020 A 
ATOM     10  C   UNL d   1     -56.007-101.295 -43.244  0.00  0.00     0.002 A 
ATOM     11  C   UNL d   1     -55.357-101.677 -43.589  0.00  0.00     0.002 A 
ENDBRANCH   1   2
BRANCH   1  12
ATOM     12  C   UNL d   1     -57.232 -98.886 -44.780  0.00  0.00     0.041 A 
ATOM     13  C   UNL d   1     -57.963 -98.803 -44.419  0.00  0.00     0.101 A 
ATOM     14  C   UNL d   1     -58.645 -98.756 -44.873  0.00  0.00     0.025 A 
ATOM     15  C   UNL d   1     -58.593 -98.794 -45.698  0.00  0.00     0.002 A 
ATOM     16  C   UNL d   1     -57.858 -98.878 -46.067  0.00  0.00     0.000 A 
ATOM     17  C   UNL d   1     -57.176 -98.924 -45.607  0.00  0.00     0.004 A 
BRANCH  13  18
ATOM     18  O   UNL d   1     -58.015 -98.765 -43.595  0.00  0.00    -0.307 OA
BRANCH  18  19
ATOM     19  C   UNL d   1     -58.708 -99.009 -43.214  0.00  0.00     0.100 C 
ATOM     20  C   UNL d   1     -58.786 -98.919 -42.402  0.00  0.00     0.027 C 
ATOM     21  C   UNL d   1     -59.321 -99.342 -43.654  0.00  0.00     0.027 C 
ENDBRANCH  18  19
ENDBRANCH  13  18
ENDBRANCH   1  12
TORSDOF 4
ENDMDL
MODEL 2
REMARK VINA RESULT:      49.9      1.017      3.769
REMARK  4 active torsions:
REMARK  status: ('A' for Active; 'I' for Inactive)
REMARK    1  A    between atoms: C_5  and  N_1 
REMARK    2  A    between atoms: C_7  and  C_5 
REMARK    3  A    between atoms: O_10  and  C_8 
REMARK    4  A    between atoms: C_14  and  O_10 
ROOT
ATOM      1  C   UNL d   1     -56.693 -99.030 -44.641  0.00  0.00     0.087 C 
ENDROOT
BRANCH   1   2
ATOM      2  N   UNL d   1     -57.442 -98.940 -44.321  0.00  0.00    -0.251 N 
ATOM      3  C   UNL d   1     -57.665 -98.864 -43.521  0.00  0.00     0.378 A 
ATOM      4  O   UNL d   1     -58.493 -98.787 -43.488  0.00  0.00    -0.258 OA
ATOM      5  O   UNL d   1     -57.151 -98.867 -42.875  0.00  0.00    -0.237 OA
ATOM      6  C   UNL d   1     -58.784 -98.813 -44.260  0.00  0.00     0.121 A 
ATOM      7  C   UNL d   1     -58.140 -98.908 -44.773  0.00  0.00     0.092 A 
ATOM      8  C   UNL d   1     -59.554 -98.765 -44.577  0.00  0.00     0.026 A 
ATOM      9  C   UNL d   1     -58.263 -98.953 -45.594  0.00  0.00     0.020 A 
ATOM     10  C   UNL d   1     -59.026 -98.904 -45.899  0.00  0.00     0.002 A 
ATOM     11  C   UNL d   1     -59.673 -98.810 -45.390  0.00  0.00     0.002 A 
ENDBRANCH   1   2
BRANCH   1  12
ATOM     12  C   UNL d   1     -56.036 -99.105 -44.153  0.00  0.00     0.041 A 
ATOM     13  C   UNL d   1     -55.373 -99.511 -44.410  0.00  0.00     0.101 A 
ATOM     14  C   UNL d   1     -54.717 -99.585 -43.922  0.00  0.00     0.025 A 
ATOM     15  C   UNL d   1     -54.728 -99.246 -43.167  0.00  0.00     0.002 A 
ATOM     16  C   UNL d   1     -55.393 -98.835 -42.903  0.00  0.00     0.000 A 
ATOM     17  C   UNL d   1     -56.049 -98.763 -43.396  0.00  0.00     0.004 A 
BRANCH  13  18
ATOM     18  O   UNL d   1     -55.363 -99.850 -45.164  0.00  0.00    -0.307 OA
BRANCH  18  19
ATOM     19  C   UNL d   1     -55.323-100.673 -45.247  0.00  0.00     0.100 C 
ATOM     20  C   UNL d   1     -55.014-101.133 -44.641  0.00  0.00     0.027 C 
ATOM     21  C   UNL d   1     -55.593-101.028 -45.940  0.00  0.00     0.027 C 
ENDBRANCH  18  19
ENDBRANCH  13  18
ENDBRANCH   1  12
TORSDOF 4
ENDMDL
