MODEL 1
REMARK VINA RESULT:      -1.1      0.000      0.000
REMARK  5 active torsions:
REMARK  status: ('A' for Active; 'I' for Inactive)
REMARK       I    between atoms: N_4  and  C_1 
REMARK       I    between atoms: N_8  and  C_1 
REMARK    1  A    between atoms: C_2  and  C_3 
REMARK    2  A    between atoms: C_5  and  C_2 
REMARK    3  A    between atoms: N_6  and  C_2 
REMARK    4  A    between atoms: C_3  and  N_4 
REMARK    5  A    between atoms: C_12  and  N_8 
ROOT
ATOM      1  C   UNL d   1      58.283  -0.210  29.305  0.00  0.00     0.103 C 
ATOM      2  C   UNL d   1      57.987   0.010  28.577  0.00  0.00     0.022 C 
ENDROOT
BRANCH   1   3
ATOM      3  C   UNL d   1      58.994  -0.620  29.361  0.00  0.00     0.088 C 
BRANCH   3   4
ATOM      4  C   UNL d   1      59.001  -1.438  29.299  0.00  0.00     0.047 A 
ATOM      5  S   UNL d   1      59.063  -1.876  28.604  0.00  0.00    -0.085 SA
ATOM      6  C   UNL d   1      59.048  -2.678  28.802  0.00  0.00     0.035 A 
ATOM      7  C   UNL d   1      58.976  -2.743  29.623  0.00  0.00     0.007 A 
ATOM      8  C   UNL d   1      58.948  -1.976  29.928  0.00  0.00     0.009 A 
ENDBRANCH   3   4
BRANCH   3   9
ATOM      9  N   UNL d   1      59.704  -0.207  29.479  0.00  0.00    -0.299 N 
ATOM     10  C   UNL d   1      60.007   0.272  28.885  0.00  0.00     0.107 A 
ATOM     11  C   UNL d   1      60.711   0.682  29.001  0.00  0.00     0.142 A 
ATOM     12  O   UNL d   1      61.125   0.617  29.719  0.00  0.00    -0.300 OA
ATOM     13  C   UNL d   1      60.814   0.131  30.317  0.00  0.00     0.142 A 
ATOM     14  C   UNL d   1      60.107  -0.281  30.200  0.00  0.00     0.107 A 
ENDBRANCH   3   9
ENDBRANCH   1   3
BRANCH   1  15
ATOM     15  N   UNL d   1      57.863  -0.019  29.996  0.00  0.00    -0.190 NA
ATOM     16  C   UNL d   1      57.172   0.425  29.943  0.00  0.00     0.369 C 
ATOM     17  N   UNL d   1      56.756   0.614  30.633  0.00  0.00    -0.191 NA
ATOM     18  O   UNL d   1      56.895   0.680  29.215  0.00  0.00    -0.242 OA
BRANCH  17  19
ATOM     19  C   UNL d   1      57.033   0.360  31.367  0.00  0.00     0.086 A 
ATOM     20  C   UNL d   1      56.614  -0.213  31.785  0.00  0.00     0.019 A 
ATOM     21  C   UNL d   1      56.885  -0.466  32.512  0.00  0.00     0.002 A 
ATOM     22  C   UNL d   1      56.468  -1.043  32.937  0.00  0.00     0.000 C 
ATOM     23  C   UNL d   1      57.584  -0.147  32.834  0.00  0.00     0.000 A 
ATOM     24  C   UNL d   1      58.001   0.426  32.414  0.00  0.00     0.002 A 
ATOM     25  C   UNL d   1      57.723   0.681  31.675  0.00  0.00     0.019 A 
ENDBRANCH  17  19
ENDBRANCH   1  15
TORSDOF 5
ENDMDL
