MODEL 1
REMARK VINA RESULT:      16.8      0.000      0.000
REMARK  2 active torsions:
REMARK  status: ('A' for Active; 'I' for Inactive)
REMARK    1  A    between atoms: C_6  and  N_2 
REMARK    2  A    between atoms: C_4  and  C_6 
ROOT
ATOM      1  C   UNL d   1      60.621  49.431  50.507  0.00  0.00     0.206 A 
ATOM      2  N   UNL d   1      59.837  49.567  50.713  0.00  0.00    -0.277 N 
ATOM      3  N   UNL d   1      61.064  49.396  51.207  0.00  0.00    -0.215 NA
ATOM      4  C   UNL d   1      60.543  49.511  51.842  0.00  0.00     0.120 A 
ATOM      5  C   UNL d   1      59.784  49.617  51.536  0.00  0.00     0.103 A 
ATOM      6  S   UNL d   1      60.918  49.346  49.742  0.00  0.00    -0.038 SA
ENDROOT
BRANCH   2   7
ATOM      7  C   UNL d   1      59.204  49.641  50.185  0.00  0.00     0.107 C 
BRANCH   7   8
ATOM      8  C   UNL d   1      58.429  49.660  50.470  0.00  0.00     0.118 A 
ATOM      9  O   UNL d   1      58.202  49.686  51.267  0.00  0.00    -0.304 OA
ATOM     10  C   UNL d   1      57.382  49.698  51.296  0.00  0.00     0.123 A 
ATOM     11  C   UNL d   1      57.097  49.680  50.522  0.00  0.00     0.029 A 
ATOM     12  C   UNL d   1      57.745  49.656  50.014  0.00  0.00     0.028 A 
ENDBRANCH   7   8
ENDBRANCH   2   7
TORSDOF 2
ENDMDL
