MODEL 1
REMARK VINA RESULT:      -2.2      0.000      0.000
REMARK  5 active torsions:
REMARK  status: ('A' for Active; 'I' for Inactive)
REMARK    1  A    between atoms: O_6  and  C_1 
REMARK    2  A    between atoms: C_2  and  C_4 
REMARK    3  A    between atoms: O_7  and  C_3 
REMARK    4  A    between atoms: C_8  and  O_6 
REMARK    5  A    between atoms: C_9  and  O_7 
ROOT
ATOM      1  C   UNL d   1      31.657  16.336 -23.741  0.00  0.00     0.126 A 
ATOM      2  C   UNL d   1      30.871  16.353 -23.990  0.00  0.00     0.126 A 
ATOM      3  C   UNL d   1      31.784  17.727 -24.064  0.00  0.00     0.067 A 
ATOM      4  C   UNL d   1      32.114  17.021 -23.778  0.00  0.00     0.033 A 
ATOM      5  C   UNL d   1      30.541  17.059 -24.276  0.00  0.00     0.027 A 
ATOM      6  C   UNL d   1      31.000  17.739 -24.310  0.00  0.00     0.008 A 
ENDROOT
BRANCH   1   7
ATOM      7  O   UNL d   1      31.985  15.634 -23.457  0.00  0.00    -0.271 OA
BRANCH   7   8
ATOM      8  C   UNL d   1      32.799  15.514 -23.495  0.00  0.00     0.300 C 
ATOM      9  O   UNL d   1      33.181  15.453 -24.241  0.00  0.00    -0.259 OA
ATOM     10  C   UNL d   1      33.239  15.454 -22.800  0.00  0.00     0.074 C 
ENDBRANCH   7   8
ENDBRANCH   1   7
BRANCH   2  11
ATOM     11  O   UNL d   1      30.404  15.652 -23.952  0.00  0.00    -0.271 OA
BRANCH  11  12
ATOM     12  C   UNL d   1      29.587  15.698 -24.018  0.00  0.00     0.300 C 
ATOM     13  O   UNL d   1      29.129  15.902 -23.361  0.00  0.00    -0.259 OA
ATOM     14  C   UNL d   1      29.224  15.538 -24.746  0.00  0.00     0.074 C 
ENDBRANCH  11  12
ENDBRANCH   2  11
BRANCH   3  15
ATOM     15  C   UNL d   1      32.243  18.433 -24.105  0.00  0.00     0.211 C 
ATOM     16  O   UNL d   1      32.381  18.776 -24.843  0.00  0.00    -0.644 OA
ATOM     17  O   UNL d   1      32.549  18.775 -23.407  0.00  0.00    -0.644 OA
ENDBRANCH   3  15
TORSDOF 5
ENDMDL
MODEL 2
REMARK VINA RESULT:      -2.1      0.991      2.418
REMARK  5 active torsions:
REMARK  status: ('A' for Active; 'I' for Inactive)
REMARK    1  A    between atoms: O_6  and  C_1 
REMARK    2  A    between atoms: C_2  and  C_4 
REMARK    3  A    between atoms: O_7  and  C_3 
REMARK    4  A    between atoms: C_8  and  O_6 
REMARK    5  A    between atoms: C_9  and  O_7 
ROOT
ATOM      1  C   UNL d   1      31.359  17.364 -24.285  0.00  0.00     0.126 A 
ATOM      2  C   UNL d   1      30.643  16.957 -24.262  0.00  0.00     0.126 A 
ATOM      3  C   UNL d   1      32.044  16.170 -23.882  0.00  0.00     0.067 A 
ATOM      4  C   UNL d   1      32.060  16.972 -24.095  0.00  0.00     0.033 A 
ATOM      5  C   UNL d   1      30.627  16.154 -24.049  0.00  0.00     0.027 A 
ATOM      6  C   UNL d   1      31.327  15.768 -23.861  0.00  0.00     0.008 A 
ENDROOT
BRANCH   1   7
ATOM      7  O   UNL d   1      31.375  18.161 -24.496  0.00  0.00    -0.271 OA
BRANCH   7   8
ATOM      8  C   UNL d   1      32.073  18.594 -24.423  0.00  0.00     0.300 C 
ATOM      9  O   UNL d   1      32.338  18.840 -23.665  0.00  0.00    -0.259 OA
ATOM     10  C   UNL d   1      32.510  18.784 -25.096  0.00  0.00     0.074 C 
ENDBRANCH   7   8
ENDBRANCH   1   7
BRANCH   2  11
ATOM     11  O   UNL d   1      29.928  17.357 -24.456  0.00  0.00    -0.271 OA
BRANCH  11  12
ATOM     12  C   UNL d   1      29.218  16.945 -24.479  0.00  0.00     0.300 C 
ATOM     13  O   UNL d   1      29.067  16.413 -25.092  0.00  0.00    -0.259 OA
ATOM     14  C   UNL d   1      28.654  17.065 -23.882  0.00  0.00     0.074 C 
ENDBRANCH  11  12
ENDBRANCH   2  11
BRANCH   3  15
ATOM     15  C   UNL d   1      32.755  15.761 -23.687  0.00  0.00     0.211 C 
ATOM     16  O   UNL d   1      33.233  15.479 -24.298  0.00  0.00    -0.644 OA
ATOM     17  O   UNL d   1      32.966  15.645 -22.887  0.00  0.00    -0.644 OA
ENDBRANCH   3  15
TORSDOF 5
ENDMDL
MODEL 3
REMARK VINA RESULT:      -1.7      0.869      2.903
REMARK  5 active torsions:
REMARK  status: ('A' for Active; 'I' for Inactive)
REMARK    1  A    between atoms: O_6  and  C_1 
REMARK    2  A    between atoms: C_2  and  C_4 
REMARK    3  A    between atoms: O_7  and  C_3 
REMARK    4  A    between atoms: C_8  and  O_6 
REMARK    5  A    between atoms: C_9  and  O_7 
ROOT
ATOM      1  C   UNL d   1      32.144  17.043 -23.936  0.00  0.00     0.126 A 
ATOM      2  C   UNL d   1      32.225  17.781 -24.291  0.00  0.00     0.126 A 
ATOM      3  C   UNL d   1      30.764  17.014 -24.323  0.00  0.00     0.067 A 
ATOM      4  C   UNL d   1      31.415  16.657 -23.951  0.00  0.00     0.033 A 
ATOM      5  C   UNL d   1      31.575  18.138 -24.664  0.00  0.00     0.027 A 
ATOM      6  C   UNL d   1      30.850  17.751 -24.676  0.00  0.00     0.008 A 
ENDROOT
BRANCH   1   7
ATOM      7  O   UNL d   1      32.791  16.688 -23.566  0.00  0.00    -0.271 OA
BRANCH   7   8
ATOM      8  C   UNL d   1      32.846  15.867 -23.528  0.00  0.00     0.300 C 
ATOM      9  O   UNL d   1      32.512  15.453 -22.878  0.00  0.00    -0.259 OA
ATOM     10  C   UNL d   1      33.230  15.453 -24.129  0.00  0.00     0.074 C 
ENDBRANCH   7   8
ENDBRANCH   1   7
BRANCH   2  11
ATOM     11  O   UNL d   1      32.971  18.174 -24.276  0.00  0.00    -0.271 OA
BRANCH  11  12
ATOM     12  C   UNL d   1      33.004  18.995 -24.263  0.00  0.00     0.300 C 
ATOM     13  O   UNL d   1      32.817  19.406 -23.572  0.00  0.00    -0.259 OA
ATOM     14  C   UNL d   1      33.227  19.407 -24.947  0.00  0.00     0.074 C 
ENDBRANCH  11  12
ENDBRANCH   2  11
BRANCH   3  15
ATOM     15  C   UNL d   1      30.014  16.629 -24.344  0.00  0.00     0.211 C 
ATOM     16  O   UNL d   1      29.722  16.364 -25.069  0.00  0.00    -0.644 OA
ATOM     17  O   UNL d   1      29.579  16.521 -23.639  0.00  0.00    -0.644 OA
ENDBRANCH   3  15
TORSDOF 5
ENDMDL
MODEL 4
REMARK VINA RESULT:      -0.4      4.655      6.593
REMARK  5 active torsions:
REMARK  status: ('A' for Active; 'I' for Inactive)
REMARK    1  A    between atoms: O_6  and  C_1 
REMARK    2  A    between atoms: C_2  and  C_4 
REMARK    3  A    between atoms: O_7  and  C_3 
REMARK    4  A    between atoms: C_8  and  O_6 
REMARK    5  A    between atoms: C_9  and  O_7 
ROOT
ATOM      1  C   UNL d   1      33.201  21.873 -21.796  0.00  0.00     0.126 A 
ATOM      2  C   UNL d   1      33.211  22.582 -21.377  0.00  0.00     0.126 A 
ATOM      3  C   UNL d   1      33.226  22.605 -23.028  0.00  0.00     0.067 A 
ATOM      4  C   UNL d   1      33.208  21.882 -22.621  0.00  0.00     0.033 A 
ATOM      5  C   UNL d   1      33.228  23.305 -21.784  0.00  0.00     0.027 A 
ATOM      6  C   UNL d   1      33.236  23.311 -22.606  0.00  0.00     0.008 A 
ENDROOT
BRANCH   1   7
ATOM      7  O   UNL d   1      33.184  21.154 -21.391  0.00  0.00    -0.271 OA
BRANCH   7   8
ATOM      8  C   UNL d   1      32.632  20.578 -21.597  0.00  0.00     0.300 C 
ATOM      9  O   UNL d   1      31.813  20.715 -21.471  0.00  0.00    -0.259 OA
ATOM     10  C   UNL d   1      32.885  19.865 -21.926  0.00  0.00     0.074 C 
ENDBRANCH   7   8
ENDBRANCH   1   7
BRANCH   2  11
ATOM     11  O   UNL d   1      33.203  22.571 -20.534  0.00  0.00    -0.271 OA
BRANCH  11  12
ATOM     12  C   UNL d   1      32.841  23.180 -20.118  0.00  0.00     0.300 C 
ATOM     13  O   UNL d   1      32.085  23.434 -20.330  0.00  0.00    -0.259 OA
ATOM     14  C   UNL d   1      33.240  23.536 -19.484  0.00  0.00     0.074 C 
ENDBRANCH  11  12
ENDBRANCH   2  11
BRANCH   3  15
ATOM     15  C   UNL d   1      33.233  22.627 -23.870  0.00  0.00     0.211 C 
ATOM     16  O   UNL d   1      33.234  23.360 -24.251  0.00  0.00    -0.644 OA
ATOM     17  O   UNL d   1      33.241  21.915 -24.308  0.00  0.00    -0.644 OA
ENDBRANCH   3  15
TORSDOF 5
ENDMDL
MODEL 5
REMARK VINA RESULT:      -0.3      3.988      5.928
REMARK  5 active torsions:
REMARK  status: ('A' for Active; 'I' for Inactive)
REMARK    1  A    between atoms: O_6  and  C_1 
REMARK    2  A    between atoms: C_2  and  C_4 
REMARK    3  A    between atoms: O_7  and  C_3 
REMARK    4  A    between atoms: C_8  and  O_6 
REMARK    5  A    between atoms: C_9  and  O_7 
ROOT
ATOM      1  C   UNL d   1      33.035  21.590 -22.158  0.00  0.00     0.126 A 
ATOM      2  C   UNL d   1      33.029  20.790 -21.963  0.00  0.00     0.126 A 
ATOM      3  C   UNL d   1      32.627  21.913 -20.822  0.00  0.00     0.067 A 
ATOM      4  C   UNL d   1      32.834  22.153 -21.589  0.00  0.00     0.033 A 
ATOM      5  C   UNL d   1      32.821  20.549 -21.196  0.00  0.00     0.027 A 
ATOM      6  C   UNL d   1      32.622  21.112 -20.632  0.00  0.00     0.008 A 
ENDROOT
BRANCH   1   7
ATOM      7  O   UNL d   1      33.241  21.829 -22.920  0.00  0.00    -0.271 OA
BRANCH   7   8
ATOM      8  C   UNL d   1      33.070  22.595 -23.173  0.00  0.00     0.300 C 
ATOM      9  O   UNL d   1      33.241  23.250 -22.677  0.00  0.00    -0.259 OA
ATOM     10  C   UNL d   1      32.731  22.716 -23.915  0.00  0.00     0.074 C 
ENDBRANCH   7   8
ENDBRANCH   1   7
BRANCH   2  11
ATOM     11  O   UNL d   1      33.234  20.216 -22.545  0.00  0.00    -0.271 OA
BRANCH  11  12
ATOM     12  C   UNL d   1      32.976  19.440 -22.467  0.00  0.00     0.300 C 
ATOM     13  O   UNL d   1      33.240  18.977 -21.836  0.00  0.00    -0.259 OA
ATOM     14  C   UNL d   1      32.450  19.124 -23.025  0.00  0.00     0.074 C 
ENDBRANCH  11  12
ENDBRANCH   2  11
BRANCH   3  15
ATOM     15  C   UNL d   1      32.420  22.479 -20.232  0.00  0.00     0.211 C 
ATOM     16  O   UNL d   1      33.018  22.938 -19.894  0.00  0.00    -0.644 OA
ATOM     17  O   UNL d   1      31.624  22.570 -19.999  0.00  0.00    -0.644 OA
ENDBRANCH   3  15
TORSDOF 5
ENDMDL
MODEL 6
REMARK VINA RESULT:      -0.2      1.011      3.004
REMARK  5 active torsions:
REMARK  status: ('A' for Active; 'I' for Inactive)
REMARK    1  A    between atoms: O_6  and  C_1 
REMARK    2  A    between atoms: C_2  and  C_4 
REMARK    3  A    between atoms: O_7  and  C_3 
REMARK    4  A    between atoms: C_8  and  O_6 
REMARK    5  A    between atoms: C_9  and  O_7 
ROOT
ATOM      1  C   UNL d   1      31.744  17.666 -24.375  0.00  0.00     0.126 A 
ATOM      2  C   UNL d   1      31.994  16.883 -24.328  0.00  0.00     0.126 A 
ATOM      3  C   UNL d   1      30.381  17.231 -24.272  0.00  0.00     0.067 A 
ATOM      4  C   UNL d   1      30.938  17.842 -24.347  0.00  0.00     0.033 A 
ATOM      5  C   UNL d   1      31.437  16.272 -24.253  0.00  0.00     0.027 A 
ATOM      6  C   UNL d   1      30.636  16.451 -24.226  0.00  0.00     0.008 A 
ENDROOT
BRANCH   1   7
ATOM      7  O   UNL d   1      32.297  18.273 -24.449  0.00  0.00    -0.271 OA
BRANCH   7   8
ATOM      8  C   UNL d   1      32.331  18.873 -23.885  0.00  0.00     0.300 C 
ATOM      9  O   UNL d   1      32.476  18.684 -23.079  0.00  0.00    -0.259 OA
ATOM     10  C   UNL d   1      32.222  19.658 -24.112  0.00  0.00     0.074 C 
ENDBRANCH   7   8
ENDBRANCH   1   7
BRANCH   2  11
ATOM     11  O   UNL d   1      32.817  16.704 -24.356  0.00  0.00    -0.271 OA
BRANCH  11  12
ATOM     12  C   UNL d   1      33.071  15.924 -24.309  0.00  0.00     0.300 C 
ATOM     13  O   UNL d   1      33.214  15.578 -23.573  0.00  0.00    -0.259 OA
ATOM     14  C   UNL d   1      33.183  15.487 -25.005  0.00  0.00     0.074 C 
ENDBRANCH  11  12
ENDBRANCH   2  11
BRANCH   3  15
ATOM     15  C   UNL d   1      29.556  17.400 -24.243  0.00  0.00     0.211 C 
ATOM     16  O   UNL d   1      29.107  17.089 -23.624  0.00  0.00    -0.644 OA
ATOM     17  O   UNL d   1      29.204  17.875 -24.834  0.00  0.00    -0.644 OA
ENDBRANCH   3  15
TORSDOF 5
ENDMDL
MODEL 7
REMARK VINA RESULT:      -0.1      1.486      2.728
REMARK  5 active torsions:
REMARK  status: ('A' for Active; 'I' for Inactive)
REMARK    1  A    between atoms: O_6  and  C_1 
REMARK    2  A    between atoms: C_2  and  C_4 
REMARK    3  A    between atoms: O_7  and  C_3 
REMARK    4  A    between atoms: C_8  and  O_6 
REMARK    5  A    between atoms: C_9  and  O_7 
ROOT
ATOM      1  C   UNL d   1      31.997  17.785 -24.065  0.00  0.00     0.126 A 
ATOM      2  C   UNL d   1      32.453  17.197 -23.711  0.00  0.00     0.126 A 
ATOM      3  C   UNL d   1      32.731  18.782 -23.341  0.00  0.00     0.067 A 
ATOM      4  C   UNL d   1      32.134  18.578 -23.881  0.00  0.00     0.033 A 
ATOM      5  C   UNL d   1      33.049  17.402 -23.171  0.00  0.00     0.027 A 
ATOM      6  C   UNL d   1      33.183  18.192 -22.990  0.00  0.00     0.008 A 
ENDROOT
BRANCH   1   7
ATOM      7  O   UNL d   1      31.405  17.582 -24.602  0.00  0.00    -0.271 OA
BRANCH   7   8
ATOM      8  C   UNL d   1      30.720  18.037 -24.652  0.00  0.00     0.300 C 
ATOM      9  O   UNL d   1      30.720  18.750 -25.097  0.00  0.00    -0.259 OA
ATOM     10  C   UNL d   1      30.034  17.792 -24.266  0.00  0.00     0.074 C 
ENDBRANCH   7   8
ENDBRANCH   1   7
BRANCH   2  11
ATOM     11  O   UNL d   1      32.312  16.388 -23.899  0.00  0.00    -0.271 OA
BRANCH  11  12
ATOM     12  C   UNL d   1      32.458  15.803 -23.340  0.00  0.00     0.300 C 
ATOM     13  O   UNL d   1      33.234  15.567 -23.181  0.00  0.00    -0.259 OA
ATOM     14  C   UNL d   1      31.824  15.453 -22.938  0.00  0.00     0.074 C 
ENDBRANCH  11  12
ENDBRANCH   2  11
BRANCH   3  15
ATOM     15  C   UNL d   1      32.879  19.589 -23.147  0.00  0.00     0.211 C 
ATOM     16  O   UNL d   1      33.239  20.075 -23.709  0.00  0.00    -0.644 OA
ATOM     17  O   UNL d   1      32.664  19.886 -22.396  0.00  0.00    -0.644 OA
ENDBRANCH   3  15
TORSDOF 5
ENDMDL
MODEL 8
REMARK VINA RESULT:       0.2      1.321      2.660
REMARK  5 active torsions:
REMARK  status: ('A' for Active; 'I' for Inactive)
REMARK    1  A    between atoms: O_6  and  C_1 
REMARK    2  A    between atoms: C_2  and  C_4 
REMARK    3  A    between atoms: O_7  and  C_3 
REMARK    4  A    between atoms: C_8  and  O_6 
REMARK    5  A    between atoms: C_9  and  O_7 
ROOT
ATOM      1  C   UNL d   1      30.070  16.620 -24.374  0.00  0.00     0.126 A 
ATOM      2  C   UNL d   1      29.550  16.149 -23.942  0.00  0.00     0.126 A 
ATOM      3  C   UNL d   1      31.175  16.032 -23.677  0.00  0.00     0.067 A 
ATOM      4  C   UNL d   1      30.882  16.563 -24.243  0.00  0.00     0.033 A 
ATOM      5  C   UNL d   1      29.843  15.618 -23.376  0.00  0.00     0.027 A 
ATOM      6  C   UNL d   1      30.653  15.564 -23.248  0.00  0.00     0.008 A 
ENDROOT
BRANCH   1   7
ATOM      7  O   UNL d   1      29.779  17.148 -24.937  0.00  0.00    -0.271 OA
BRANCH   7   8
ATOM      8  C   UNL d   1      29.962  17.950 -24.886  0.00  0.00     0.300 C 
ATOM      9  O   UNL d   1      30.729  18.221 -25.097  0.00  0.00    -0.259 OA
ATOM     10  C   UNL d   1      29.392  18.486 -24.626  0.00  0.00     0.074 C 
ENDBRANCH   7   8
ENDBRANCH   1   7
BRANCH   2  11
ATOM     11  O   UNL d   1      28.720  16.209 -24.077  0.00  0.00    -0.271 OA
BRANCH  11  12
ATOM     12  C   UNL d   1      28.195  15.797 -23.598  0.00  0.00     0.300 C 
ATOM     13  O   UNL d   1      28.339  15.727 -22.788  0.00  0.00    -0.259 OA
ATOM     14  C   UNL d   1      27.519  15.453 -23.933  0.00  0.00     0.074 C 
ENDBRANCH  11  12
ENDBRANCH   2  11
BRANCH   3  15
ATOM     15  C   UNL d   1      32.004  15.965 -23.535  0.00  0.00     0.211 C 
ATOM     16  O   UNL d   1      32.457  15.488 -24.034  0.00  0.00    -0.644 OA
ATOM     17  O   UNL d   1      32.354  16.377 -22.898  0.00  0.00    -0.644 OA
ENDBRANCH   3  15
TORSDOF 5
ENDMDL
