MODEL 1
REMARK VINA RESULT:      -8.2      0.000      0.000
REMARK  5 active torsions:
REMARK  status: ('A' for Active; 'I' for Inactive)
REMARK    1  A    between atoms: N_2  and  S_1 
REMARK    2  A    between atoms: C_5  and  S_1 
REMARK    3  A    between atoms: S_8  and  C_3 
REMARK    4  A    between atoms: C_18  and  S_8 
REMARK    5  A    between atoms: C_17  and  C_18 
ROOT
ATOM      1  N   UNL d   1      53.381  31.709  53.353  0.00  0.00    -0.208 N 
ATOM      2  C   UNL d   1      53.037  32.451  53.512  0.00  0.00     0.189 A 
ATOM      3  N   UNL d   1      53.502  32.836  54.081  0.00  0.00    -0.219 NA
ATOM      4  C   UNL d   1      54.063  31.637  53.828  0.00  0.00     0.114 A 
ATOM      5  C   UNL d   1      54.133  32.330  54.273  0.00  0.00     0.121 A 
ENDROOT
BRANCH   1   6
ATOM      6  S   UNL d   1      53.093  31.145  52.815  0.00  0.00     0.273 S 
ATOM      7  O   UNL d   1      52.797  30.786  52.128  0.00  0.00    -0.200 OA
ATOM      8  O   UNL d   1      53.035  31.751  52.265  0.00  0.00    -0.200 OA
BRANCH   6   9
ATOM      9  C   UNL d   1      53.144  30.520  53.357  0.00  0.00     0.104 A 
ATOM     10  C   UNL d   1      53.866  30.134  53.459  0.00  0.00     0.014 A 
ATOM     11  C   UNL d   1      53.907  29.512  54.002  0.00  0.00     0.012 A 
ATOM     12  C   UNL d   1      53.242  29.284  54.432  0.00  0.00     0.058 A 
ATOM     13  C   UNL d   1      52.523  29.673  54.326  0.00  0.00     0.012 A 
ATOM     14 CL   UNL d   1      53.293  28.660  54.974  0.00  0.00    -0.082 Cl
ATOM     15  C   UNL d   1      52.483  30.299  53.779  0.00  0.00     0.014 A 
ENDBRANCH   6   9
ENDBRANCH   1   6
BRANCH   2  16
ATOM     16  S   UNL d   1      52.345  32.754  53.158  0.00  0.00    -0.049 SA
BRANCH  16  17
ATOM     17  C   UNL d   1      52.117  33.535  53.304  0.00  0.00     0.038 C 
BRANCH  17  18
ATOM     18  C   UNL d   1      51.415  33.821  52.989  0.00  0.00     0.007 A 
ATOM     19  C   UNL d   1      51.358  34.009  52.185  0.00  0.00     0.013 A 
ATOM     20  C   UNL d   1      50.654  34.295  51.872  0.00  0.00     0.068 A 
ATOM     21 CL   UNL d   1      50.619  34.476  51.072  0.00  0.00    -0.082 Cl
ATOM     22  C   UNL d   1      50.001  34.395  52.365  0.00  0.00     0.068 A 
ATOM     23  C   UNL d   1      50.041  34.214  53.159  0.00  0.00     0.012 A 
ATOM     24 CL   UNL d   1      49.298  34.683  52.043  0.00  0.00    -0.082 Cl
ATOM     25  C   UNL d   1      50.755  33.924  53.477  0.00  0.00     0.001 A 
ENDBRANCH  17  18
ENDBRANCH  16  17
ENDBRANCH   2  16
TORSDOF 5
ENDMDL
MODEL 2
REMARK VINA RESULT:      -7.8      2.223      2.929
REMARK  5 active torsions:
REMARK  status: ('A' for Active; 'I' for Inactive)
REMARK    1  A    between atoms: N_2  and  S_1 
REMARK    2  A    between atoms: C_5  and  S_1 
REMARK    3  A    between atoms: S_8  and  C_3 
REMARK    4  A    between atoms: C_18  and  S_8 
REMARK    5  A    between atoms: C_17  and  C_18 
ROOT
ATOM      1  N   UNL d   1      52.587  33.489  53.026  0.00  0.00    -0.208 N 
ATOM      2  C   UNL d   1      51.769  33.354  52.941  0.00  0.00     0.189 A 
ATOM      3  N   UNL d   1      51.647  32.536  52.880  0.00  0.00    -0.219 NA
ATOM      4  C   UNL d   1      52.970  32.749  53.017  0.00  0.00     0.114 A 
ATOM      5  C   UNL d   1      52.390  32.167  52.927  0.00  0.00     0.121 A 
ENDROOT
BRANCH   1   6
ATOM      6  S   UNL d   1      52.951  34.232  53.105  0.00  0.00     0.273 S 
ATOM      7  O   UNL d   1      53.171  35.023  52.980  0.00  0.00    -0.200 OA
ATOM      8  O   UNL d   1      52.522  34.473  52.449  0.00  0.00    -0.200 OA
BRANCH   6   9
ATOM      9  C   UNL d   1      53.393  34.007  53.769  0.00  0.00     0.104 A 
ATOM     10  C   UNL d   1      53.130  34.225  54.520  0.00  0.00     0.014 A 
ATOM     11  C   UNL d   1      53.576  33.996  55.176  0.00  0.00     0.012 A 
ATOM     12  C   UNL d   1      54.270  33.560  55.082  0.00  0.00     0.058 A 
ATOM     13  C   UNL d   1      54.528  33.345  54.329  0.00  0.00     0.012 A 
ATOM     14 CL   UNL d   1      54.711  33.335  55.745  0.00  0.00    -0.082 Cl
ATOM     15  C   UNL d   1      54.077  33.576  53.670  0.00  0.00     0.014 A 
ENDBRANCH   6   9
ENDBRANCH   1   6
BRANCH   2  16
ATOM     16  S   UNL d   1      51.176  33.941  52.922  0.00  0.00    -0.049 SA
BRANCH  16  17
ATOM     17  C   UNL d   1      50.380  33.721  52.912  0.00  0.00     0.038 C 
BRANCH  17  18
ATOM     18  C   UNL d   1      49.805  34.277  52.728  0.00  0.00     0.007 A 
ATOM     19  C   UNL d   1      49.449  34.288  51.981  0.00  0.00     0.013 A 
ATOM     20  C   UNL d   1      48.874  34.846  51.800  0.00  0.00     0.068 A 
ATOM     21 CL   UNL d   1      48.534  34.840  51.053  0.00  0.00    -0.082 Cl
ATOM     22  C   UNL d   1      48.651  35.398  52.371  0.00  0.00     0.068 A 
ATOM     23  C   UNL d   1      48.991  35.401  53.111  0.00  0.00     0.012 A 
ATOM     24 CL   UNL d   1      48.072  35.956  52.181  0.00  0.00    -0.082 Cl
ATOM     25  C   UNL d   1      49.575  34.834  53.295  0.00  0.00     0.001 A 
ENDBRANCH  17  18
ENDBRANCH  16  17
ENDBRANCH   2  16
TORSDOF 5
ENDMDL
MODEL 3
REMARK VINA RESULT:      -7.2      1.859      4.677
REMARK  5 active torsions:
REMARK  status: ('A' for Active; 'I' for Inactive)
REMARK    1  A    between atoms: N_2  and  S_1 
REMARK    2  A    between atoms: C_5  and  S_1 
REMARK    3  A    between atoms: S_8  and  C_3 
REMARK    4  A    between atoms: C_18  and  S_8 
REMARK    5  A    between atoms: C_17  and  C_18 
ROOT
ATOM      1  N   UNL d   1      53.038  33.086  53.048  0.00  0.00    -0.208 N 
ATOM      2  C   UNL d   1      52.668  32.339  53.053  0.00  0.00     0.189 A 
ATOM      3  N   UNL d   1      51.916  32.421  52.714  0.00  0.00    -0.219 NA
ATOM      4  C   UNL d   1      52.509  33.631  52.703  0.00  0.00     0.114 A 
ATOM      5  C   UNL d   1      51.822  33.218  52.500  0.00  0.00     0.121 A 
ENDROOT
BRANCH   1   6
ATOM      6  S   UNL d   1      53.800  33.253  53.337  0.00  0.00     0.273 S 
ATOM      7  O   UNL d   1      54.618  33.225  53.472  0.00  0.00    -0.200 OA
ATOM      8  O   UNL d   1      54.073  32.636  52.870  0.00  0.00    -0.200 OA
BRANCH   6   9
ATOM      9  C   UNL d   1      53.542  33.880  53.814  0.00  0.00     0.104 A 
ATOM     10  C   UNL d   1      53.445  33.755  54.624  0.00  0.00     0.014 A 
ATOM     11  C   UNL d   1      53.187  34.385  55.091  0.00  0.00     0.012 A 
ATOM     12  C   UNL d   1      53.031  35.123  54.756  0.00  0.00     0.058 A 
ATOM     13  C   UNL d   1      53.129  35.241  53.946  0.00  0.00     0.012 A 
ATOM     14 CL   UNL d   1      52.773  35.748  55.232  0.00  0.00    -0.082 Cl
ATOM     15  C   UNL d   1      53.389  34.605  53.477  0.00  0.00     0.014 A 
ENDBRANCH   6   9
ENDBRANCH   1   6
BRANCH   2  16
ATOM     16  S   UNL d   1      52.999  31.633  53.349  0.00  0.00    -0.049 SA
BRANCH  16  17
ATOM     17  C   UNL d   1      52.570  30.927  53.302  0.00  0.00     0.038 C 
BRANCH  17  18
ATOM     18  C   UNL d   1      52.865  30.246  53.652  0.00  0.00     0.007 A 
ATOM     19  C   UNL d   1      52.833  30.144  54.473  0.00  0.00     0.013 A 
ATOM     20  C   UNL d   1      53.129  29.461  54.820  0.00  0.00     0.068 A 
ATOM     21 CL   UNL d   1      53.087  29.379  55.636  0.00  0.00    -0.082 Cl
ATOM     22  C   UNL d   1      53.461  28.875  54.345  0.00  0.00     0.068 A 
ATOM     23  C   UNL d   1      53.500  28.960  53.536  0.00  0.00     0.012 A 
ATOM     24 CL   UNL d   1      53.756  28.192  54.703  0.00  0.00    -0.082 Cl
ATOM     25  C   UNL d   1      53.200  29.653  53.183  0.00  0.00     0.001 A 
ENDBRANCH  17  18
ENDBRANCH  16  17
ENDBRANCH   2  16
TORSDOF 5
ENDMDL
MODEL 4
REMARK VINA RESULT:      -7.0      1.743      4.509
REMARK  5 active torsions:
REMARK  status: ('A' for Active; 'I' for Inactive)
REMARK    1  A    between atoms: N_2  and  S_1 
REMARK    2  A    between atoms: C_5  and  S_1 
REMARK    3  A    between atoms: S_8  and  C_3 
REMARK    4  A    between atoms: C_18  and  S_8 
REMARK    5  A    between atoms: C_17  and  C_18 
ROOT
ATOM      1  N   UNL d   1      54.239  33.313  54.249  0.00  0.00    -0.208 N 
ATOM      2  C   UNL d   1      54.373  32.597  53.843  0.00  0.00     0.189 A 
ATOM      3  N   UNL d   1      54.978  32.722  53.289  0.00  0.00    -0.219 NA
ATOM      4  C   UNL d   1      54.766  33.882  53.942  0.00  0.00     0.114 A 
ATOM      5  C   UNL d   1      55.217  33.515  53.354  0.00  0.00     0.121 A 
ENDROOT
BRANCH   1   6
ATOM      6  S   UNL d   1      53.680  33.432  54.851  0.00  0.00     0.273 S 
ATOM      7  O   UNL d   1      53.290  33.416  55.583  0.00  0.00    -0.200 OA
ATOM      8  O   UNL d   1      54.171  33.000  55.345  0.00  0.00    -0.200 OA
BRANCH   6   9
ATOM      9  C   UNL d   1      53.170  33.871  54.366  0.00  0.00     0.104 A 
ATOM     10  C   UNL d   1      53.338  34.666  54.222  0.00  0.00     0.014 A 
ATOM     11  C   UNL d   1      52.824  35.096  53.738  0.00  0.00     0.012 A 
ATOM     12  C   UNL d   1      52.159  34.737  53.407  0.00  0.00     0.058 A 
ATOM     13  C   UNL d   1      51.997  33.943  53.555  0.00  0.00     0.012 A 
ATOM     14 CL   UNL d   1      51.650  35.175  52.923  0.00  0.00    -0.082 Cl
ATOM     15  C   UNL d   1      52.515  33.512  54.042  0.00  0.00     0.014 A 
ENDBRANCH   6   9
ENDBRANCH   1   6
BRANCH   2  16
ATOM     16  S   UNL d   1      53.968  31.879  53.972  0.00  0.00    -0.049 SA
BRANCH  16  17
ATOM     17  C   UNL d   1      54.156  31.214  53.519  0.00  0.00     0.038 C 
BRANCH  17  18
ATOM     18  C   UNL d   1      53.665  30.556  53.537  0.00  0.00     0.007 A 
ATOM     19  C   UNL d   1      53.744  29.985  54.131  0.00  0.00     0.013 A 
ATOM     20  C   UNL d   1      53.252  29.328  54.147  0.00  0.00     0.068 A 
ATOM     21 CL   UNL d   1      53.347  28.773  54.745  0.00  0.00    -0.082 Cl
ATOM     22  C   UNL d   1      52.675  29.239  53.565  0.00  0.00     0.068 A 
ATOM     23  C   UNL d   1      52.584  29.791  52.973  0.00  0.00     0.012 A 
ATOM     24 CL   UNL d   1      52.184  28.576  53.588  0.00  0.00    -0.082 Cl
ATOM     25  C   UNL d   1      53.084  30.459  52.957  0.00  0.00     0.001 A 
ENDBRANCH  17  18
ENDBRANCH  16  17
ENDBRANCH   2  16
TORSDOF 5
ENDMDL
MODEL 5
REMARK VINA RESULT:      -6.5      1.475      4.744
REMARK  5 active torsions:
REMARK  status: ('A' for Active; 'I' for Inactive)
REMARK    1  A    between atoms: N_2  and  S_1 
REMARK    2  A    between atoms: C_5  and  S_1 
REMARK    3  A    between atoms: S_8  and  C_3 
REMARK    4  A    between atoms: C_18  and  S_8 
REMARK    5  A    between atoms: C_17  and  C_18 
ROOT
ATOM      1  N   UNL d   1      51.629  34.037  53.128  0.00  0.00    -0.208 N 
ATOM      2  C   UNL d   1      52.300  33.562  52.988  0.00  0.00     0.189 A 
ATOM      3  N   UNL d   1      52.879  34.033  52.625  0.00  0.00    -0.219 NA
ATOM      4  C   UNL d   1      51.796  34.804  52.847  0.00  0.00     0.114 A 
ATOM      5  C   UNL d   1      52.564  34.797  52.540  0.00  0.00     0.121 A 
ENDROOT
BRANCH   1   6
ATOM      6  S   UNL d   1      50.921  33.784  53.483  0.00  0.00     0.273 S 
ATOM      7  O   UNL d   1      50.377  33.461  54.019  0.00  0.00    -0.200 OA
ATOM      8  O   UNL d   1      51.373  33.525  54.116  0.00  0.00    -0.200 OA
BRANCH   6   9
ATOM      9  C   UNL d   1      50.448  34.040  52.852  0.00  0.00     0.104 A 
ATOM     10  C   UNL d   1      50.000  34.727  52.939  0.00  0.00     0.014 A 
ATOM     11  C   UNL d   1      49.532  34.975  52.305  0.00  0.00     0.012 A 
ATOM     12  C   UNL d   1      49.513  34.544  51.601  0.00  0.00     0.058 A 
ATOM     13  C   UNL d   1      49.963  33.858  51.521  0.00  0.00     0.012 A 
ATOM     14 CL   UNL d   1      49.041  34.800  50.971  0.00  0.00    -0.082 Cl
ATOM     15  C   UNL d   1      50.434  33.611  52.160  0.00  0.00     0.014 A 
ENDBRANCH   6   9
ENDBRANCH   1   6
BRANCH   2  16
ATOM     16  S   UNL d   1      52.376  32.755  53.182  0.00  0.00    -0.049 SA
BRANCH  16  17
ATOM     17  C   UNL d   1      53.064  32.345  52.975  0.00  0.00     0.038 C 
BRANCH  17  18
ATOM     18  C   UNL d   1      53.176  31.576  53.238  0.00  0.00     0.007 A 
ATOM     19  C   UNL d   1      52.807  30.940  52.858  0.00  0.00     0.013 A 
ATOM     20  C   UNL d   1      52.920  30.172  53.124  0.00  0.00     0.068 A 
ATOM     21 CL   UNL d   1      52.545  29.555  52.732  0.00  0.00    -0.082 Cl
ATOM     22  C   UNL d   1      53.407  30.035  53.775  0.00  0.00     0.068 A 
ATOM     23  C   UNL d   1      53.778  30.649  54.161  0.00  0.00     0.012 A 
ATOM     24 CL   UNL d   1      53.516  29.260  54.036  0.00  0.00    -0.082 Cl
ATOM     25  C   UNL d   1      53.663  31.431  53.891  0.00  0.00     0.001 A 
ENDBRANCH  17  18
ENDBRANCH  16  17
ENDBRANCH   2  16
TORSDOF 5
ENDMDL
