MODEL 1
REMARK VINA RESULT:      -5.8      0.000      0.000
REMARK  7 active torsions:
REMARK  status: ('A' for Active; 'I' for Inactive)
REMARK    1  A    between atoms: C_7  and  C_1 
REMARK    2  A    between atoms: N_5  and  C_2 
REMARK       I    between atoms: C_8  and  N_5 
REMARK    3  A    between atoms: N_9  and  C_7 
REMARK    4  A    between atoms: C_11  and  C_7 
REMARK    5  A    between atoms: C_16  and  C_8 
REMARK    6  A    between atoms: C_21  and  N_10 
REMARK    7  A    between atoms: C_27  and  C_21 
ROOT
ATOM      1  C   UNL d   1     -39.140  14.815  18.913  0.00  0.00     0.042 A 
ATOM      2  C   UNL d   1     -39.550  14.645  19.614  0.00  0.00     0.115 A 
ATOM      3  C   UNL d   1     -38.525  15.307  19.095  0.00  0.00     0.009 A 
ATOM      4  S   UNL d   1     -39.181  15.036  20.217  0.00  0.00    -0.068 SA
ATOM      5  C   UNL d   1     -38.536  15.452  19.887  0.00  0.00     0.031 A 
ATOM      6  C   UNL d   1     -37.940  15.634  18.541  0.00  0.00     0.001 C 
ATOM      7  C   UNL d   1     -38.014  15.920  20.306  0.00  0.00     0.007 C 
ENDROOT
BRANCH   1   8
ATOM      8  C   UNL d   1     -39.381  14.498  18.196  0.00  0.00     0.084 C 
BRANCH   8   9
ATOM      9  N   UNL d   1     -40.007  14.858  17.806  0.00  0.00    -0.300 N 
ATOM     10  C   UNL d   1     -39.908  15.583  17.417  0.00  0.00     0.100 A 
ATOM     11  C   UNL d   1     -40.553  15.919  17.036  0.00  0.00     0.100 A 
ATOM     12  N   UNL d   1     -41.277  15.564  17.030  0.00  0.00    -0.297 N 
ATOM     13  C   UNL d   1     -41.377  14.838  17.419  0.00  0.00     0.100 A 
ATOM     14  C   UNL d   1     -40.750  14.478  17.809  0.00  0.00     0.100 A 
BRANCH  12  15
ATOM     15  C   UNL d   1     -41.928  15.922  16.635  0.00  0.00     0.126 C 
BRANCH  15  16
ATOM     16  C   UNL d   1     -42.073  15.778  15.833  0.00  0.00     0.253 C 
ATOM     17  O   UNL d   1     -42.785  15.458  15.596  0.00  0.00    -0.281 OA
ENDBRANCH  15  16
ENDBRANCH  12  15
ENDBRANCH   8   9
BRANCH   8  18
ATOM     18  C   UNL d   1     -39.003  13.835  17.874  0.00  0.00     0.098 A 
ATOM     19  N   UNL d   1     -38.600  13.900  17.172  0.00  0.00    -0.243 NA
ATOM     20  C   UNL d   1     -38.233  13.223  16.876  0.00  0.00     0.099 A 
ATOM     21  C   UNL d   1     -38.261  12.533  17.242  0.00  0.00     0.021 A 
ATOM     22  C   UNL d   1     -38.667  12.451  17.956  0.00  0.00     0.003 A 
ATOM     23  C   UNL d   1     -39.043  13.112  18.276  0.00  0.00     0.021 A 
ENDBRANCH   8  18
ENDBRANCH   1   8
BRANCH   2  24
ATOM     24  N   UNL d   1     -40.195  14.162  19.587  0.00  0.00    -0.201 NA
ATOM     25  C   UNL d   1     -40.542  13.939  20.307  0.00  0.00     0.280 C 
ATOM     26  O   UNL d   1     -41.192  13.452  20.307  0.00  0.00    -0.265 OA
BRANCH  25  27
ATOM     27  C   UNL d   1     -40.229  14.210  21.024  0.00  0.00     0.058 A 
ATOM     28  C   UNL d   1     -39.721  13.736  21.460  0.00  0.00     0.005 A 
ATOM     29  C   UNL d   1     -39.403  14.008  22.186  0.00  0.00     0.000 A 
ATOM     30  C   UNL d   1     -39.602  14.757  22.462  0.00  0.00     0.000 A 
ATOM     31  C   UNL d   1     -40.114  15.227  22.017  0.00  0.00     0.000 A 
ATOM     32  C   UNL d   1     -40.430  14.963  21.301  0.00  0.00     0.005 A 
ENDBRANCH  25  27
ENDBRANCH   2  24
TORSDOF 7
ENDMDL
MODEL 2
REMARK VINA RESULT:      -4.5      1.899      4.120
REMARK  7 active torsions:
REMARK  status: ('A' for Active; 'I' for Inactive)
REMARK    1  A    between atoms: C_7  and  C_1 
REMARK    2  A    between atoms: N_5  and  C_2 
REMARK       I    between atoms: C_8  and  N_5 
REMARK    3  A    between atoms: N_9  and  C_7 
REMARK    4  A    between atoms: C_11  and  C_7 
REMARK    5  A    between atoms: C_16  and  C_8 
REMARK    6  A    between atoms: C_21  and  N_10 
REMARK    7  A    between atoms: C_27  and  C_21 
ROOT
ATOM      1  C   UNL d   1     -40.102  14.786  19.617  0.00  0.00     0.042 A 
ATOM      2  C   UNL d   1     -39.593  14.348  19.130  0.00  0.00     0.115 A 
ATOM      3  C   UNL d   1     -40.479  15.334  19.157  0.00  0.00     0.009 A 
ATOM      4  S   UNL d   1     -39.664  14.633  18.377  0.00  0.00    -0.068 SA
ATOM      5  C   UNL d   1     -40.223  15.254  18.397  0.00  0.00     0.031 A 
ATOM      6  C   UNL d   1     -41.065  15.920  19.421  0.00  0.00     0.001 C 
ATOM      7  C   UNL d   1     -40.460  15.696  17.752  0.00  0.00     0.007 C 
ENDROOT
BRANCH   1   8
ATOM      8  C   UNL d   1     -40.158  14.630  20.420  0.00  0.00     0.084 C 
BRANCH   8   9
ATOM      9  N   UNL d   1     -40.794  14.182  20.682  0.00  0.00    -0.300 N 
ATOM     10  C   UNL d   1     -40.715  13.370  20.825  0.00  0.00     0.100 A 
ATOM     11  C   UNL d   1     -41.369  12.949  21.086  0.00  0.00     0.100 A 
ATOM     12  N   UNL d   1     -42.084  13.304  21.208  0.00  0.00    -0.297 N 
ATOM     13  C   UNL d   1     -42.163  14.116  21.065  0.00  0.00     0.100 A 
ATOM     14  C   UNL d   1     -41.526  14.564  20.803  0.00  0.00     0.100 A 
BRANCH  12  15
ATOM     15  C   UNL d   1     -42.745  12.857  21.476  0.00  0.00     0.126 C 
BRANCH  15  16
ATOM     16  C   UNL d   1     -43.509  13.016  21.200  0.00  0.00     0.253 C 
ATOM     17  O   UNL d   1     -44.157  12.838  21.663  0.00  0.00    -0.281 OA
ENDBRANCH  15  16
ENDBRANCH  12  15
ENDBRANCH   8   9
BRANCH   8  18
ATOM     18  C   UNL d   1     -39.589  14.914  20.951  0.00  0.00     0.098 A 
ATOM     19  N   UNL d   1     -39.294  15.665  20.863  0.00  0.00    -0.243 NA
ATOM     20  C   UNL d   1     -38.728  15.922  21.406  0.00  0.00     0.099 A 
ATOM     21  C   UNL d   1     -38.473  15.473  21.993  0.00  0.00     0.021 A 
ATOM     22  C   UNL d   1     -38.764  14.708  22.095  0.00  0.00     0.003 A 
ATOM     23  C   UNL d   1     -39.330  14.425  21.566  0.00  0.00     0.021 A 
ENDBRANCH   8  18
ENDBRANCH   1   8
BRANCH   2  24
ATOM     24  N   UNL d   1     -39.147  13.760  19.454  0.00  0.00    -0.201 NA
ATOM     25  C   UNL d   1     -38.624  13.352  18.956  0.00  0.00     0.280 C 
ATOM     26  O   UNL d   1     -38.163  12.755  19.258  0.00  0.00    -0.265 OA
BRANCH  25  27
ATOM     27  C   UNL d   1     -38.569  13.551  18.154  0.00  0.00     0.058 A 
ATOM     28  C   UNL d   1     -37.999  14.082  17.897  0.00  0.00     0.005 A 
ATOM     29  C   UNL d   1     -37.941  14.285  17.086  0.00  0.00     0.000 A 
ATOM     30  C   UNL d   1     -38.460  13.949  16.544  0.00  0.00     0.000 A 
ATOM     31  C   UNL d   1     -39.030  13.416  16.812  0.00  0.00     0.000 A 
ATOM     32  C   UNL d   1     -39.092  13.212  17.610  0.00  0.00     0.005 A 
ENDBRANCH  25  27
ENDBRANCH   2  24
TORSDOF 7
ENDMDL
