MODEL 1
REMARK VINA RESULT:      -4.7      0.000      0.000
REMARK  3 active torsions:
REMARK  status: ('A' for Active; 'I' for Inactive)
REMARK    1  A    between atoms: C_6  and  C_1 
REMARK    2  A    between atoms: C_7  and  C_6 
REMARK    3  A    between atoms: O_17  and  C_15 
ROOT
ATOM      1  C   UNL d   1      58.157  -0.761  29.968  0.00  0.00     0.141 A 
ATOM      2  C   UNL d   1      57.591  -0.113  30.988  0.00  0.00     0.064 A 
ATOM      3  C   UNL d   1      58.076  -0.025  30.330  0.00  0.00     0.220 A 
ATOM      4  C   UNL d   1      57.369  -0.906  31.037  0.00  0.00     0.105 A 
ATOM      5  O   UNL d   1      57.719  -1.314  30.403  0.00  0.00    -0.304 OA
ATOM      6  C   UNL d   1      56.881  -1.157  31.645  0.00  0.00     0.049 A 
ATOM      7  C   UNL d   1      57.323   0.429  31.550  0.00  0.00     0.007 A 
ATOM      8  O   UNL d   1      58.427   0.682  30.069  0.00  0.00    -0.284 OA
ATOM      9  C   UNL d   1      56.612  -0.617  32.207  0.00  0.00     0.096 A 
ATOM     10  C   UNL d   1      56.834   0.173  32.158  0.00  0.00     0.024 A 
ENDROOT
BRANCH   1  11
ATOM     11  C   UNL d   1      58.597  -0.927  29.289  0.00  0.00     0.053 C 
BRANCH  11  12
ATOM     12  C   UNL d   1      58.921  -1.681  29.169  0.00  0.00     0.102 A 
ATOM     13  O   UNL d   1      59.615  -1.976  29.501  0.00  0.00    -0.305 OA
ATOM     14  C   UNL d   1      59.723  -2.748  29.231  0.00  0.00     0.123 A 
ATOM     15  C   UNL d   1      59.094  -2.938  28.726  0.00  0.00     0.029 A 
ATOM     16  C   UNL d   1      58.594  -2.279  28.686  0.00  0.00     0.027 A 
ENDBRANCH  11  12
ENDBRANCH   1  11
BRANCH   9  17
ATOM     17  O   UNL d   1      56.121  -0.870  32.819  0.00  0.00    -0.328 OA
ATOM     18  C   UNL d   1      55.486  -0.405  33.059  0.00  0.00     0.181 C 
ENDBRANCH   9  17
TORSDOF 3
ENDMDL
MODEL 2
REMARK VINA RESULT:      -4.3      1.769      4.058
REMARK  3 active torsions:
REMARK  status: ('A' for Active; 'I' for Inactive)
REMARK    1  A    between atoms: C_6  and  C_1 
REMARK    2  A    between atoms: C_7  and  C_6 
REMARK    3  A    between atoms: O_17  and  C_15 
ROOT
ATOM      1  C   UNL d   1      57.428   0.666  32.221  0.00  0.00     0.141 A 
ATOM      2  C   UNL d   1      58.424   0.674  31.334  0.00  0.00     0.064 A 
ATOM      3  C   UNL d   1      58.248   0.674  32.136  0.00  0.00     0.220 A 
ATOM      4  C   UNL d   1      57.712   0.665  30.915  0.00  0.00     0.105 A 
ATOM      5  O   UNL d   1      57.088   0.660  31.465  0.00  0.00    -0.304 OA
ATOM      6  C   UNL d   1      57.718   0.663  30.097  0.00  0.00     0.049 A 
ATOM      7  C   UNL d   1      59.142   0.680  30.928  0.00  0.00     0.007 A 
ATOM      8  O   UNL d   1      58.797   0.682  32.759  0.00  0.00    -0.284 OA
ATOM      9  C   UNL d   1      58.436   0.669  29.690  0.00  0.00     0.096 A 
ATOM     10  C   UNL d   1      59.145   0.678  30.107  0.00  0.00     0.024 A 
ENDROOT
BRANCH   1  11
ATOM     11  C   UNL d   1      57.009   0.664  32.934  0.00  0.00     0.053 C 
BRANCH  11  12
ATOM     12  C   UNL d   1      56.380   0.137  33.051  0.00  0.00     0.102 A 
ATOM     13  O   UNL d   1      56.407  -0.684  32.986  0.00  0.00    -0.305 OA
ATOM     14  C   UNL d   1      55.655  -0.981  33.150  0.00  0.00     0.123 A 
ATOM     15  C   UNL d   1      55.153  -0.343  33.319  0.00  0.00     0.029 A 
ATOM     16  C   UNL d   1      55.599   0.351  33.259  0.00  0.00     0.027 A 
ENDBRANCH  11  12
ENDBRANCH   1  11
BRANCH   9  17
ATOM     17  O   UNL d   1      58.442   0.667  28.865  0.00  0.00    -0.328 OA
ATOM     18  C   UNL d   1      58.598  -0.029  28.455  0.00  0.00     0.181 C 
ENDBRANCH   9  17
TORSDOF 3
ENDMDL
MODEL 3
REMARK VINA RESULT:      -4.1      0.748      3.764
REMARK  3 active torsions:
REMARK  status: ('A' for Active; 'I' for Inactive)
REMARK    1  A    between atoms: C_6  and  C_1 
REMARK    2  A    between atoms: C_7  and  C_6 
REMARK    3  A    between atoms: O_17  and  C_15 
ROOT
ATOM      1  C   UNL d   1      57.850  -0.375  30.506  0.00  0.00     0.141 A 
ATOM      2  C   UNL d   1      58.798  -0.729  29.638  0.00  0.00     0.064 A 
ATOM      3  C   UNL d   1      58.491  -0.100  30.067  0.00  0.00     0.220 A 
ATOM      4  C   UNL d   1      58.349  -1.400  29.810  0.00  0.00     0.105 A 
ATOM      5  O   UNL d   1      57.756  -1.184  30.351  0.00  0.00    -0.304 OA
ATOM      6  C   UNL d   1      58.532  -2.116  29.457  0.00  0.00     0.049 A 
ATOM      7  C   UNL d   1      59.432  -0.779  29.111  0.00  0.00     0.007 A 
ATOM      8  O   UNL d   1      58.772   0.682  30.063  0.00  0.00    -0.284 OA
ATOM      9  C   UNL d   1      59.165  -2.167  28.931  0.00  0.00     0.096 A 
ATOM     10  C   UNL d   1      59.612  -1.499  28.760  0.00  0.00     0.024 A 
ENDROOT
BRANCH   1  11
ATOM     11  C   UNL d   1      57.377   0.072  31.016  0.00  0.00     0.053 C 
BRANCH  11  12
ATOM     12  C   UNL d   1      56.986  -0.288  31.653  0.00  0.00     0.102 A 
ATOM     13  O   UNL d   1      56.529  -0.972  31.626  0.00  0.00    -0.305 OA
ATOM     14  C   UNL d   1      56.248  -1.127  32.386  0.00  0.00     0.123 A 
ATOM     15  C   UNL d   1      56.531  -0.535  32.894  0.00  0.00     0.029 A 
ATOM     16  C   UNL d   1      56.989  -0.013  32.442  0.00  0.00     0.027 A 
ENDBRANCH  11  12
ENDBRANCH   1  11
BRANCH   9  17
ATOM     17  O   UNL d   1      59.348  -2.889  28.576  0.00  0.00    -0.328 OA
ATOM     18  C   UNL d   1      59.816  -3.437  28.973  0.00  0.00     0.181 C 
ENDBRANCH   9  17
TORSDOF 3
ENDMDL
MODEL 4
REMARK VINA RESULT:      -3.9      8.343      9.475
REMARK  3 active torsions:
REMARK  status: ('A' for Active; 'I' for Inactive)
REMARK    1  A    between atoms: C_6  and  C_1 
REMARK    2  A    between atoms: C_7  and  C_6 
REMARK    3  A    between atoms: O_17  and  C_15 
ROOT
ATOM      1  C   UNL d   1      59.798  -9.081  34.621  0.00  0.00     0.141 A 
ATOM      2  C   UNL d   1      59.851  -9.457  33.342  0.00  0.00     0.064 A 
ATOM      3  C   UNL d   1      60.305  -9.297  34.008  0.00  0.00     0.220 A 
ATOM      4  C   UNL d   1      59.057  -9.340  33.539  0.00  0.00     0.105 A 
ATOM      5  O   UNL d   1      59.020  -9.105  34.336  0.00  0.00    -0.304 OA
ATOM      6  C   UNL d   1      58.474  -9.460  32.978  0.00  0.00     0.049 A 
ATOM      7  C   UNL d   1      60.057  -9.695  32.579  0.00  0.00     0.007 A 
ATOM      8  O   UNL d   1      61.133  -9.344  34.060  0.00  0.00    -0.284 OA
ATOM      9  C   UNL d   1      58.679  -9.697  32.215  0.00  0.00     0.096 A 
ATOM     10  C   UNL d   1      59.469  -9.814  32.018  0.00  0.00     0.024 A 
ENDROOT
BRANCH   1  11
ATOM     11  C   UNL d   1      60.020  -8.874  35.389  0.00  0.00     0.053 C 
BRANCH  11  12
ATOM     12  C   UNL d   1      59.882  -8.108  35.677  0.00  0.00     0.102 A 
ATOM     13  O   UNL d   1      60.343  -7.440  35.537  0.00  0.00    -0.305 OA
ATOM     14  C   UNL d   1      59.999  -6.801  35.929  0.00  0.00     0.123 A 
ATOM     15  C   UNL d   1      59.318  -7.070  36.319  0.00  0.00     0.029 A 
ATOM     16  C   UNL d   1      59.243  -7.880  36.164  0.00  0.00     0.027 A 
ENDBRANCH  11  12
ENDBRANCH   1  11
BRANCH   9  17
ATOM     17  O   UNL d   1      58.091  -9.818  31.649  0.00  0.00    -0.328 OA
ATOM     18  C   UNL d   1      58.230  -9.626  30.861  0.00  0.00     0.181 C 
ENDBRANCH   9  17
TORSDOF 3
ENDMDL
MODEL 5
REMARK VINA RESULT:      -3.1      8.152      9.356
REMARK  3 active torsions:
REMARK  status: ('A' for Active; 'I' for Inactive)
REMARK    1  A    between atoms: C_6  and  C_1 
REMARK    2  A    between atoms: C_7  and  C_6 
REMARK    3  A    between atoms: O_17  and  C_15 
ROOT
ATOM      1  C   UNL d   1      59.835  -8.181  35.629  0.00  0.00     0.141 A 
ATOM      2  C   UNL d   1      59.964  -9.084  34.655  0.00  0.00     0.064 A 
ATOM      3  C   UNL d   1      60.269  -8.835  35.376  0.00  0.00     0.220 A 
ATOM      4  C   UNL d   1      59.337  -8.584  34.455  0.00  0.00     0.105 A 
ATOM      5  O   UNL d   1      59.253  -8.020  35.060  0.00  0.00    -0.304 OA
ATOM      6  C   UNL d   1      58.926  -8.703  33.758  0.00  0.00     0.049 A 
ATOM      7  C   UNL d   1      60.177  -9.702  34.152  0.00  0.00     0.007 A 
ATOM      8  O   UNL d   1      60.905  -9.178  35.785  0.00  0.00    -0.284 OA
ATOM      9  C   UNL d   1      59.138  -9.321  33.254  0.00  0.00     0.096 A 
ATOM     10  C   UNL d   1      59.762  -9.818  33.453  0.00  0.00     0.024 A 
ENDROOT
BRANCH   1  11
ATOM     11  C   UNL d   1      59.952  -7.755  36.326  0.00  0.00     0.053 C 
BRANCH  11  12
ATOM     12  C   UNL d   1      60.160  -6.952  36.301  0.00  0.00     0.102 A 
ATOM     13  O   UNL d   1      60.922  -6.640  36.330  0.00  0.00    -0.305 OA
ATOM     14  C   UNL d   1      60.867  -5.818  36.288  0.00  0.00     0.123 A 
ATOM     15  C   UNL d   1      60.066  -5.613  36.232  0.00  0.00     0.029 A 
ATOM     16  C   UNL d   1      59.625  -6.314  36.240  0.00  0.00     0.027 A 
ENDBRANCH  11  12
ENDBRANCH   1  11
BRANCH   9  17
ATOM     17  O   UNL d   1      58.723  -9.440  32.552  0.00  0.00    -0.328 OA
ATOM     18  C   UNL d   1      57.971  -9.774  32.567  0.00  0.00     0.181 C 
ENDBRANCH   9  17
TORSDOF 3
ENDMDL
