MODEL 1
REMARK VINA RESULT:      76.5      0.000      0.000
REMARK  11 active torsions:
REMARK  status: ('A' for Active; 'I' for Inactive)
REMARK    1  A    between atoms: C_14  and  C_3 
REMARK    2  A    between atoms: N_15  and  C_6 
REMARK    3  A    between atoms: N_12  and  C_19 
REMARK    4  A    between atoms: N_13  and  C_20 
REMARK    5  A    between atoms: N_16  and  C_14 
REMARK    6  A    between atoms: C_28  and  N_15 
REMARK    7  A    between atoms: C_23  and  N_16 
REMARK    8  A    between atoms: C_19  and  C_21 
REMARK    9  A    between atoms: C_20  and  C_22 
REMARK   10  A    between atoms: C_21  and  C_23 
REMARK   11  A    between atoms: C_22  and  C_28 
ROOT
ATOM      1  N   UNL d   1     -50.927  26.809  37.413  0.00  0.00    -0.258 N 
ATOM      2  C   UNL d   1     -50.802  26.702  36.595  0.00  0.00     0.270 A 
ATOM      3  C   UNL d   1     -50.206  27.103  36.213  0.00  0.00     0.111 A 
ATOM      4  N   UNL d   1     -49.838  27.732  37.427  0.00  0.00    -0.209 NA
ATOM      5  C   UNL d   1     -50.442  27.328  37.832  0.00  0.00     0.152 A 
ATOM      6  C   UNL d   1     -49.721  27.622  36.633  0.00  0.00     0.170 A 
ATOM      7  C   UNL d   1     -51.519  26.409  37.789  0.00  0.00     0.084 A 
ATOM      8  C   UNL d   1     -50.555  27.439  38.621  0.00  0.00     0.038 A 
ATOM      9  C   UNL d   1     -51.642  26.518  38.602  0.00  0.00     0.018 A 
ATOM     10  C   UNL d   1     -51.157  27.037  39.021  0.00  0.00     0.005 A 
ATOM     11  O   UNL d   1     -51.294  26.175  36.170  0.00  0.00    -0.266 OA
ATOM     12  C   UNL d   1     -52.244  26.113  38.994  0.00  0.00     0.002 C 
ENDROOT
BRANCH   3  13
ATOM     13  C   UNL d   1     -50.087  26.993  35.406  0.00  0.00     0.107 C 
BRANCH  13  14
ATOM     14  N   UNL d   1     -50.516  26.401  34.999  0.00  0.00    -0.242 NA
BRANCH  14  15
ATOM     15  C   UNL d   1     -50.701  26.503  34.203  0.00  0.00     0.101 C 
BRANCH  15  16
ATOM     16  C   UNL d   1     -50.774  25.849  33.714  0.00  0.00     0.040 C 
BRANCH  16  17
ATOM     17  C   UNL d   1     -51.498  25.697  33.310  0.00  0.00     0.082 C 
BRANCH  17  18
ATOM     18  N   UNL d   1     -51.845  24.956  33.345  0.00  0.00    -0.299 N 
ATOM     19  C   UNL d   1     -51.385  24.286  33.307  0.00  0.00     0.107 A 
ATOM     20  C   UNL d   1     -51.740  23.528  33.343  0.00  0.00     0.142 A 
ATOM     21  O   UNL d   1     -52.547  23.458  33.416  0.00  0.00    -0.300 OA
ATOM     22  C   UNL d   1     -53.024  24.149  33.456  0.00  0.00     0.142 A 
ATOM     23  C   UNL d   1     -52.674  24.895  33.420  0.00  0.00     0.107 A 
ENDBRANCH  17  18
ENDBRANCH  16  17
ENDBRANCH  15  16
ENDBRANCH  14  15
ENDBRANCH  13  14
ENDBRANCH   3  13
BRANCH   6  24
ATOM     24  N   UNL d   1     -49.123  28.023  36.238  0.00  0.00    -0.225 NA
BRANCH  24  25
ATOM     25  C   UNL d   1     -49.060  28.860  36.321  0.00  0.00     0.102 C 
BRANCH  25  26
ATOM     26  C   UNL d   1     -48.327  29.220  36.237  0.00  0.00     0.040 C 
BRANCH  26  27
ATOM     27  C   UNL d   1     -48.111  29.553  35.493  0.00  0.00     0.082 C 
BRANCH  27  28
ATOM     28  N   UNL d   1     -47.699  30.271  35.483  0.00  0.00    -0.299 N 
ATOM     29  C   UNL d   1     -47.982  30.887  35.003  0.00  0.00     0.107 A 
ATOM     30  C   UNL d   1     -47.597  31.610  34.972  0.00  0.00     0.142 A 
ATOM     31  O   UNL d   1     -46.914  31.714  35.433  0.00  0.00    -0.300 OA
ATOM     32  C   UNL d   1     -46.632  31.103  35.910  0.00  0.00     0.142 A 
ATOM     33  C   UNL d   1     -47.033  30.387  35.926  0.00  0.00     0.107 A 
ENDBRANCH  27  28
ENDBRANCH  26  27
ENDBRANCH  25  26
ENDBRANCH  24  25
ENDBRANCH   6  24
TORSDOF 11
ENDMDL
MODEL 2
REMARK VINA RESULT:      76.5      1.221      4.500
REMARK  11 active torsions:
REMARK  status: ('A' for Active; 'I' for Inactive)
REMARK    1  A    between atoms: C_14  and  C_3 
REMARK    2  A    between atoms: N_15  and  C_6 
REMARK    3  A    between atoms: N_12  and  C_19 
REMARK    4  A    between atoms: N_13  and  C_20 
REMARK    5  A    between atoms: N_16  and  C_14 
REMARK    6  A    between atoms: C_28  and  N_15 
REMARK    7  A    between atoms: C_23  and  N_16 
REMARK    8  A    between atoms: C_19  and  C_21 
REMARK    9  A    between atoms: C_20  and  C_22 
REMARK   10  A    between atoms: C_21  and  C_23 
REMARK   11  A    between atoms: C_22  and  C_28 
ROOT
ATOM      1  N   UNL d   1     -48.080  29.046  35.358  0.00  0.00    -0.258 N 
ATOM      2  C   UNL d   1     -48.492  28.478  34.907  0.00  0.00     0.270 A 
ATOM      3  C   UNL d   1     -49.009  27.963  35.266  0.00  0.00     0.111 A 
ATOM      4  N   UNL d   1     -48.733  28.548  36.526  0.00  0.00    -0.209 NA
ATOM      5  C   UNL d   1     -48.202  29.081  36.173  0.00  0.00     0.152 A 
ATOM      6  C   UNL d   1     -49.131  27.998  36.082  0.00  0.00     0.170 A 
ATOM      7  C   UNL d   1     -47.568  29.556  34.999  0.00  0.00     0.084 A 
ATOM      8  C   UNL d   1     -47.809  29.626  36.617  0.00  0.00     0.038 A 
ATOM      9  C   UNL d   1     -47.160  30.121  35.449  0.00  0.00     0.018 A 
ATOM     10  C   UNL d   1     -47.281  30.156  36.264  0.00  0.00     0.005 A 
ATOM     11  O   UNL d   1     -48.369  28.442  34.080  0.00  0.00    -0.266 OA
ATOM     12  C   UNL d   1     -46.635  30.645  35.091  0.00  0.00     0.002 C 
ENDROOT
BRANCH   3  13
ATOM     13  C   UNL d   1     -49.413  27.403  34.816  0.00  0.00     0.107 C 
BRANCH  13  14
ATOM     14  N   UNL d   1     -49.820  27.642  34.125  0.00  0.00    -0.242 NA
BRANCH  14  15
ATOM     15  C   UNL d   1     -49.800  27.165  33.453  0.00  0.00     0.101 C 
BRANCH  15  16
ATOM     16  C   UNL d   1     -50.412  26.640  33.307  0.00  0.00     0.040 C 
BRANCH  16  17
ATOM     17  C   UNL d   1     -50.308  25.815  33.443  0.00  0.00     0.082 C 
BRANCH  17  18
ATOM     18  N   UNL d   1     -50.952  25.309  33.432  0.00  0.00    -0.299 N 
ATOM     19  C   UNL d   1     -51.705  25.601  33.532  0.00  0.00     0.107 A 
ATOM     20  C   UNL d   1     -52.363  25.083  33.521  0.00  0.00     0.142 A 
ATOM     21  O   UNL d   1     -52.253  24.285  33.410  0.00  0.00    -0.300 OA
ATOM     22  C   UNL d   1     -51.477  23.981  33.307  0.00  0.00     0.142 A 
ATOM     23  C   UNL d   1     -50.828  24.491  33.318  0.00  0.00     0.107 A 
ENDBRANCH  17  18
ENDBRANCH  16  17
ENDBRANCH  15  16
ENDBRANCH  14  15
ENDBRANCH  13  14
ENDBRANCH   3  13
BRANCH   6  24
ATOM     24  N   UNL d   1     -49.654  27.473  36.435  0.00  0.00    -0.225 NA
BRANCH  24  25
ATOM     25  C   UNL d   1     -50.073  27.709  37.128  0.00  0.00     0.102 C 
BRANCH  25  26
ATOM     26  C   UNL d   1     -50.473  27.144  37.570  0.00  0.00     0.040 C 
BRANCH  26  27
ATOM     27  C   UNL d   1     -51.291  27.004  37.422  0.00  0.00     0.082 C 
BRANCH  27  28
ATOM     28  N   UNL d   1     -51.680  26.420  37.862  0.00  0.00    -0.299 N 
ATOM     29  C   UNL d   1     -51.402  25.639  37.820  0.00  0.00     0.107 A 
ATOM     30  C   UNL d   1     -51.765  25.038  38.244  0.00  0.00     0.142 A 
ATOM     31  O   UNL d   1     -52.421  25.228  38.717  0.00  0.00    -0.300 OA
ATOM     32  C   UNL d   1     -52.697  26.004  38.758  0.00  0.00     0.142 A 
ATOM     33  C   UNL d   1     -52.318  26.590  38.326  0.00  0.00     0.107 A 
ENDBRANCH  27  28
ENDBRANCH  26  27
ENDBRANCH  25  26
ENDBRANCH  24  25
ENDBRANCH   6  24
TORSDOF 11
ENDMDL
MODEL 3
REMARK VINA RESULT:      78.6      1.313      5.150
REMARK  11 active torsions:
REMARK  status: ('A' for Active; 'I' for Inactive)
REMARK    1  A    between atoms: C_14  and  C_3 
REMARK    2  A    between atoms: N_15  and  C_6 
REMARK    3  A    between atoms: N_12  and  C_19 
REMARK    4  A    between atoms: N_13  and  C_20 
REMARK    5  A    between atoms: N_16  and  C_14 
REMARK    6  A    between atoms: C_28  and  N_15 
REMARK    7  A    between atoms: C_23  and  N_16 
REMARK    8  A    between atoms: C_19  and  C_21 
REMARK    9  A    between atoms: C_20  and  C_22 
REMARK   10  A    between atoms: C_21  and  C_23 
REMARK   11  A    between atoms: C_22  and  C_28 
ROOT
ATOM      1  N   UNL d   1     -48.070  29.262  36.266  0.00  0.00    -0.258 N 
ATOM      2  C   UNL d   1     -48.467  28.776  36.815  0.00  0.00     0.270 A 
ATOM      3  C   UNL d   1     -48.895  28.133  36.561  0.00  0.00     0.111 A 
ATOM      4  N   UNL d   1     -48.557  28.424  35.218  0.00  0.00    -0.209 NA
ATOM      5  C   UNL d   1     -48.115  29.085  35.461  0.00  0.00     0.152 A 
ATOM      6  C   UNL d   1     -48.941  27.955  35.757  0.00  0.00     0.170 A 
ATOM      7  C   UNL d   1     -47.646  29.900  36.521  0.00  0.00     0.084 A 
ATOM      8  C   UNL d   1     -47.736  29.548  34.924  0.00  0.00     0.038 A 
ATOM      9  C   UNL d   1     -47.251  30.382  35.973  0.00  0.00     0.018 A 
ATOM     10  C   UNL d   1     -47.297  30.205  35.168  0.00  0.00     0.005 A 
ATOM     11  O   UNL d   1     -48.421  28.956  37.631  0.00  0.00    -0.266 OA
ATOM     12  C   UNL d   1     -46.816  31.035  36.224  0.00  0.00     0.002 C 
ENDROOT
BRANCH   3  13
ATOM     13  C   UNL d   1     -49.286  27.656  37.108  0.00  0.00     0.107 C 
BRANCH  13  14
ATOM     14  N   UNL d   1     -50.121  27.607  37.096  0.00  0.00    -0.242 NA
BRANCH  14  15
ATOM     15  C   UNL d   1     -50.540  27.569  37.804  0.00  0.00     0.101 C 
BRANCH  15  16
ATOM     16  C   UNL d   1     -51.192  27.077  37.866  0.00  0.00     0.040 C 
BRANCH  16  17
ATOM     17  C   UNL d   1     -51.114  26.304  38.195  0.00  0.00     0.082 C 
BRANCH  17  18
ATOM     18  N   UNL d   1     -51.779  25.874  38.406  0.00  0.00    -0.299 N 
ATOM     19  C   UNL d   1     -51.712  25.234  38.903  0.00  0.00     0.107 A 
ATOM     20  C   UNL d   1     -52.391  24.794  39.118  0.00  0.00     0.142 A 
ATOM     21  O   UNL d   1     -53.122  25.005  38.832  0.00  0.00    -0.300 OA
ATOM     22  C   UNL d   1     -53.194  25.666  38.318  0.00  0.00     0.142 A 
ATOM     23  C   UNL d   1     -52.525  26.099  38.106  0.00  0.00     0.107 A 
ENDBRANCH  17  18
ENDBRANCH  16  17
ENDBRANCH  15  16
ENDBRANCH  14  15
ENDBRANCH  13  14
ENDBRANCH   3  13
BRANCH   6  24
ATOM     24  N   UNL d   1     -49.376  27.304  35.511  0.00  0.00    -0.225 NA
BRANCH  24  25
ATOM     25  C   UNL d   1     -49.743  27.313  34.752  0.00  0.00     0.102 C 
BRANCH  25  26
ATOM     26  C   UNL d   1     -49.782  26.620  34.313  0.00  0.00     0.040 C 
BRANCH  26  27
ATOM     27  C   UNL d   1     -50.396  26.522  33.744  0.00  0.00     0.082 C 
BRANCH  27  28
ATOM     28  N   UNL d   1     -50.690  25.761  33.604  0.00  0.00    -0.299 N 
ATOM     29  C   UNL d   1     -51.513  25.652  33.568  0.00  0.00     0.107 A 
ATOM     30  C   UNL d   1     -51.835  24.911  33.431  0.00  0.00     0.142 A 
ATOM     31  O   UNL d   1     -51.319  24.268  33.327  0.00  0.00    -0.300 OA
ATOM     32  C   UNL d   1     -50.502  24.376  33.363  0.00  0.00     0.142 A 
ATOM     33  C   UNL d   1     -50.201  25.127  33.502  0.00  0.00     0.107 A 
ENDBRANCH  27  28
ENDBRANCH  26  27
ENDBRANCH  25  26
ENDBRANCH  24  25
ENDBRANCH   6  24
TORSDOF 11
ENDMDL
