MODEL 1
REMARK VINA RESULT:      42.8      0.000      0.000
REMARK  2 active torsions:
REMARK  status: ('A' for Active; 'I' for Inactive)
REMARK    1  A    between atoms: C_8  and  C_1 
REMARK    2  A    between atoms: N_5  and  C_8 
ROOT
ATOM      1  C   UNL d   1     -57.122 -98.784 -44.679  0.00  0.00     0.059 A 
ATOM      2  C   UNL d   1     -58.315 -98.778 -45.453  0.00  0.00     0.121 A 
ATOM      3  C   UNL d   1     -57.503 -98.785 -45.406  0.00  0.00     0.214 A 
ATOM      4  C   UNL d   1     -58.767 -98.771 -44.756  0.00  0.00     0.032 A 
ATOM      5  C   UNL d   1     -58.399 -98.770 -44.026  0.00  0.00     0.059 A 
ATOM      6  C   UNL d   1     -57.568 -98.777 -43.992  0.00  0.00     0.016 A 
ATOM      7  N   UNL d   1     -58.692 -98.779 -46.178  0.00  0.00    -0.241 NA
ATOM      8 CL   UNL d   1     -58.847 -98.763 -43.335  0.00  0.00    -0.082 Cl
ATOM      9  O   UNL d   1     -57.050 -98.792 -46.104  0.00  0.00    -0.285 OA
ATOM     10  C   UNL d   1     -59.580 -98.764 -44.808  0.00  0.00     0.004 A 
ATOM     11  C   UNL d   1     -59.511 -98.772 -46.229  0.00  0.00     0.099 A 
ATOM     12  C   UNL d   1     -59.957 -98.765 -45.542  0.00  0.00     0.021 A 
ENDROOT
BRANCH   1  13
ATOM     13  C   UNL d   1     -56.290 -98.791 -44.635  0.00  0.00     0.084 C 
BRANCH  13  14
ATOM     14  N   UNL d   1     -55.894 -99.472 -44.369  0.00  0.00    -0.302 N 
ATOM     15  C   UNL d   1     -55.936-100.158 -44.804  0.00  0.00     0.080 A 
ATOM     16  C   UNL d   1     -55.540-100.839 -44.538  0.00  0.00     0.018 A 
ATOM     17  C   UNL d   1     -55.580-101.536 -44.978  0.00  0.00     0.002 A 
ATOM     18  C   UNL d   1     -55.107-100.814 -43.832  0.00  0.00     0.003 A 
ATOM     19  C   UNL d   1     -55.182-102.221 -44.710  0.00  0.00     0.000 A 
ATOM     20  C   UNL d   1     -54.751-102.198 -44.008  0.00  0.00     0.000 A 
ATOM     21  C   UNL d   1     -54.714-101.505 -43.574  0.00  0.00     0.000 A 
ATOM     22  C   UNL d   1     -55.073-100.126 -43.406  0.00  0.00     0.019 A 
ATOM     23  C   UNL d   1     -55.464 -99.438 -43.662  0.00  0.00     0.080 A 
ENDBRANCH  13  14
ENDBRANCH   1  13
TORSDOF 2
ENDMDL
