MODEL 1
REMARK VINA RESULT:      -8.3      0.000      0.000
REMARK  6 active torsions:
REMARK  status: ('A' for Active; 'I' for Inactive)
REMARK    1  A    between atoms: N_3  and  C_1 
REMARK       I    between atoms: C_7  and  N_3 
REMARK    2  A    between atoms: S_14  and  C_4 
REMARK    3  A    between atoms: C_8  and  C_7 
REMARK    4  A    between atoms: C_11  and  N_13 
REMARK    5  A    between atoms: C_12  and  C_21 
REMARK       I    between atoms: N_13  and  C_12 
REMARK    6  A    between atoms: C_21  and  S_14 
ROOT
ATOM      1  S   UNL d   1      51.822  32.656  52.906  0.00  0.00    -0.054 SA
ENDROOT
BRANCH   1   2
ATOM      2  C   UNL d   1      51.544  33.424  52.863  0.00  0.00     0.165 A 
ATOM      3  S   UNL d   1      50.767  33.562  52.936  0.00  0.00    -0.019 SA
ATOM      4  C   UNL d   1      50.573  34.361  52.881  0.00  0.00     0.219 A 
ATOM      5  N   UNL d   1      51.315  34.688  52.767  0.00  0.00    -0.120 NA
ATOM      6  N   UNL d   1      51.886  34.116  52.759  0.00  0.00    -0.133 NA
BRANCH   4   7
ATOM      7  N   UNL d   1      49.988  34.715  52.911  0.00  0.00    -0.181 NA
ATOM      8  C   UNL d   1      49.250  34.965  52.561  0.00  0.00     0.281 C 
ATOM      9  O   UNL d   1      49.095  34.668  51.802  0.00  0.00    -0.265 OA
BRANCH   8  10
ATOM     10  C   UNL d   1      48.727  35.457  52.932  0.00  0.00     0.058 A 
ATOM     11  C   UNL d   1      48.515  35.855  53.630  0.00  0.00     0.005 A 
ATOM     12  C   UNL d   1      48.082  35.874  52.862  0.00  0.00     0.005 A 
ENDBRANCH   8  10
ENDBRANCH   4   7
ENDBRANCH   1   2
BRANCH   1  13
ATOM     13  C   UNL d   1      52.566  32.448  53.211  0.00  0.00     0.100 C 
BRANCH  13  14
ATOM     14  C   UNL d   1      52.853  31.667  53.227  0.00  0.00     0.286 C 
ATOM     15  N   UNL d   1      53.571  31.490  53.569  0.00  0.00    -0.208 NA
ATOM     16  O   UNL d   1      52.430  31.027  52.898  0.00  0.00    -0.265 OA
BRANCH  15  17
ATOM     17  C   UNL d   1      54.014  32.130  53.909  0.00  0.00     0.085 A 
ATOM     18  C   UNL d   1      54.558  32.459  53.413  0.00  0.00     0.019 A 
ATOM     19  C   UNL d   1      54.986  33.051  53.688  0.00  0.00     0.002 A 
ATOM     20  C   UNL d   1      55.543  33.443  53.292  0.00  0.00     0.000 C 
ATOM     21  C   UNL d   1      54.895  33.348  54.474  0.00  0.00     0.000 A 
ATOM     22  C   UNL d   1      54.306  32.977  54.983  0.00  0.00     0.002 A 
ATOM     23  C   UNL d   1      53.856  32.352  54.688  0.00  0.00     0.019 A 
ATOM     24  C   UNL d   1      54.233  33.268  55.717  0.00  0.00     0.000 C 
ENDBRANCH  15  17
ENDBRANCH  13  14
ENDBRANCH   1  13
TORSDOF 6
ENDMDL
MODEL 2
REMARK VINA RESULT:      -7.5      2.101      5.080
REMARK  6 active torsions:
REMARK  status: ('A' for Active; 'I' for Inactive)
REMARK    1  A    between atoms: N_3  and  C_1 
REMARK       I    between atoms: C_7  and  N_3 
REMARK    2  A    between atoms: S_14  and  C_4 
REMARK    3  A    between atoms: C_8  and  C_7 
REMARK    4  A    between atoms: C_11  and  N_13 
REMARK    5  A    between atoms: C_12  and  C_21 
REMARK       I    between atoms: N_13  and  C_12 
REMARK    6  A    between atoms: C_21  and  S_14 
ROOT
ATOM      1  S   UNL d   1      53.839  33.298  54.275  0.00  0.00    -0.054 SA
ENDROOT
BRANCH   1   2
ATOM      2  C   UNL d   1      53.958  32.547  53.974  0.00  0.00     0.165 A 
ATOM      3  S   UNL d   1      53.670  31.921  54.366  0.00  0.00    -0.019 SA
ATOM      4  C   UNL d   1      53.834  31.202  53.996  0.00  0.00     0.219 A 
ATOM      5  N   UNL d   1      54.251  31.464  53.341  0.00  0.00    -0.120 NA
ATOM      6  N   UNL d   1      54.317  32.269  53.342  0.00  0.00    -0.133 NA
BRANCH   4   7
ATOM      7  N   UNL d   1      53.695  30.548  54.137  0.00  0.00    -0.181 NA
ATOM      8  C   UNL d   1      53.275  29.823  53.968  0.00  0.00     0.281 C 
ATOM      9  O   UNL d   1      52.756  29.851  53.322  0.00  0.00    -0.265 OA
BRANCH   8  10
ATOM     10  C   UNL d   1      53.367  29.146  54.401  0.00  0.00     0.058 A 
ATOM     11  C   UNL d   1      53.262  28.763  55.131  0.00  0.00     0.005 A 
ATOM     12  C   UNL d   1      53.616  28.416  54.401  0.00  0.00     0.005 A 
ENDBRANCH   8  10
ENDBRANCH   4   7
ENDBRANCH   1   2
BRANCH   1  13
ATOM     13  C   UNL d   1      53.256  33.821  53.997  0.00  0.00     0.100 C 
BRANCH  13  14
ATOM     14  C   UNL d   1      53.189  34.609  54.254  0.00  0.00     0.286 C 
ATOM     15  N   UNL d   1      52.589  35.090  53.982  0.00  0.00    -0.208 NA
ATOM     16  O   UNL d   1      53.722  34.952  54.797  0.00  0.00    -0.265 OA
BRANCH  15  17
ATOM     17  C   UNL d   1      52.038  34.757  53.428  0.00  0.00     0.085 A 
ATOM     18  C   UNL d   1      51.356  34.485  53.761  0.00  0.00     0.019 A 
ATOM     19  C   UNL d   1      50.822  34.171  53.284  0.00  0.00     0.002 A 
ATOM     20  C   UNL d   1      50.125  33.875  53.501  0.00  0.00     0.000 C 
ATOM     21  C   UNL d   1      50.941  34.112  52.449  0.00  0.00     0.000 A 
ATOM     22  C   UNL d   1      51.680  34.412  52.121  0.00  0.00     0.002 A 
ATOM     23  C   UNL d   1      52.240  34.742  52.628  0.00  0.00     0.019 A 
ATOM     24  C   UNL d   1      51.775  34.348  51.336  0.00  0.00     0.000 C 
ENDBRANCH  15  17
ENDBRANCH  13  14
ENDBRANCH   1  13
TORSDOF 6
ENDMDL
MODEL 3
REMARK VINA RESULT:      -7.0      1.656      1.975
REMARK  6 active torsions:
REMARK  status: ('A' for Active; 'I' for Inactive)
REMARK    1  A    between atoms: N_3  and  C_1 
REMARK       I    between atoms: C_7  and  N_3 
REMARK    2  A    between atoms: S_14  and  C_4 
REMARK    3  A    between atoms: C_8  and  C_7 
REMARK    4  A    between atoms: C_11  and  N_13 
REMARK    5  A    between atoms: C_12  and  C_21 
REMARK       I    between atoms: N_13  and  C_12 
REMARK    6  A    between atoms: C_21  and  S_14 
ROOT
ATOM      1  S   UNL d   1      52.148  34.746  53.718  0.00  0.00    -0.054 SA
ENDROOT
BRANCH   1   2
ATOM      2  C   UNL d   1      51.488  34.380  53.405  0.00  0.00     0.165 A 
ATOM      3  S   UNL d   1      50.999  34.792  52.936  0.00  0.00    -0.019 SA
ATOM      4  C   UNL d   1      50.359  34.349  52.665  0.00  0.00     0.219 A 
ATOM      5  N   UNL d   1      50.515  33.627  53.020  0.00  0.00    -0.120 NA
ATOM      6  N   UNL d   1      51.193  33.661  53.460  0.00  0.00    -0.133 NA
BRANCH   4   7
ATOM      7  N   UNL d   1      49.822  34.479  52.261  0.00  0.00    -0.181 NA
ATOM      8  C   UNL d   1      49.059  34.842  52.132  0.00  0.00     0.281 C 
ATOM      9  O   UNL d   1      48.750  35.265  52.775  0.00  0.00    -0.265 OA
BRANCH   8  10
ATOM     10  C   UNL d   1      48.653  34.785  51.435  0.00  0.00     0.058 A 
ATOM     11  C   UNL d   1      48.609  34.447  50.677  0.00  0.00     0.005 A 
ATOM     12  C   UNL d   1      48.038  35.017  51.033  0.00  0.00     0.005 A 
ENDBRANCH   8  10
ENDBRANCH   4   7
ENDBRANCH   1   2
BRANCH   1  13
ATOM     13  C   UNL d   1      52.746  34.347  54.136  0.00  0.00     0.100 C 
BRANCH  13  14
ATOM     14  C   UNL d   1      53.256  34.723  54.674  0.00  0.00     0.286 C 
ATOM     15  N   UNL d   1      53.937  34.356  54.934  0.00  0.00    -0.208 NA
ATOM     16  O   UNL d   1      53.106  35.486  54.978  0.00  0.00    -0.265 OA
BRANCH  15  17
ATOM     17  C   UNL d   1      54.104  33.579  54.634  0.00  0.00     0.085 A 
ATOM     18  C   UNL d   1      54.588  33.568  53.990  0.00  0.00     0.019 A 
ATOM     19  C   UNL d   1      54.766  32.871  53.684  0.00  0.00     0.002 A 
ATOM     20  C   UNL d   1      55.227  32.745  53.059  0.00  0.00     0.000 C 
ATOM     21  C   UNL d   1      54.470  32.148  54.006  0.00  0.00     0.000 A 
ATOM     22  C   UNL d   1      53.955  32.190  54.696  0.00  0.00     0.002 A 
ATOM     23  C   UNL d   1      53.769  32.927  55.015  0.00  0.00     0.019 A 
ATOM     24  C   UNL d   1      53.686  31.502  54.985  0.00  0.00     0.000 C 
ENDBRANCH  15  17
ENDBRANCH  13  14
ENDBRANCH   1  13
TORSDOF 6
ENDMDL
MODEL 4
REMARK VINA RESULT:      -6.8      1.446      2.385
REMARK  6 active torsions:
REMARK  status: ('A' for Active; 'I' for Inactive)
REMARK    1  A    between atoms: N_3  and  C_1 
REMARK       I    between atoms: C_7  and  N_3 
REMARK    2  A    between atoms: S_14  and  C_4 
REMARK    3  A    between atoms: C_8  and  C_7 
REMARK    4  A    between atoms: C_11  and  N_13 
REMARK    5  A    between atoms: C_12  and  C_21 
REMARK       I    between atoms: N_13  and  C_12 
REMARK    6  A    between atoms: C_21  and  S_14 
ROOT
ATOM      1  S   UNL d   1      52.646  33.403  53.255  0.00  0.00    -0.054 SA
ENDROOT
BRANCH   1   2
ATOM      2  C   UNL d   1      51.831  33.461  53.251  0.00  0.00     0.165 A 
ATOM      3  S   UNL d   1      51.470  33.847  52.660  0.00  0.00    -0.019 SA
ATOM      4  C   UNL d   1      50.649  33.859  52.733  0.00  0.00     0.219 A 
ATOM      5  N   UNL d   1      50.555  33.439  53.430  0.00  0.00    -0.120 NA
ATOM      6  N   UNL d   1      51.270  33.208  53.728  0.00  0.00    -0.133 NA
BRANCH   4   7
ATOM      7  N   UNL d   1      50.139  34.121  52.361  0.00  0.00    -0.181 NA
ATOM      8  C   UNL d   1      49.481  34.660  52.275  0.00  0.00     0.281 C 
ATOM      9  O   UNL d   1      49.319  35.136  52.934  0.00  0.00    -0.265 OA
BRANCH   8  10
ATOM     10  C   UNL d   1      49.035  34.712  51.602  0.00  0.00     0.058 A 
ATOM     11  C   UNL d   1      48.991  34.591  50.781  0.00  0.00     0.005 A 
ATOM     12  C   UNL d   1      48.354  34.913  51.300  0.00  0.00     0.005 A 
ENDBRANCH   8  10
ENDBRANCH   4   7
ENDBRANCH   1   2
BRANCH   1  13
ATOM     13  C   UNL d   1      53.061  32.707  53.437  0.00  0.00     0.100 C 
BRANCH  13  14
ATOM     14  C   UNL d   1      53.880  32.686  53.583  0.00  0.00     0.286 C 
ATOM     15  N   UNL d   1      54.272  31.978  53.680  0.00  0.00    -0.208 NA
ATOM     16  O   UNL d   1      54.343  33.378  53.640  0.00  0.00    -0.265 OA
BRANCH  15  17
ATOM     17  C   UNL d   1      53.814  31.264  53.625  0.00  0.00     0.085 A 
ATOM     18  C   UNL d   1      53.652  30.918  54.335  0.00  0.00     0.019 A 
ATOM     19  C   UNL d   1      53.233  30.258  54.328  0.00  0.00     0.002 A 
ATOM     20  C   UNL d   1      53.019  29.840  54.959  0.00  0.00     0.000 C 
ATOM     21  C   UNL d   1      52.954  29.909  53.611  0.00  0.00     0.000 A 
ATOM     22  C   UNL d   1      53.142  30.301  52.867  0.00  0.00     0.002 A 
ATOM     23  C   UNL d   1      53.585  30.997  52.879  0.00  0.00     0.019 A 
ATOM     24  C   UNL d   1      52.872  29.959  52.204  0.00  0.00     0.000 C 
ENDBRANCH  15  17
ENDBRANCH  13  14
ENDBRANCH   1  13
TORSDOF 6
ENDMDL
MODEL 5
REMARK VINA RESULT:      -6.6      0.622      1.167
REMARK  6 active torsions:
REMARK  status: ('A' for Active; 'I' for Inactive)
REMARK    1  A    between atoms: N_3  and  C_1 
REMARK       I    between atoms: C_7  and  N_3 
REMARK    2  A    between atoms: S_14  and  C_4 
REMARK    3  A    between atoms: C_8  and  C_7 
REMARK    4  A    between atoms: C_11  and  N_13 
REMARK    5  A    between atoms: C_12  and  C_21 
REMARK       I    between atoms: N_13  and  C_12 
REMARK    6  A    between atoms: C_21  and  S_14 
ROOT
ATOM      1  S   UNL d   1      51.780  32.750  53.238  0.00  0.00    -0.054 SA
ENDROOT
BRANCH   1   2
ATOM      2  C   UNL d   1      51.421  33.480  53.163  0.00  0.00     0.165 A 
ATOM      3  S   UNL d   1      50.736  33.539  52.768  0.00  0.00    -0.019 SA
ATOM      4  C   UNL d   1      50.442  34.309  52.740  0.00  0.00     0.219 A 
ATOM      5  N   UNL d   1      51.023  34.706  53.160  0.00  0.00    -0.120 NA
ATOM      6  N   UNL d   1      51.601  34.198  53.407  0.00  0.00    -0.133 NA
BRANCH   4   7
ATOM      7  N   UNL d   1      49.888  34.601  52.466  0.00  0.00    -0.181 NA
ATOM      8  C   UNL d   1      49.372  34.739  51.798  0.00  0.00     0.281 C 
ATOM      9  O   UNL d   1      49.590  34.361  51.093  0.00  0.00    -0.265 OA
BRANCH   8  10
ATOM     10  C   UNL d   1      48.712  35.204  51.836  0.00  0.00     0.058 A 
ATOM     11  C   UNL d   1      48.374  35.918  52.092  0.00  0.00     0.005 A 
ATOM     12  C   UNL d   1      47.966  35.271  51.653  0.00  0.00     0.005 A 
ENDBRANCH   8  10
ENDBRANCH   4   7
ENDBRANCH   1   2
BRANCH   1  13
ATOM     13  C   UNL d   1      52.597  32.643  53.344  0.00  0.00     0.100 C 
BRANCH  13  14
ATOM     14  C   UNL d   1      53.002  31.953  53.116  0.00  0.00     0.286 C 
ATOM     15  N   UNL d   1      53.758  31.803  53.381  0.00  0.00    -0.208 NA
ATOM     16  O   UNL d   1      52.665  31.381  52.609  0.00  0.00    -0.265 OA
BRANCH  15  17
ATOM     17  C   UNL d   1      54.116  32.375  53.897  0.00  0.00     0.085 A 
ATOM     18  C   UNL d   1      53.922  32.289  54.674  0.00  0.00     0.019 A 
ATOM     19  C   UNL d   1      54.231  32.797  55.182  0.00  0.00     0.002 A 
ATOM     20  C   UNL d   1      54.109  32.805  55.960  0.00  0.00     0.000 C 
ATOM     21  C   UNL d   1      54.750  33.418  54.940  0.00  0.00     0.000 A 
ATOM     22  C   UNL d   1      54.940  33.486  54.102  0.00  0.00     0.002 A 
ATOM     23  C   UNL d   1      54.612  32.948  53.569  0.00  0.00     0.019 A 
ATOM     24  C   UNL d   1      55.430  34.074  53.892  0.00  0.00     0.000 C 
ENDBRANCH  15  17
ENDBRANCH  13  14
ENDBRANCH   1  13
TORSDOF 6
ENDMDL
MODEL 6
REMARK VINA RESULT:      -5.7      2.206      4.545
REMARK  6 active torsions:
REMARK  status: ('A' for Active; 'I' for Inactive)
REMARK    1  A    between atoms: N_3  and  C_1 
REMARK       I    between atoms: C_7  and  N_3 
REMARK    2  A    between atoms: S_14  and  C_4 
REMARK    3  A    between atoms: C_8  and  C_7 
REMARK    4  A    between atoms: C_11  and  N_13 
REMARK    5  A    between atoms: C_12  and  C_21 
REMARK       I    between atoms: N_13  and  C_12 
REMARK    6  A    between atoms: C_21  and  S_14 
ROOT
ATOM      1  S   UNL d   1      52.137  32.542  52.880  0.00  0.00    -0.054 SA
ENDROOT
BRANCH   1   2
ATOM      2  C   UNL d   1      52.485  31.804  52.836  0.00  0.00     0.165 A 
ATOM      3  S   UNL d   1      52.497  31.340  53.478  0.00  0.00    -0.019 SA
ATOM      4  C   UNL d   1      52.865  30.614  53.348  0.00  0.00     0.219 A 
ATOM      5  N   UNL d   1      53.073  30.692  52.559  0.00  0.00    -0.120 NA
ATOM      6  N   UNL d   1      52.839  31.408  52.266  0.00  0.00    -0.133 NA
BRANCH   4   7
ATOM      7  N   UNL d   1      52.994  30.065  53.735  0.00  0.00    -0.181 NA
ATOM      8  C   UNL d   1      52.914  29.229  53.891  0.00  0.00     0.281 C 
ATOM      9  O   UNL d   1      52.468  28.802  53.337  0.00  0.00    -0.265 OA
BRANCH   8  10
ATOM     10  C   UNL d   1      53.244  28.863  54.532  0.00  0.00     0.058 A 
ATOM     11  C   UNL d   1      53.323  28.837  55.359  0.00  0.00     0.005 A 
ATOM     12  C   UNL d   1      53.705  28.296  54.778  0.00  0.00     0.005 A 
ENDBRANCH   8  10
ENDBRANCH   4   7
ENDBRANCH   1   2
BRANCH   1  13
ATOM     13  C   UNL d   1      52.526  33.223  53.157  0.00  0.00     0.100 C 
BRANCH  13  14
ATOM     14  C   UNL d   1      52.361  33.989  52.879  0.00  0.00     0.286 C 
ATOM     15  N   UNL d   1      52.723  34.642  53.206  0.00  0.00    -0.208 NA
ATOM     16  O   UNL d   1      51.822  34.136  52.258  0.00  0.00    -0.265 OA
BRANCH  15  17
ATOM     17  C   UNL d   1      53.274  34.510  53.840  0.00  0.00     0.085 A 
ATOM     18  C   UNL d   1      52.993  34.700  54.571  0.00  0.00     0.019 A 
ATOM     19  C   UNL d   1      53.470  34.593  55.180  0.00  0.00     0.002 A 
ATOM     20  C   UNL d   1      53.298  34.745  55.934  0.00  0.00     0.000 C 
ATOM     21  C   UNL d   1      54.254  34.291  55.093  0.00  0.00     0.000 A 
ATOM     22  C   UNL d   1      54.528  34.096  54.299  0.00  0.00     0.002 A 
ATOM     23  C   UNL d   1      54.022  34.210  53.658  0.00  0.00     0.019 A 
ATOM     24  C   UNL d   1      55.267  33.813  54.235  0.00  0.00     0.000 C 
ENDBRANCH  15  17
ENDBRANCH  13  14
ENDBRANCH   1  13
TORSDOF 6
ENDMDL
