MODEL 1
REMARK VINA RESULT:      -5.2      0.000      0.000
REMARK  5 active torsions:
REMARK  status: ('A' for Active; 'I' for Inactive)
REMARK    1  A    between atoms: C_7  and  C_1 
REMARK    2  A    between atoms: C_9  and  C_17 
REMARK       I    between atoms: N_11  and  C_9 
REMARK    3  A    between atoms: S_12  and  C_10 
REMARK    4  A    between atoms: C_13  and  N_11 
REMARK    5  A    between atoms: C_17  and  S_12 
ROOT
ATOM      1  N   UNL d   1     -48.090  14.666  22.713  0.00  0.00    -0.147 NA
ATOM      2  C   UNL d   1     -48.777  14.218  22.865  0.00  0.00     0.111 A 
ATOM      3  N   UNL d   1     -47.356  14.298  22.730  0.00  0.00    -0.141 NA
ATOM      4  C   UNL d   1     -47.301  13.490  22.897  0.00  0.00     0.133 A 
ATOM      5  C   UNL d   1     -48.716  13.426  23.029  0.00  0.00     0.024 A 
ATOM      6  C   UNL d   1     -47.990  13.061  23.046  0.00  0.00     0.029 A 
ENDROOT
BRANCH   4   7
ATOM      7  S   UNL d   1     -46.563  13.121  22.914  0.00  0.00    -0.061 SA
BRANCH   7   8
ATOM      8  C   UNL d   1     -46.126  13.031  22.216  0.00  0.00     0.099 C 
BRANCH   8   9
ATOM      9  C   UNL d   1     -45.331  12.854  22.256  0.00  0.00     0.286 C 
ATOM     10  N   UNL d   1     -44.841  12.976  21.603  0.00  0.00    -0.208 NA
ATOM     11  O   UNL d   1     -45.002  12.545  22.957  0.00  0.00    -0.265 OA
BRANCH  10  12
ATOM     12  C   UNL d   1     -44.035  12.797  21.640  0.00  0.00     0.086 A 
ATOM     13  C   UNL d   1     -43.491  13.283  21.255  0.00  0.00     0.031 A 
ATOM     14  C   UNL d   1     -42.679  13.107  21.289  0.00  0.00     0.059 A 
ATOM     15 CL   UNL d   1     -42.130  13.595  20.903  0.00  0.00    -0.082 Cl
ATOM     16  C   UNL d   1     -42.429  12.440  21.713  0.00  0.00     0.011 A 
ATOM     17  C   UNL d   1     -42.976  11.958  22.095  0.00  0.00     0.002 A 
ATOM     18  C   UNL d   1     -43.780  12.133  22.061  0.00  0.00     0.019 A 
ENDBRANCH  10  12
ENDBRANCH   8   9
ENDBRANCH   7   8
ENDBRANCH   4   7
BRANCH   2  19
ATOM     19  C   UNL d   1     -49.516  14.593  22.847  0.00  0.00     0.068 A 
ATOM     20  C   UNL d   1     -50.088  14.495  22.251  0.00  0.00     0.089 A 
ATOM     21  N   UNL d   1     -50.739  14.974  22.456  0.00  0.00    -0.238 NA
ATOM     22  C   UNL d   1     -50.021  14.020  21.593  0.00  0.00     0.021 C 
ATOM     23  C   UNL d   1     -50.563  15.356  23.165  0.00  0.00     0.111 A 
ATOM     24  S   UNL d   1     -49.809  15.119  23.403  0.00  0.00    -0.065 SA
ATOM     25  C   UNL d   1     -51.064  15.884  23.563  0.00  0.00     0.028 C 
ENDBRANCH   2  19
TORSDOF 5
ENDMDL
MODEL 2
REMARK VINA RESULT:      -5.2      2.585      3.808
REMARK  5 active torsions:
REMARK  status: ('A' for Active; 'I' for Inactive)
REMARK    1  A    between atoms: C_7  and  C_1 
REMARK    2  A    between atoms: C_9  and  C_17 
REMARK       I    between atoms: N_11  and  C_9 
REMARK    3  A    between atoms: S_12  and  C_10 
REMARK    4  A    between atoms: C_13  and  N_11 
REMARK    5  A    between atoms: C_17  and  S_12 
ROOT
ATOM      1  N   UNL d   1     -44.970  12.128  22.812  0.00  0.00    -0.147 NA
ATOM      2  C   UNL d   1     -45.600  12.608  22.550  0.00  0.00     0.111 A 
ATOM      3  N   UNL d   1     -44.239  12.181  22.442  0.00  0.00    -0.141 NA
ATOM      4  C   UNL d   1     -44.130  12.709  21.814  0.00  0.00     0.133 A 
ATOM      5  C   UNL d   1     -45.486  13.124  21.934  0.00  0.00     0.024 A 
ATOM      6  C   UNL d   1     -44.762  13.178  21.567  0.00  0.00     0.029 A 
ENDROOT
BRANCH   4   7
ATOM      7  S   UNL d   1     -43.395  12.762  21.443  0.00  0.00    -0.061 SA
BRANCH   7   8
ATOM      8  C   UNL d   1     -42.958  13.465  21.484  0.00  0.00     0.099 C 
BRANCH   8   9
ATOM      9  C   UNL d   1     -42.237  13.515  21.106  0.00  0.00     0.286 C 
ATOM     10  N   UNL d   1     -41.781  14.201  21.163  0.00  0.00    -0.208 NA
ATOM     11  O   UNL d   1     -41.949  12.874  20.656  0.00  0.00    -0.265 OA
BRANCH  10  12
ATOM     12  C   UNL d   1     -41.050  14.256  20.781  0.00  0.00     0.086 A 
ATOM     13  C   UNL d   1     -40.354  14.176  21.218  0.00  0.00     0.031 A 
ATOM     14  C   UNL d   1     -39.617  14.230  20.838  0.00  0.00     0.059 A 
ATOM     15 CL   UNL d   1     -38.916  14.150  21.276  0.00  0.00    -0.082 Cl
ATOM     16  C   UNL d   1     -39.593  14.366  20.021  0.00  0.00     0.011 A 
ATOM     17  C   UNL d   1     -40.290  14.445  19.590  0.00  0.00     0.002 A 
ATOM     18  C   UNL d   1     -41.020  14.391  19.966  0.00  0.00     0.019 A 
ENDBRANCH  10  12
ENDBRANCH   8   9
ENDBRANCH   7   8
ENDBRANCH   4   7
BRANCH   2  19
ATOM     19  C   UNL d   1     -46.336  12.551  22.926  0.00  0.00     0.068 A 
ATOM     20  C   UNL d   1     -46.769  13.192  23.231  0.00  0.00     0.089 A 
ATOM     21  N   UNL d   1     -47.470  12.880  23.558  0.00  0.00    -0.238 NA
ATOM     22  C   UNL d   1     -46.547  13.976  23.212  0.00  0.00     0.021 C 
ATOM     23  C   UNL d   1     -47.460  12.063  23.452  0.00  0.00     0.111 A 
ATOM     24  S   UNL d   1     -46.760  11.863  23.063  0.00  0.00    -0.065 SA
ATOM     25  C   UNL d   1     -48.055  11.540  23.698  0.00  0.00     0.028 C 
ENDBRANCH   2  19
TORSDOF 5
ENDMDL
MODEL 3
REMARK VINA RESULT:      -4.9      1.831      2.083
REMARK  5 active torsions:
REMARK  status: ('A' for Active; 'I' for Inactive)
REMARK    1  A    between atoms: C_7  and  C_1 
REMARK    2  A    between atoms: C_9  and  C_17 
REMARK       I    between atoms: N_11  and  C_9 
REMARK    3  A    between atoms: S_12  and  C_10 
REMARK    4  A    between atoms: C_13  and  N_11 
REMARK    5  A    between atoms: C_17  and  S_12 
ROOT
ATOM      1  N   UNL d   1     -48.050  14.655  22.712  0.00  0.00    -0.147 NA
ATOM      2  C   UNL d   1     -48.727  14.199  22.886  0.00  0.00     0.111 A 
ATOM      3  N   UNL d   1     -47.307  14.309  22.753  0.00  0.00    -0.141 NA
ATOM      4  C   UNL d   1     -47.232  13.513  22.966  0.00  0.00     0.133 A 
ATOM      5  C   UNL d   1     -48.645  13.419  23.094  0.00  0.00     0.024 A 
ATOM      6  C   UNL d   1     -47.910  13.075  23.136  0.00  0.00     0.029 A 
ENDROOT
BRANCH   4   7
ATOM      7  S   UNL d   1     -46.485  13.166  23.008  0.00  0.00    -0.061 SA
BRANCH   7   8
ATOM      8  C   UNL d   1     -46.379  12.451  23.412  0.00  0.00     0.099 C 
BRANCH   8   9
ATOM      9  C   UNL d   1     -45.692  12.025  23.309  0.00  0.00     0.286 C 
ATOM     10  N   UNL d   1     -45.597  11.288  23.669  0.00  0.00    -0.208 NA
ATOM     11  O   UNL d   1     -45.074  12.327  22.837  0.00  0.00    -0.265 OA
BRANCH  10  12
ATOM     12  C   UNL d   1     -44.901  10.853  23.567  0.00  0.00     0.086 A 
ATOM     13  C   UNL d   1     -44.924  10.030  23.608  0.00  0.00     0.031 A 
ATOM     14  C   UNL d   1     -44.227   9.589  23.506  0.00  0.00     0.059 A 
ATOM     15 CL   UNL d   1     -44.249   8.760  23.547  0.00  0.00    -0.082 Cl
ATOM     16  C   UNL d   1     -43.515   9.987  23.362  0.00  0.00     0.011 A 
ATOM     17  C   UNL d   1     -43.497  10.810  23.322  0.00  0.00     0.002 A 
ATOM     18  C   UNL d   1     -44.188  11.246  23.423  0.00  0.00     0.019 A 
ENDBRANCH  10  12
ENDBRANCH   8   9
ENDBRANCH   7   8
ENDBRANCH   4   7
BRANCH   2  19
ATOM     19  C   UNL d   1     -49.475  14.552  22.842  0.00  0.00     0.068 A 
ATOM     20  C   UNL d   1     -50.041  14.403  22.252  0.00  0.00     0.089 A 
ATOM     21  N   UNL d   1     -50.706  14.876  22.425  0.00  0.00    -0.238 NA
ATOM     22  C   UNL d   1     -49.959  13.891  21.623  0.00  0.00     0.021 C 
ATOM     23  C   UNL d   1     -50.544  15.304  23.110  0.00  0.00     0.111 A 
ATOM     24  S   UNL d   1     -49.784  15.103  23.365  0.00  0.00    -0.065 SA
ATOM     25  C   UNL d   1     -51.060  15.842  23.474  0.00  0.00     0.028 C 
ENDBRANCH   2  19
TORSDOF 5
ENDMDL
MODEL 4
REMARK VINA RESULT:      -4.7      2.198      6.112
REMARK  5 active torsions:
REMARK  status: ('A' for Active; 'I' for Inactive)
REMARK    1  A    between atoms: C_7  and  C_1 
REMARK    2  A    between atoms: C_9  and  C_17 
REMARK       I    between atoms: N_11  and  C_9 
REMARK    3  A    between atoms: S_12  and  C_10 
REMARK    4  A    between atoms: C_13  and  N_11 
REMARK    5  A    between atoms: C_17  and  S_12 
ROOT
ATOM      1  N   UNL d   1     -44.990  13.694  22.203  0.00  0.00    -0.147 NA
ATOM      2  C   UNL d   1     -44.686  12.918  22.168  0.00  0.00     0.111 A 
ATOM      3  N   UNL d   1     -45.749  13.818  22.491  0.00  0.00    -0.141 NA
ATOM      4  C   UNL d   1     -46.206  13.176  22.744  0.00  0.00     0.133 A 
ATOM      5  C   UNL d   1     -45.139  12.294  22.419  0.00  0.00     0.024 A 
ATOM      6  C   UNL d   1     -45.891  12.415  22.704  0.00  0.00     0.029 A 
ENDROOT
BRANCH   4   7
ATOM      7  S   UNL d   1     -46.968  13.302  23.033  0.00  0.00    -0.061 SA
BRANCH   7   8
ATOM      8  C   UNL d   1     -47.324  14.047  22.962  0.00  0.00     0.099 C 
BRANCH   8   9
ATOM      9  C   UNL d   1     -48.136  14.112  22.979  0.00  0.00     0.286 C 
ATOM     10  N   UNL d   1     -48.510  14.781  22.672  0.00  0.00    -0.208 NA
ATOM     11  O   UNL d   1     -48.602  13.503  23.308  0.00  0.00    -0.265 OA
BRANCH  10  12
ATOM     12  C   UNL d   1     -49.334  14.850  22.688  0.00  0.00     0.086 A 
ATOM     13  C   UNL d   1     -49.783  14.525  22.077  0.00  0.00     0.031 A 
ATOM     14  C   UNL d   1     -50.611  14.593  22.089  0.00  0.00     0.059 A 
ATOM     15 CL   UNL d   1     -51.064  14.266  21.474  0.00  0.00    -0.082 Cl
ATOM     16  C   UNL d   1     -50.975  14.987  22.720  0.00  0.00     0.011 A 
ATOM     17  C   UNL d   1     -50.522  15.309  23.328  0.00  0.00     0.002 A 
ATOM     18  C   UNL d   1     -49.702  15.243  23.315  0.00  0.00     0.019 A 
ENDBRANCH  10  12
ENDBRANCH   8   9
ENDBRANCH   7   8
ENDBRANCH   4   7
BRANCH   2  19
ATOM     19  C   UNL d   1     -43.919  12.798  21.877  0.00  0.00     0.068 A 
ATOM     20  C   UNL d   1     -43.427  12.157  22.074  0.00  0.00     0.089 A 
ATOM     21  N   UNL d   1     -42.713  12.259  21.657  0.00  0.00    -0.238 NA
ATOM     22  C   UNL d   1     -43.612  11.545  22.581  0.00  0.00     0.021 C 
ATOM     23  C   UNL d   1     -42.772  12.951  21.214  0.00  0.00     0.111 A 
ATOM     24  S   UNL d   1     -43.516  13.281  21.352  0.00  0.00    -0.065 SA
ATOM     25  C   UNL d   1     -42.181  13.256  20.718  0.00  0.00     0.028 C 
ENDBRANCH   2  19
TORSDOF 5
ENDMDL
MODEL 5
REMARK VINA RESULT:      -4.5      3.394      7.234
REMARK  5 active torsions:
REMARK  status: ('A' for Active; 'I' for Inactive)
REMARK    1  A    between atoms: C_7  and  C_1 
REMARK    2  A    between atoms: C_9  and  C_17 
REMARK       I    between atoms: N_11  and  C_9 
REMARK    3  A    between atoms: S_12  and  C_10 
REMARK    4  A    between atoms: C_13  and  N_11 
REMARK    5  A    between atoms: C_17  and  S_12 
ROOT
ATOM      1  N   UNL d   1     -41.336  13.712  19.737  0.00  0.00    -0.147 NA
ATOM      2  C   UNL d   1     -40.823  14.239  20.130  0.00  0.00     0.111 A 
ATOM      3  N   UNL d   1     -41.911  13.312  20.166  0.00  0.00    -0.141 NA
ATOM      4  C   UNL d   1     -41.979  13.433  20.981  0.00  0.00     0.133 A 
ATOM      5  C   UNL d   1     -40.896  14.353  20.930  0.00  0.00     0.024 A 
ATOM      6  C   UNL d   1     -41.464  13.958  21.355  0.00  0.00     0.029 A 
ENDROOT
BRANCH   4   7
ATOM      7  S   UNL d   1     -42.557  13.031  21.411  0.00  0.00    -0.061 SA
BRANCH   7   8
ATOM      8  C   UNL d   1     -43.349  13.052  21.167  0.00  0.00     0.099 C 
BRANCH   8   9
ATOM      9  C   UNL d   1     -43.940  12.858  21.693  0.00  0.00     0.286 C 
ATOM     10  N   UNL d   1     -44.658  13.266  21.685  0.00  0.00    -0.208 NA
ATOM     11  O   UNL d   1     -43.829  12.245  22.247  0.00  0.00    -0.265 OA
BRANCH  10  12
ATOM     12  C   UNL d   1     -45.260  13.073  22.217  0.00  0.00     0.086 A 
ATOM     13  C   UNL d   1     -45.816  13.645  22.431  0.00  0.00     0.031 A 
ATOM     14  C   UNL d   1     -46.423  13.454  22.966  0.00  0.00     0.059 A 
ATOM     15 CL   UNL d   1     -46.982  14.029  23.182  0.00  0.00    -0.082 Cl
ATOM     16  C   UNL d   1     -46.461  12.688  23.277  0.00  0.00     0.011 A 
ATOM     17  C   UNL d   1     -45.904  12.121  23.061  0.00  0.00     0.002 A 
ATOM     18  C   UNL d   1     -45.303  12.309  22.531  0.00  0.00     0.019 A 
ENDBRANCH  10  12
ENDBRANCH   8   9
ENDBRANCH   7   8
ENDBRANCH   4   7
BRANCH   2  19
ATOM     19  C   UNL d   1     -40.244  14.640  19.693  0.00  0.00     0.068 A 
ATOM     20  C   UNL d   1     -40.309  15.423  19.418  0.00  0.00     0.089 A 
ATOM     21  N   UNL d   1     -39.604  15.597  19.009  0.00  0.00    -0.238 NA
ATOM     22  C   UNL d   1     -40.944  15.922  19.529  0.00  0.00     0.021 C 
ATOM     23  C   UNL d   1     -39.120  14.931  19.036  0.00  0.00     0.111 A 
ATOM     24  S   UNL d   1     -39.518  14.343  19.459  0.00  0.00    -0.065 SA
ATOM     25  C   UNL d   1     -38.366  14.870  18.696  0.00  0.00     0.028 C 
ENDBRANCH   2  19
TORSDOF 5
ENDMDL
MODEL 6
REMARK VINA RESULT:      -4.0      4.512      8.043
REMARK  5 active torsions:
REMARK  status: ('A' for Active; 'I' for Inactive)
REMARK    1  A    between atoms: C_7  and  C_1 
REMARK    2  A    between atoms: C_9  and  C_17 
REMARK       I    between atoms: N_11  and  C_9 
REMARK    3  A    between atoms: S_12  and  C_10 
REMARK    4  A    between atoms: C_13  and  N_11 
REMARK    5  A    between atoms: C_17  and  S_12 
ROOT
ATOM      1  N   UNL d   1     -40.404  14.220  18.487  0.00  0.00    -0.147 NA
ATOM      2  C   UNL d   1     -40.128  15.006  18.451  0.00  0.00     0.111 A 
ATOM      3  N   UNL d   1     -40.796  13.959  19.160  0.00  0.00    -0.141 NA
ATOM      4  C   UNL d   1     -40.915  14.474  19.796  0.00  0.00     0.133 A 
ATOM      5  C   UNL d   1     -40.247  15.505  19.079  0.00  0.00     0.024 A 
ATOM      6  C   UNL d   1     -40.635  15.249  19.745  0.00  0.00     0.029 A 
ENDROOT
BRANCH   4   7
ATOM      7  S   UNL d   1     -41.309  14.211  20.471  0.00  0.00    -0.061 SA
BRANCH   7   8
ATOM      8  C   UNL d   1     -41.677  13.469  20.477  0.00  0.00     0.099 C 
BRANCH   8   9
ATOM      9  C   UNL d   1     -42.241  13.301  21.041  0.00  0.00     0.286 C 
ATOM     10  N   UNL d   1     -42.899  12.840  20.852  0.00  0.00    -0.208 NA
ATOM     11  O   UNL d   1     -42.161  13.593  21.819  0.00  0.00    -0.265 OA
BRANCH  10  12
ATOM     12  C   UNL d   1     -43.473  12.668  21.422  0.00  0.00     0.086 A 
ATOM     13  C   UNL d   1     -44.173  13.103  21.441  0.00  0.00     0.031 A 
ATOM     14  C   UNL d   1     -44.752  12.933  22.012  0.00  0.00     0.059 A 
ATOM     15 CL   UNL d   1     -45.458  13.371  22.033  0.00  0.00    -0.082 Cl
ATOM     16  C   UNL d   1     -44.616  12.324  22.557  0.00  0.00     0.011 A 
ATOM     17  C   UNL d   1     -43.915  11.892  22.533  0.00  0.00     0.002 A 
ATOM     18  C   UNL d   1     -43.341  12.061  21.968  0.00  0.00     0.019 A 
ENDBRANCH  10  12
ENDBRANCH   8   9
ENDBRANCH   7   8
ENDBRANCH   4   7
BRANCH   2  19
ATOM     19  C   UNL d   1     -39.733  15.264  17.770  0.00  0.00     0.068 A 
ATOM     20  C   UNL d   1     -40.101  15.567  17.089  0.00  0.00     0.089 A 
ATOM     21  N   UNL d   1     -39.496  15.756  16.547  0.00  0.00    -0.238 NA
ATOM     22  C   UNL d   1     -40.903  15.660  16.976  0.00  0.00     0.021 C 
ATOM     23  C   UNL d   1     -38.773  15.571  16.895  0.00  0.00     0.111 A 
ATOM     24  S   UNL d   1     -38.922  15.268  17.649  0.00  0.00    -0.065 SA
ATOM     25  C   UNL d   1     -38.030  15.673  16.542  0.00  0.00     0.028 C 
ENDBRANCH   2  19
TORSDOF 5
ENDMDL
MODEL 7
REMARK VINA RESULT:      -3.9      1.339      2.050
REMARK  5 active torsions:
REMARK  status: ('A' for Active; 'I' for Inactive)
REMARK    1  A    between atoms: C_7  and  C_1 
REMARK    2  A    between atoms: C_9  and  C_17 
REMARK       I    between atoms: N_11  and  C_9 
REMARK    3  A    between atoms: S_12  and  C_10 
REMARK    4  A    between atoms: C_13  and  N_11 
REMARK    5  A    between atoms: C_17  and  S_12 
ROOT
ATOM      1  N   UNL d   1     -46.962  13.150  21.952  0.00  0.00    -0.147 NA
ATOM      2  C   UNL d   1     -47.153  13.610  22.621  0.00  0.00     0.111 A 
ATOM      3  N   UNL d   1     -46.184  12.917  21.830  0.00  0.00    -0.141 NA
ATOM      4  C   UNL d   1     -45.597  13.139  22.368  0.00  0.00     0.133 A 
ATOM      5  C   UNL d   1     -46.571  13.824  23.145  0.00  0.00     0.024 A 
ATOM      6  C   UNL d   1     -45.801  13.594  23.025  0.00  0.00     0.029 A 
ENDROOT
BRANCH   4   7
ATOM      7  S   UNL d   1     -44.815  12.904  22.244  0.00  0.00    -0.061 SA
BRANCH   7   8
ATOM      8  C   UNL d   1     -44.447  13.048  21.516  0.00  0.00     0.099 C 
BRANCH   8   9
ATOM      9  C   UNL d   1     -43.636  13.117  21.479  0.00  0.00     0.286 C 
ATOM     10  N   UNL d   1     -43.287  13.771  21.115  0.00  0.00    -0.208 NA
ATOM     11  O   UNL d   1     -43.145  12.528  21.808  0.00  0.00    -0.265 OA
BRANCH  10  12
ATOM     12  C   UNL d   1     -42.464  13.845  21.076  0.00  0.00     0.086 A 
ATOM     13  C   UNL d   1     -42.120  14.594  21.101  0.00  0.00     0.031 A 
ATOM     14  C   UNL d   1     -41.293  14.672  21.062  0.00  0.00     0.059 A 
ATOM     15 CL   UNL d   1     -40.945  15.426  21.087  0.00  0.00    -0.082 Cl
ATOM     16  C   UNL d   1     -40.826  13.992  20.997  0.00  0.00     0.011 A 
ATOM     17  C   UNL d   1     -41.175  13.246  20.972  0.00  0.00     0.002 A 
ATOM     18  C   UNL d   1     -41.993  13.169  21.011  0.00  0.00     0.019 A 
ENDBRANCH  10  12
ENDBRANCH   8   9
ENDBRANCH   7   8
ENDBRANCH   4   7
BRANCH   2  19
ATOM     19  C   UNL d   1     -47.940  13.843  22.741  0.00  0.00     0.068 A 
ATOM     20  C   UNL d   1     -48.542  13.356  23.043  0.00  0.00     0.089 A 
ATOM     21  N   UNL d   1     -49.238  13.814  23.068  0.00  0.00    -0.238 NA
ATOM     22  C   UNL d   1     -48.464  12.577  23.271  0.00  0.00     0.021 C 
ATOM     23  C   UNL d   1     -49.059  14.567  22.786  0.00  0.00     0.111 A 
ATOM     24  S   UNL d   1     -48.258  14.582  22.584  0.00  0.00    -0.065 SA
ATOM     25  C   UNL d   1     -49.596  15.195  22.718  0.00  0.00     0.028 C 
ENDBRANCH   2  19
TORSDOF 5
ENDMDL
MODEL 8
REMARK VINA RESULT:      -3.2      7.783      9.637
REMARK  5 active torsions:
REMARK  status: ('A' for Active; 'I' for Inactive)
REMARK    1  A    between atoms: C_7  and  C_1 
REMARK    2  A    between atoms: C_9  and  C_17 
REMARK       I    between atoms: N_11  and  C_9 
REMARK    3  A    between atoms: S_12  and  C_10 
REMARK    4  A    between atoms: C_13  and  N_11 
REMARK    5  A    between atoms: C_17  and  S_12 
ROOT
ATOM      1  N   UNL d   1     -39.695  13.965  17.795  0.00  0.00    -0.147 NA
ATOM      2  C   UNL d   1     -39.071  14.392  17.442  0.00  0.00     0.111 A 
ATOM      3  N   UNL d   1     -40.077  14.277  18.452  0.00  0.00    -0.141 NA
ATOM      4  C   UNL d   1     -39.844  15.008  18.758  0.00  0.00     0.133 A 
ATOM      5  C   UNL d   1     -38.847  15.109  17.749  0.00  0.00     0.024 A 
ATOM      6  C   UNL d   1     -39.225  15.419  18.398  0.00  0.00     0.029 A 
ENDROOT
BRANCH   4   7
ATOM      7  S   UNL d   1     -40.229  15.321  19.418  0.00  0.00    -0.061 SA
BRANCH   7   8
ATOM      8  C   UNL d   1     -40.294  14.874  20.113  0.00  0.00     0.099 C 
BRANCH   8   9
ATOM      9  C   UNL d   1     -39.930  15.132  20.795  0.00  0.00     0.286 C 
ATOM     10  N   UNL d   1     -39.811  14.615  21.427  0.00  0.00    -0.208 NA
ATOM     11  O   UNL d   1     -39.672  15.922  20.865  0.00  0.00    -0.265 OA
BRANCH  10  12
ATOM     12  C   UNL d   1     -39.442  14.872  22.121  0.00  0.00     0.086 A 
ATOM     13  C   UNL d   1     -38.879  14.392  22.487  0.00  0.00     0.031 A 
ATOM     14  C   UNL d   1     -38.506  14.647  23.184  0.00  0.00     0.059 A 
ATOM     15 CL   UNL d   1     -37.940  14.165  23.554  0.00  0.00    -0.082 Cl
ATOM     16  C   UNL d   1     -38.706  15.385  23.503  0.00  0.00     0.011 A 
ATOM     17  C   UNL d   1     -39.269  15.860  23.134  0.00  0.00     0.002 A 
ATOM     18  C   UNL d   1     -39.638  15.608  22.443  0.00  0.00     0.019 A 
ENDBRANCH  10  12
ENDBRANCH   8   9
ENDBRANCH   7   8
ENDBRANCH   4   7
BRANCH   2  19
ATOM     19  C   UNL d   1     -38.688  14.074  16.780  0.00  0.00     0.068 A 
ATOM     20  C   UNL d   1     -38.329  13.324  16.749  0.00  0.00     0.089 A 
ATOM     21  N   UNL d   1     -38.015  13.235  15.982  0.00  0.00    -0.238 NA
ATOM     22  C   UNL d   1     -38.294  12.781  17.356  0.00  0.00     0.021 C 
ATOM     23  C   UNL d   1     -38.180  13.920  15.556  0.00  0.00     0.111 A 
ATOM     24  S   UNL d   1     -38.595  14.435  16.050  0.00  0.00    -0.065 SA
ATOM     25  C   UNL d   1     -37.964  14.059  14.768  0.00  0.00     0.028 C 
ENDBRANCH   2  19
TORSDOF 5
ENDMDL
