MODEL 1
REMARK VINA RESULT:       0.9      0.000      0.000
REMARK  8 active torsions:
REMARK  status: ('A' for Active; 'I' for Inactive)
REMARK    1  A    between atoms: C_13  and  C_4 
REMARK    2  A    between atoms: N_16  and  C_5 
REMARK    3  A    between atoms: C_20  and  C_9 
REMARK    4  A    between atoms: N_11  and  C_18 
REMARK    5  A    between atoms: C_21  and  N_16 
REMARK    6  A    between atoms: C_18  and  C_19 
REMARK    7  A    between atoms: C_19  and  C_21 
REMARK    8  A    between atoms: C_24  and  C_20 
ROOT
ATOM      1  N   UNL d   1      58.223  -0.754  30.832  0.00  0.00    -0.184 N 
ATOM      2  C   UNL d   1      58.793  -0.814  30.228  0.00  0.00     0.168 A 
ATOM      3  N   UNL d   1      58.988   0.262  31.453  0.00  0.00    -0.162 NA
ATOM      4  C   UNL d   1      59.448  -0.341  30.242  0.00  0.00     0.055 A 
ATOM      5  C   UNL d   1      57.571  -1.241  30.799  0.00  0.00     0.218 A 
ATOM      6  C   UNL d   1      59.558   0.202  30.849  0.00  0.00     0.104 A 
ATOM      7  N   UNL d   1      58.683  -1.357  29.621  0.00  0.00    -0.227 NA
ATOM      8  C   UNL d   1      57.454  -1.777  30.207  0.00  0.00     0.071 A 
ATOM      9  C   UNL d   1      58.024  -1.836  29.603  0.00  0.00     0.087 A 
ATOM     10  C   UNL d   1      60.214   0.682  30.869  0.00  0.00     0.023 C 
ENDROOT
BRANCH   5  11
ATOM     11  N   UNL d   1      56.984  -1.179  31.422  0.00  0.00    -0.380 NA
BRANCH  11  12
ATOM     12  C   UNL d   1      56.362  -1.174  32.014  0.00  0.00     0.164 C 
BRANCH  12  13
ATOM     13  C   UNL d   1      56.310  -0.527  32.564  0.00  0.00     0.054 C 
BRANCH  13  14
ATOM     14  C   UNL d   1      55.561  -0.330  32.913  0.00  0.00     0.084 C 
BRANCH  14  15
ATOM     15  N   UNL d   1      55.534   0.055  33.661  0.00  0.00    -0.285 N 
ATOM     16  C   UNL d   1      56.197   0.325  34.116  0.00  0.00     0.183 A 
ATOM     17  N   UNL d   1      55.907   0.681  34.834  0.00  0.00    -0.222 NA
ATOM     18  C   UNL d   1      55.063   0.636  34.832  0.00  0.00     0.120 A 
ATOM     19  C   UNL d   1      54.828   0.252  34.113  0.00  0.00     0.102 A 
ENDBRANCH  14  15
ENDBRANCH  13  14
ENDBRANCH  12  13
ENDBRANCH  11  12
ENDBRANCH   5  11
BRANCH   9  20
ATOM     20  C   UNL d   1      57.914  -2.399  28.968  0.00  0.00     0.019 C 
BRANCH  20  21
ATOM     21  C   UNL d   1      57.952  -3.249  29.122  0.00  0.00     0.002 C 
ATOM     22  C   UNL d   1      58.269  -3.776  28.538  0.00  0.00     0.000 C 
ENDBRANCH  20  21
ENDBRANCH   9  20
BRANCH   4  23
ATOM     23  C   UNL d   1      60.009  -0.400  29.646  0.00  0.00     0.004 A 
ATOM     24  C   UNL d   1      60.091   0.211  29.107  0.00  0.00     0.000 A 
ATOM     25  C   UNL d   1      60.653   0.152  28.512  0.00  0.00     0.000 A 
ATOM     26  C   UNL d   1      61.133  -0.517  28.455  0.00  0.00     0.000 A 
ATOM     27  C   UNL d   1      61.051  -1.131  28.996  0.00  0.00     0.000 A 
ATOM     28  C   UNL d   1      60.480  -1.071  29.601  0.00  0.00     0.000 A 
ENDBRANCH   4  23
TORSDOF 8
ENDMDL
MODEL 2
REMARK VINA RESULT:       2.6      1.157      2.546
REMARK  8 active torsions:
REMARK  status: ('A' for Active; 'I' for Inactive)
REMARK    1  A    between atoms: C_13  and  C_4 
REMARK    2  A    between atoms: N_16  and  C_5 
REMARK    3  A    between atoms: C_20  and  C_9 
REMARK    4  A    between atoms: N_11  and  C_18 
REMARK    5  A    between atoms: C_21  and  N_16 
REMARK    6  A    between atoms: C_18  and  C_19 
REMARK    7  A    between atoms: C_19  and  C_21 
REMARK    8  A    between atoms: C_24  and  C_20 
ROOT
ATOM      1  N   UNL d   1      58.245  -0.810  30.065  0.00  0.00    -0.184 N 
ATOM      2  C   UNL d   1      58.960  -1.114  29.764  0.00  0.00     0.168 A 
ATOM      3  N   UNL d   1      57.635  -2.075  29.891  0.00  0.00    -0.162 NA
ATOM      4  C   UNL d   1      59.005  -1.885  29.531  0.00  0.00     0.055 A 
ATOM      5  C   UNL d   1      58.222  -0.030  30.294  0.00  0.00     0.218 A 
ATOM      6  C   UNL d   1      58.350  -2.378  29.589  0.00  0.00     0.104 A 
ATOM      7  N   UNL d   1      59.615  -0.621  29.705  0.00  0.00    -0.227 NA
ATOM      8  C   UNL d   1      58.859   0.462  30.241  0.00  0.00     0.071 A 
ATOM      9  C   UNL d   1      59.574   0.159  29.939  0.00  0.00     0.087 A 
ATOM     10  C   UNL d   1      58.388  -3.157  29.357  0.00  0.00     0.023 C 
ENDROOT
BRANCH   5  11
ATOM     11  N   UNL d   1      57.485   0.283  30.605  0.00  0.00    -0.380 NA
BRANCH  11  12
ATOM     12  C   UNL d   1      56.787   0.652  30.942  0.00  0.00     0.164 C 
BRANCH  12  13
ATOM     13  C   UNL d   1      56.692   0.679  31.787  0.00  0.00     0.054 C 
BRANCH  13  14
ATOM     14  C   UNL d   1      55.915   0.613  32.126  0.00  0.00     0.084 C 
BRANCH  14  15
ATOM     15  N   UNL d   1      55.817   0.271  32.888  0.00  0.00    -0.285 N 
ATOM     16  C   UNL d   1      55.477  -0.486  33.063  0.00  0.00     0.183 A 
ATOM     17  N   UNL d   1      55.492  -0.601  33.908  0.00  0.00    -0.222 NA
ATOM     18  C   UNL d   1      55.841   0.080  34.264  0.00  0.00     0.120 A 
ATOM     19  C   UNL d   1      56.043   0.621  33.642  0.00  0.00     0.102 A 
ENDBRANCH  14  15
ENDBRANCH  13  14
ENDBRANCH  12  13
ENDBRANCH  11  12
ENDBRANCH   5  11
BRANCH   9  20
ATOM     20  C   UNL d   1      60.259   0.668  29.876  0.00  0.00     0.019 C 
BRANCH  20  21
ATOM     21  C   UNL d   1      60.969   0.509  30.343  0.00  0.00     0.002 C 
ATOM     22  C   UNL d   1      60.982   0.679  31.173  0.00  0.00     0.000 C 
ENDBRANCH  20  21
ENDBRANCH   9  20
BRANCH   4  23
ATOM     23  C   UNL d   1      59.710  -2.184  29.234  0.00  0.00     0.004 A 
ATOM     24  C   UNL d   1      60.177  -1.713  28.755  0.00  0.00     0.000 A 
ATOM     25  C   UNL d   1      60.882  -2.012  28.457  0.00  0.00     0.000 A 
ATOM     26  C   UNL d   1      61.118  -2.781  28.639  0.00  0.00     0.000 A 
ATOM     27  C   UNL d   1      60.650  -3.255  29.120  0.00  0.00     0.000 A 
ATOM     28  C   UNL d   1      59.934  -2.952  29.423  0.00  0.00     0.000 A 
ENDBRANCH   4  23
TORSDOF 8
ENDMDL
