MODEL 1
REMARK VINA RESULT:     -10.2      0.000      0.000
REMARK  4 active torsions:
REMARK  status: ('A' for Active; 'I' for Inactive)
REMARK    1  A    between atoms: C_10  and  N_1 
REMARK    2  A    between atoms: C_14  and  C_10 
REMARK    3  A    between atoms: O_16  and  C_12 
REMARK    4  A    between atoms: C_19  and  O_16 
ROOT
ATOM      1  N   UNL d   1      53.552  32.103  53.262  0.00  0.00    -0.260 N 
ATOM      2  C   UNL d   1      52.863  32.443  53.043  0.00  0.00     0.174 A 
ATOM      3  C   UNL d   1      54.170  32.314  53.725  0.00  0.00     0.348 A 
ATOM      4  O   UNL d   1      52.500  33.140  53.196  0.00  0.00    -0.314 OA
ATOM      5  N   UNL d   1      54.349  32.954  54.158  0.00  0.00    -0.216 NA
ATOM      6  C   UNL d   1      53.986  33.655  54.313  0.00  0.00     0.137 A 
ATOM      7  C   UNL d   1      53.699  32.826  53.720  0.00  0.00     0.079 A 
ATOM      8  C   UNL d   1      52.688  33.783  53.636  0.00  0.00     0.116 A 
ATOM      9  C   UNL d   1      53.300  33.992  54.094  0.00  0.00     0.025 A 
ATOM     10  O   UNL d   1      54.730  31.755  53.756  0.00  0.00    -0.245 OA
ATOM     11  C   UNL d   1      52.069  34.287  53.542  0.00  0.00     0.122 A 
ATOM     12  C   UNL d   1      52.325  32.096  52.556  0.00  0.00     0.055 C 
ATOM     13  C   UNL d   1      53.307  34.702  54.465  0.00  0.00    -0.000 A 
ATOM     14  C   UNL d   1      52.689  35.203  54.370  0.00  0.00     0.002 A 
ATOM     15  C   UNL d   1      52.069  34.995  53.908  0.00  0.00     0.027 A 
ENDROOT
BRANCH   1  16
ATOM     16  C   UNL d   1      53.822  31.356  53.031  0.00  0.00     0.082 C 
BRANCH  16  17
ATOM     17  C   UNL d   1      53.459  30.675  53.342  0.00  0.00     0.017 A 
ATOM     18  C   UNL d   1      53.717  30.363  54.065  0.00  0.00     0.002 A 
ATOM     19  C   UNL d   1      53.353  29.681  54.377  0.00  0.00     0.000 A 
ATOM     20  C   UNL d   1      52.733  29.315  53.962  0.00  0.00     0.000 A 
ATOM     21  C   UNL d   1      52.479  29.635  53.235  0.00  0.00     0.000 A 
ATOM     22  C   UNL d   1      52.841  30.310  52.929  0.00  0.00     0.002 A 
ENDBRANCH  16  17
ENDBRANCH   1  16
BRANCH  11  23
ATOM     23  O   UNL d   1      51.431  34.069  53.065  0.00  0.00    -0.303 OA
BRANCH  23  24
ATOM     24  C   UNL d   1      50.767  34.557  53.018  0.00  0.00     0.123 C 
ATOM     25  C   UNL d   1      50.143  34.353  52.509  0.00  0.00     0.029 C 
ENDBRANCH  23  24
ENDBRANCH  11  23
TORSDOF 4
ENDMDL
MODEL 2
REMARK VINA RESULT:      -9.4      1.075      3.650
REMARK  4 active torsions:
REMARK  status: ('A' for Active; 'I' for Inactive)
REMARK    1  A    between atoms: C_10  and  N_1 
REMARK    2  A    between atoms: C_14  and  C_10 
REMARK    3  A    between atoms: O_16  and  C_12 
REMARK    4  A    between atoms: C_19  and  O_16 
ROOT
ATOM      1  N   UNL d   1      52.491  34.161  53.069  0.00  0.00    -0.260 N 
ATOM      2  C   UNL d   1      52.600  33.371  53.031  0.00  0.00     0.174 A 
ATOM      3  C   UNL d   1      52.720  34.744  53.568  0.00  0.00     0.348 A 
ATOM      4  O   UNL d   1      52.985  32.828  53.477  0.00  0.00    -0.314 OA
ATOM      5  N   UNL d   1      53.153  34.772  54.231  0.00  0.00    -0.216 NA
ATOM      6  C   UNL d   1      53.541  34.229  54.681  0.00  0.00     0.137 A 
ATOM      7  C   UNL d   1      52.972  34.136  53.792  0.00  0.00     0.079 A 
ATOM      8  C   UNL d   1      53.422  32.864  54.148  0.00  0.00     0.116 A 
ATOM      9  C   UNL d   1      53.649  33.442  54.641  0.00  0.00     0.025 A 
ATOM     10  O   UNL d   1      52.452  35.455  53.344  0.00  0.00    -0.245 OA
ATOM     11  C   UNL d   1      53.645  32.105  54.292  0.00  0.00     0.122 A 
ATOM     12  C   UNL d   1      52.297  32.902  52.451  0.00  0.00     0.055 C 
ATOM     13  C   UNL d   1      54.099  33.276  55.282  0.00  0.00    -0.000 A 
ATOM     14  C   UNL d   1      54.321  32.520  55.423  0.00  0.00     0.002 A 
ATOM     15  C   UNL d   1      54.094  31.933  54.927  0.00  0.00     0.027 A 
ENDROOT
BRANCH   1  16
ATOM     16  C   UNL d   1      52.060  34.619  52.534  0.00  0.00     0.082 C 
BRANCH  16  17
ATOM     17  C   UNL d   1      51.233  34.531  52.491  0.00  0.00     0.017 A 
ATOM     18  C   UNL d   1      50.760  34.743  53.139  0.00  0.00     0.002 A 
ATOM     19  C   UNL d   1      49.933  34.654  53.096  0.00  0.00     0.000 A 
ATOM     20  C   UNL d   1      49.583  34.354  52.404  0.00  0.00     0.000 A 
ATOM     21  C   UNL d   1      50.065  34.143  51.757  0.00  0.00     0.000 A 
ATOM     22  C   UNL d   1      50.884  34.232  51.803  0.00  0.00     0.002 A 
ENDBRANCH  16  17
ENDBRANCH   1  16
BRANCH  11  23
ATOM     23  O   UNL d   1      53.409  31.503  53.778  0.00  0.00    -0.303 OA
BRANCH  23  24
ATOM     24  C   UNL d   1      53.667  30.731  53.904  0.00  0.00     0.123 C 
ATOM     25  C   UNL d   1      53.355  30.113  53.444  0.00  0.00     0.029 C 
ENDBRANCH  23  24
ENDBRANCH  11  23
TORSDOF 4
ENDMDL
MODEL 3
REMARK VINA RESULT:      -9.4      1.038      2.207
REMARK  4 active torsions:
REMARK  status: ('A' for Active; 'I' for Inactive)
REMARK    1  A    between atoms: C_10  and  N_1 
REMARK    2  A    between atoms: C_14  and  C_10 
REMARK    3  A    between atoms: O_16  and  C_12 
REMARK    4  A    between atoms: C_19  and  O_16 
ROOT
ATOM      1  N   UNL d   1      53.217  31.778  53.024  0.00  0.00    -0.260 N 
ATOM      2  C   UNL d   1      53.705  32.148  53.536  0.00  0.00     0.174 A 
ATOM      3  C   UNL d   1      52.540  31.970  52.640  0.00  0.00     0.348 A 
ATOM      4  O   UNL d   1      53.723  32.871  53.882  0.00  0.00    -0.314 OA
ATOM      5  N   UNL d   1      52.079  32.614  52.615  0.00  0.00    -0.216 NA
ATOM      6  C   UNL d   1      52.095  33.341  52.961  0.00  0.00     0.137 A 
ATOM      7  C   UNL d   1      52.746  32.508  53.032  0.00  0.00     0.079 A 
ATOM      8  C   UNL d   1      53.252  33.517  53.850  0.00  0.00     0.116 A 
ATOM      9  C   UNL d   1      52.582  33.708  53.470  0.00  0.00     0.025 A 
ATOM     10  O   UNL d   1      52.274  31.381  52.183  0.00  0.00    -0.245 OA
ATOM     11  C   UNL d   1      53.599  34.053  54.340  0.00  0.00     0.122 A 
ATOM     12  C   UNL d   1      54.368  31.815  53.846  0.00  0.00     0.055 C 
ATOM     13  C   UNL d   1      52.249  34.429  53.570  0.00  0.00    -0.000 A 
ATOM     14  C   UNL d   1      52.597  34.961  54.058  0.00  0.00     0.002 A 
ATOM     15  C   UNL d   1      53.273  34.772  54.443  0.00  0.00     0.027 A 
ENDROOT
BRANCH   1  16
ATOM     16  C   UNL d   1      53.307  31.009  52.733  0.00  0.00     0.082 C 
BRANCH  16  17
ATOM     17  C   UNL d   1      53.150  30.362  53.232  0.00  0.00     0.017 A 
ATOM     18  C   UNL d   1      52.387  30.036  53.259  0.00  0.00     0.002 A 
ATOM     19  C   UNL d   1      52.230  29.388  53.757  0.00  0.00     0.000 A 
ATOM     20  C   UNL d   1      52.836  29.069  54.228  0.00  0.00     0.000 A 
ATOM     21  C   UNL d   1      53.600  29.401  54.195  0.00  0.00     0.000 A 
ATOM     22  C   UNL d   1      53.753  30.043  53.700  0.00  0.00     0.002 A 
ENDBRANCH  16  17
ENDBRANCH   1  16
BRANCH  11  23
ATOM     23  O   UNL d   1      54.297  33.854  54.735  0.00  0.00    -0.303 OA
BRANCH  23  24
ATOM     24  C   UNL d   1      54.656  34.404  55.234  0.00  0.00     0.123 C 
ATOM     25  C   UNL d   1      55.376  34.213  55.603  0.00  0.00     0.029 C 
ENDBRANCH  23  24
ENDBRANCH  11  23
TORSDOF 4
ENDMDL
MODEL 4
REMARK VINA RESULT:      -8.1      1.458      4.154
REMARK  4 active torsions:
REMARK  status: ('A' for Active; 'I' for Inactive)
REMARK    1  A    between atoms: C_10  and  N_1 
REMARK    2  A    between atoms: C_14  and  C_10 
REMARK    3  A    between atoms: O_16  and  C_12 
REMARK    4  A    between atoms: C_19  and  O_16 
ROOT
ATOM      1  N   UNL d   1      53.334  32.492  54.073  0.00  0.00    -0.260 N 
ATOM      2  C   UNL d   1      53.439  31.803  54.463  0.00  0.00     0.174 A 
ATOM      3  C   UNL d   1      53.099  32.701  53.337  0.00  0.00     0.348 A 
ATOM      4  O   UNL d   1      53.353  31.028  54.280  0.00  0.00    -0.314 OA
ATOM      5  N   UNL d   1      52.872  32.301  52.691  0.00  0.00    -0.216 NA
ATOM      6  C   UNL d   1      52.784  31.523  52.504  0.00  0.00     0.137 A 
ATOM      7  C   UNL d   1      53.094  32.007  53.394  0.00  0.00     0.079 A 
ATOM      8  C   UNL d   1      53.123  30.632  53.623  0.00  0.00     0.116 A 
ATOM      9  C   UNL d   1      52.889  30.838  52.893  0.00  0.00     0.025 A 
ATOM     10  O   UNL d   1      53.091  33.485  53.232  0.00  0.00    -0.245 OA
ATOM     11  C   UNL d   1      53.163  29.854  53.824  0.00  0.00     0.122 A 
ATOM     12  C   UNL d   1      53.689  31.752  55.226  0.00  0.00     0.055 C 
ATOM     13  C   UNL d   1      52.693  30.278  52.356  0.00  0.00    -0.000 A 
ATOM     14  C   UNL d   1      52.734  29.504  52.558  0.00  0.00     0.002 A 
ATOM     15  C   UNL d   1      52.969  29.292  53.294  0.00  0.00     0.027 A 
ENDROOT
BRANCH   1  16
ATOM     16  C   UNL d   1      53.461  33.249  54.380  0.00  0.00     0.082 C 
BRANCH  16  17
ATOM     17  C   UNL d   1      54.235  33.489  54.572  0.00  0.00     0.017 A 
ATOM     18  C   UNL d   1      54.798  33.589  53.971  0.00  0.00     0.002 A 
ATOM     19  C   UNL d   1      55.572  33.829  54.164  0.00  0.00     0.000 A 
ATOM     20  C   UNL d   1      55.779  33.968  54.957  0.00  0.00     0.000 A 
ATOM     21  C   UNL d   1      55.207  33.866  55.555  0.00  0.00     0.000 A 
ATOM     22  C   UNL d   1      54.442  33.628  55.361  0.00  0.00     0.002 A 
ENDBRANCH  16  17
ENDBRANCH   1  16
BRANCH  11  23
ATOM     23  O   UNL d   1      53.406  29.639  54.584  0.00  0.00    -0.303 OA
BRANCH  23  24
ATOM     24  C   UNL d   1      53.423  28.844  54.799  0.00  0.00     0.123 C 
ATOM     25  C   UNL d   1      53.447  28.637  55.604  0.00  0.00     0.029 C 
ENDBRANCH  23  24
ENDBRANCH  11  23
TORSDOF 4
ENDMDL
MODEL 5
REMARK VINA RESULT:      -7.7      1.286      3.926
REMARK  4 active torsions:
REMARK  status: ('A' for Active; 'I' for Inactive)
REMARK    1  A    between atoms: C_10  and  N_1 
REMARK    2  A    between atoms: C_14  and  C_10 
REMARK    3  A    between atoms: O_16  and  C_12 
REMARK    4  A    between atoms: C_19  and  O_16 
ROOT
ATOM      1  N   UNL d   1      52.148  33.792  52.697  0.00  0.00    -0.260 N 
ATOM      2  C   UNL d   1      52.657  33.962  53.287  0.00  0.00     0.174 A 
ATOM      3  C   UNL d   1      51.912  33.125  52.321  0.00  0.00     0.348 A 
ATOM      4  O   UNL d   1      53.149  33.536  53.754  0.00  0.00    -0.314 OA
ATOM      5  N   UNL d   1      52.094  32.356  52.386  0.00  0.00    -0.216 NA
ATOM      6  C   UNL d   1      52.587  31.925  52.854  0.00  0.00     0.137 A 
ATOM      7  C   UNL d   1      52.381  32.963  52.809  0.00  0.00     0.079 A 
ATOM      8  C   UNL d   1      53.326  32.757  53.814  0.00  0.00     0.116 A 
ATOM      9  C   UNL d   1      53.094  32.096  53.442  0.00  0.00     0.025 A 
ATOM     10  O   UNL d   1      51.377  33.269  51.756  0.00  0.00    -0.245 OA
ATOM     11  C   UNL d   1      53.870  32.712  54.404  0.00  0.00     0.122 A 
ATOM     12  C   UNL d   1      52.791  34.705  53.565  0.00  0.00     0.055 C 
ATOM     13  C   UNL d   1      53.396  31.385  53.650  0.00  0.00    -0.000 A 
ATOM     14  C   UNL d   1      53.937  31.342  54.239  0.00  0.00     0.002 A 
ATOM     15  C   UNL d   1      54.175  32.007  54.616  0.00  0.00     0.027 A 
ENDROOT
BRANCH   1  16
ATOM     16  C   UNL d   1      51.684  34.336  52.281  0.00  0.00     0.082 C 
BRANCH  16  17
ATOM     17  C   UNL d   1      50.908  34.494  52.539  0.00  0.00     0.017 A 
ATOM     18  C   UNL d   1      50.779  34.804  53.297  0.00  0.00     0.002 A 
ATOM     19  C   UNL d   1      50.003  34.961  53.554  0.00  0.00     0.000 A 
ATOM     20  C   UNL d   1      49.359  34.808  53.051  0.00  0.00     0.000 A 
ATOM     21  C   UNL d   1      49.497  34.496  52.290  0.00  0.00     0.000 A 
ATOM     22  C   UNL d   1      50.267  34.341  52.038  0.00  0.00     0.002 A 
ENDBRANCH  16  17
ENDBRANCH   1  16
BRANCH  11  23
ATOM     23  O   UNL d   1      54.113  33.400  54.792  0.00  0.00    -0.303 OA
BRANCH  23  24
ATOM     24  C   UNL d   1      54.731  33.368  55.337  0.00  0.00     0.123 C 
ATOM     25  C   UNL d   1      55.123  34.068  55.553  0.00  0.00     0.029 C 
ENDBRANCH  23  24
ENDBRANCH  11  23
TORSDOF 4
ENDMDL
