MODEL 1
REMARK VINA RESULT:      33.7      0.000      0.000
REMARK  5 active torsions:
REMARK  status: ('A' for Active; 'I' for Inactive)
REMARK       I    between atoms: C_3  and  N_1 
REMARK    1  A    between atoms: C_8  and  N_2 
REMARK    2  A    between atoms: C_11  and  C_3 
REMARK    3  A    between atoms: S_10  and  C_11 
REMARK    4  A    between atoms: C_13  and  S_10 
REMARK    5  A    between atoms: C_12  and  C_13 
ROOT
ATOM      1  N   UNL d   1      46.043 -18.506  40.753  0.00  0.00    -0.269 N 
ATOM      2  N   UNL d   1      46.246 -19.019  42.304  0.00  0.00    -0.301 N 
ATOM      3  C   UNL d   1      45.937 -18.242  39.969  0.00  0.00     0.259 C 
ATOM      4  C   UNL d   1      45.643 -18.129  41.363  0.00  0.00     0.102 A 
ATOM      5  C   UNL d   1      46.545 -19.139  40.916  0.00  0.00     0.102 A 
ATOM      6  C   UNL d   1      46.647 -19.396  41.689  0.00  0.00     0.100 A 
ATOM      7  C   UNL d   1      45.744 -18.385  42.141  0.00  0.00     0.100 A 
ATOM      8  O   UNL d   1      46.332 -18.610  39.342  0.00  0.00    -0.267 OA
ENDROOT
BRANCH   3   9
ATOM      9  C   UNL d   1      45.426 -17.598  39.807  0.00  0.00     0.125 C 
BRANCH   9  10
ATOM     10  S   UNL d   1      45.306 -17.367  39.038  0.00  0.00    -0.094 SA
BRANCH  10  11
ATOM     11  C   UNL d   1      44.847 -16.701  38.878  0.00  0.00     0.035 C 
BRANCH  11  12
ATOM     12  C   UNL d   1      44.885 -16.341  38.141  0.00  0.00     0.006 A 
ATOM     13  C   UNL d   1      44.342 -16.549  37.554  0.00  0.00     0.001 A 
ATOM     14  C   UNL d   1      44.379 -16.188  36.813  0.00  0.00     0.000 A 
ATOM     15  C   UNL d   1      44.956 -15.621  36.658  0.00  0.00     0.000 A 
ATOM     16  C   UNL d   1      45.498 -15.413  37.244  0.00  0.00     0.000 A 
ATOM     17  C   UNL d   1      45.462 -15.773  37.986  0.00  0.00     0.001 A 
ENDBRANCH  11  12
ENDBRANCH  10  11
ENDBRANCH   9  10
ENDBRANCH   3   9
BRANCH   2  18
ATOM     18  C   UNL d   1      46.349 -19.276  43.072  0.00  0.00     0.064 A 
ATOM     19  C   UNL d   1      46.264 -20.074  43.258  0.00  0.00     0.018 A 
ATOM     20  C   UNL d   1      46.369 -20.330  44.036  0.00  0.00     0.002 A 
ATOM     21  C   UNL d   1      46.559 -19.786  44.627  0.00  0.00     0.000 A 
ATOM     22  C   UNL d   1      46.644 -18.988  44.440  0.00  0.00     0.002 A 
ATOM     23  C   UNL d   1      46.539 -18.732  43.664  0.00  0.00     0.018 A 
ENDBRANCH   2  18
TORSDOF 5
ENDMDL
