MODEL 1
REMARK VINA RESULT:      50.5      0.000      0.000
REMARK  3 active torsions:
REMARK  status: ('A' for Active; 'I' for Inactive)
REMARK    1  A    between atoms: C_11  and  C_3 
REMARK    2  A    between atoms: O_13  and  C_10 
REMARK    3  A    between atoms: C_21  and  O_13 
ROOT
ATOM      1  C   UNL d   1     -50.687  25.388  33.638  0.00  0.00     0.203 A 
ATOM      2  C   UNL d   1     -51.331  24.881  33.558  0.00  0.00     0.101 A 
ATOM      3  C   UNL d   1     -50.812  26.196  33.740  0.00  0.00     0.064 A 
ATOM      4  C   UNL d   1     -52.099  25.182  33.580  0.00  0.00     0.108 A 
ATOM      5  C   UNL d   1     -51.206  24.074  33.456  0.00  0.00     0.203 A 
ATOM      6  C   UNL d   1     -51.580  26.496  33.762  0.00  0.00     0.126 A 
ATOM      7  O   UNL d   1     -52.224  25.990  33.683  0.00  0.00    -0.305 OA
ATOM      8  C   UNL d   1     -52.743  24.675  33.501  0.00  0.00     0.050 A 
ATOM      9  C   UNL d   1     -51.852  23.563  33.376  0.00  0.00     0.067 A 
ATOM     10  C   UNL d   1     -52.620  23.864  33.398  0.00  0.00     0.105 A 
ATOM     11  O   UNL d   1     -49.919  25.088  33.616  0.00  0.00    -0.286 OA
ATOM     12  O   UNL d   1     -50.439  23.774  33.434  0.00  0.00    -0.286 OA
ENDROOT
BRANCH   3  13
ATOM     13  C   UNL d   1     -50.167  26.703  33.820  0.00  0.00     0.005 A 
ATOM     14  C   UNL d   1     -50.162  27.285  34.418  0.00  0.00     0.003 A 
ATOM     15  C   UNL d   1     -49.518  27.791  34.498  0.00  0.00     0.042 A 
ATOM     16  C   UNL d   1     -48.871  27.725  33.984  0.00  0.00     0.196 A 
ATOM     17  C   UNL d   1     -48.877  27.143  33.387  0.00  0.00     0.042 A 
ATOM     18  O   UNL d   1     -48.227  28.233  34.064  0.00  0.00    -0.287 OA
ATOM     19  C   UNL d   1     -49.520  26.637  33.306  0.00  0.00     0.003 A 
ENDBRANCH   3  13
BRANCH  10  20
ATOM     20  O   UNL d   1     -53.267  23.349  33.317  0.00  0.00    -0.307 OA
BRANCH  20  21
ATOM     21  C   UNL d   1     -53.861  23.329  33.885  0.00  0.00     0.100 C 
ATOM     22  C   UNL d   1     -54.647  23.205  33.661  0.00  0.00     0.027 C 
ATOM     23  C   UNL d   1     -53.676  23.433  34.683  0.00  0.00     0.027 C 
ENDBRANCH  20  21
ENDBRANCH  10  20
TORSDOF 3
ENDMDL
MODEL 2
REMARK VINA RESULT:      50.7      0.880      4.461
REMARK  3 active torsions:
REMARK  status: ('A' for Active; 'I' for Inactive)
REMARK    1  A    between atoms: C_11  and  C_3 
REMARK    2  A    between atoms: O_13  and  C_10 
REMARK    3  A    between atoms: C_21  and  O_13 
ROOT
ATOM      1  C   UNL d   1     -51.295  24.708  33.425  0.00  0.00     0.203 A 
ATOM      2  C   UNL d   1     -50.616  25.176  33.407  0.00  0.00     0.101 A 
ATOM      3  C   UNL d   1     -52.035  25.063  33.481  0.00  0.00     0.064 A 
ATOM      4  C   UNL d   1     -50.680  25.998  33.445  0.00  0.00     0.108 A 
ATOM      5  C   UNL d   1     -49.876  24.821  33.352  0.00  0.00     0.203 A 
ATOM      6  C   UNL d   1     -52.098  25.885  33.518  0.00  0.00     0.126 A 
ATOM      7  O   UNL d   1     -51.421  26.353  33.500  0.00  0.00    -0.305 OA
ATOM      8  C   UNL d   1     -50.002  26.465  33.426  0.00  0.00     0.050 A 
ATOM      9  C   UNL d   1     -49.194  25.289  33.333  0.00  0.00     0.067 A 
ATOM     10  C   UNL d   1     -49.257  26.110  33.371  0.00  0.00     0.105 A 
ATOM     11  O   UNL d   1     -51.231  23.887  33.388  0.00  0.00    -0.286 OA
ATOM     12  O   UNL d   1     -49.813  24.000  33.314  0.00  0.00    -0.286 OA
ENDROOT
BRANCH   3  13
ATOM     13  C   UNL d   1     -52.713  24.596  33.499  0.00  0.00     0.005 A 
ATOM     14  C   UNL d   1     -53.455  24.924  33.306  0.00  0.00     0.003 A 
ATOM     15  C   UNL d   1     -54.133  24.456  33.324  0.00  0.00     0.042 A 
ATOM     16  C   UNL d   1     -54.080  23.656  33.535  0.00  0.00     0.196 A 
ATOM     17  C   UNL d   1     -53.338  23.329  33.729  0.00  0.00     0.042 A 
ATOM     18  O   UNL d   1     -54.758  23.190  33.553  0.00  0.00    -0.287 OA
ATOM     19  C   UNL d   1     -52.661  23.796  33.711  0.00  0.00     0.003 A 
ENDBRANCH   3  13
BRANCH  10  20
ATOM     20  O   UNL d   1     -48.571  26.579  33.352  0.00  0.00    -0.307 OA
BRANCH  20  21
ATOM     21  C   UNL d   1     -48.377  27.066  33.986  0.00  0.00     0.100 C 
ATOM     22  C   UNL d   1     -48.520  27.878  33.945  0.00  0.00     0.027 C 
ATOM     23  C   UNL d   1     -48.039  26.744  34.667  0.00  0.00     0.027 C 
ENDBRANCH  20  21
ENDBRANCH  10  20
TORSDOF 3
ENDMDL
