MODEL 1
REMARK VINA RESULT:      28.0      0.000      0.000
REMARK  7 active torsions:
REMARK  status: ('A' for Active; 'I' for Inactive)
REMARK    1  A    between atoms: C_2  and  S_1 
REMARK    2  A    between atoms: N_3  and  S_1 
REMARK    3  A    between atoms: C_5  and  C_7 
REMARK       I    between atoms: N_9  and  C_5 
REMARK    4  A    between atoms: C_8  and  N_6 
REMARK    5  A    between atoms: C_21  and  N_9 
REMARK    6  A    between atoms: O_28  and  C_23 
REMARK    7  A    between atoms: C_31  and  O_28 
ROOT
ATOM      1  C   UNL d   1     -41.684-122.429 -52.315  0.00  0.00     0.132 A 
ATOM      2  C   UNL d   1     -41.644-121.638 -52.526  0.00  0.00     0.020 A 
ATOM      3  C   UNL d   1     -41.545-121.434 -53.319  0.00  0.00     0.059 A 
ATOM      4  C   UNL d   1     -41.627-123.022 -52.894  0.00  0.00     0.152 A 
ATOM      5  C   UNL d   1     -41.488-122.026 -53.899  0.00  0.00     0.007 A 
ATOM      6  C   UNL d   1     -41.529-122.822 -53.683  0.00  0.00     0.030 A 
ATOM      7  F   UNL d   1     -41.668-123.816 -52.679  0.00  0.00    -0.203 F 
ENDROOT
BRANCH   1   8
ATOM      8  S   UNL d   1     -41.783-122.628 -51.518  0.00  0.00     0.274 S 
ATOM      9  O   UNL d   1     -41.181-123.189 -51.577  0.00  0.00    -0.200 OA
ATOM     10  O   UNL d   1     -42.385-122.068 -51.457  0.00  0.00    -0.200 OA
BRANCH   8  11
ATOM     11  N   UNL d   1     -41.886-122.824 -50.722  0.00  0.00    -0.226 N 
ATOM     12  C   UNL d   1     -42.634-122.792 -50.387  0.00  0.00     0.111 A 
ATOM     13  C   UNL d   1     -42.732-122.989 -49.590  0.00  0.00     0.101 A 
ATOM     14  N   UNL d   1     -42.081-123.215 -49.136  0.00  0.00    -0.286 N 
ATOM     15  C   UNL d   1     -41.342-123.242 -49.483  0.00  0.00     0.101 A 
ATOM     16  C   UNL d   1     -41.235-123.050 -50.268  0.00  0.00     0.111 A 
BRANCH  14  17
ATOM     17  C   UNL d   1     -42.186-123.409 -48.345  0.00  0.00     0.148 A 
ATOM     18  N   UNL d   1     -42.941-123.459 -48.027  0.00  0.00    -0.227 NA
ATOM     19  C   UNL d   1     -43.044-123.654 -47.232  0.00  0.00     0.101 A 
ATOM     20  C   UNL d   1     -42.381-123.798 -46.759  0.00  0.00     0.021 A 
ATOM     21  C   UNL d   1     -41.620-123.748 -47.079  0.00  0.00     0.005 A 
ATOM     22  C   UNL d   1     -41.527-123.554 -47.870  0.00  0.00     0.037 A 
ENDBRANCH  14  17
ENDBRANCH   8  11
ENDBRANCH   1   8
BRANCH   3  23
ATOM     23  C   UNL d   1     -41.502-120.641 -53.548  0.00  0.00     0.279 C 
ATOM     24  N   UNL d   1     -41.327-120.065 -52.979  0.00  0.00    -0.208 NA
ATOM     25  O   UNL d   1     -41.629-120.422 -54.323  0.00  0.00    -0.265 OA
BRANCH  24  26
ATOM     26  C   UNL d   1     -41.283-119.271 -53.201  0.00  0.00     0.085 A 
ATOM     27  C   UNL d   1     -41.329-119.057 -53.993  0.00  0.00     0.021 A 
ATOM     28  C   UNL d   1     -41.284-118.265 -54.212  0.00  0.00     0.026 A 
ATOM     29  C   UNL d   1     -41.192-117.666 -53.633  0.00  0.00     0.100 A 
ATOM     30  C   UNL d   1     -41.146-117.890 -52.834  0.00  0.00     0.026 A 
ATOM     31  C   UNL d   1     -41.190-118.680 -52.613  0.00  0.00     0.021 A 
BRANCH  29  32
ATOM     32  O   UNL d   1     -41.148-116.881 -53.854  0.00  0.00    -0.305 OA
BRANCH  32  33
ATOM     33  C   UNL d   1     -41.372-116.287 -53.328  0.00  0.00     0.123 C 
ATOM     34  C   UNL d   1     -41.262-115.492 -53.531  0.00  0.00     0.029 C 
ENDBRANCH  32  33
ENDBRANCH  29  32
ENDBRANCH  24  26
ENDBRANCH   3  23
TORSDOF 7
ENDMDL
