MODEL 1
REMARK VINA RESULT:      10.3      0.000      0.000
REMARK  1 active torsions:
REMARK  status: ('A' for Active; 'I' for Inactive)
REMARK    1  A    between atoms: C_6  and  C_1 
ROOT
ATOM      1  C   UNL d   1      43.980 -15.460  36.644  0.00  0.00     0.163 A 
ATOM      2  N   UNL d   1      44.211 -14.802  37.085  0.00  0.00    -0.225 NA
ATOM      3  N   UNL d   1      44.652 -15.839  36.330  0.00  0.00    -0.225 NA
ATOM      4  C   UNL d   1      45.043 -14.752  37.058  0.00  0.00     0.101 A 
ATOM      5  C   UNL d   1      45.319 -15.401  36.586  0.00  0.00     0.101 A 
ATOM      6  C   UNL d   1      45.583 -14.242  37.373  0.00  0.00     0.021 A 
ATOM      7  C   UNL d   1      46.117 -15.496  36.461  0.00  0.00     0.021 A 
ATOM      8  C   UNL d   1      46.390 -14.355  37.235  0.00  0.00     0.002 A 
ATOM      9  C   UNL d   1      46.647 -14.959  36.795  0.00  0.00     0.002 A 
ENDROOT
BRANCH   1  10
ATOM     10  C   UNL d   1      43.192 -15.689  36.543  0.00  0.00     0.039 A 
ATOM     11  C   UNL d   1      42.967 -16.477  36.455  0.00  0.00     0.024 A 
ATOM     12  C   UNL d   1      42.180 -16.682  36.355  0.00  0.00     0.099 A 
ATOM     13  N   UNL d   1      41.570 -16.142  36.335  0.00  0.00    -0.242 NA
ATOM     14  C   UNL d   1      41.787 -15.324  36.425  0.00  0.00     0.099 A 
ATOM     15  C   UNL d   1      42.603 -15.112  36.528  0.00  0.00     0.024 A 
ENDBRANCH   1  10
TORSDOF 1
ENDMDL
MODEL 2
REMARK VINA RESULT:      11.3      0.778      3.454
REMARK  1 active torsions:
REMARK  status: ('A' for Active; 'I' for Inactive)
REMARK    1  A    between atoms: C_6  and  C_1 
ROOT
ATOM      1  C   UNL d   1      44.292 -15.411  36.710  0.00  0.00     0.163 A 
ATOM      2  N   UNL d   1      43.623 -14.935  36.782  0.00  0.00    -0.225 NA
ATOM      3  N   UNL d   1      44.064 -16.192  36.528  0.00  0.00    -0.225 NA
ATOM      4  C   UNL d   1      42.952 -15.409  36.645  0.00  0.00     0.101 A 
ATOM      5  C   UNL d   1      43.227 -16.196  36.486  0.00  0.00     0.101 A 
ATOM      6  C   UNL d   1      42.157 -15.266  36.638  0.00  0.00     0.021 A 
ATOM      7  C   UNL d   1      42.690 -16.785  36.331  0.00  0.00     0.021 A 
ATOM      8  C   UNL d   1      41.627 -15.878  36.478  0.00  0.00     0.002 A 
ATOM      9  C   UNL d   1      41.883 -16.611  36.330  0.00  0.00     0.002 A 
ENDROOT
BRANCH   1  10
ATOM     10  C   UNL d   1      45.065 -15.134  36.808  0.00  0.00     0.039 A 
ATOM     11  C   UNL d   1      45.693 -15.396  36.343  0.00  0.00     0.024 A 
ATOM     12  C   UNL d   1      46.452 -15.108  36.458  0.00  0.00     0.099 A 
ATOM     13  N   UNL d   1      46.645 -14.554  37.025  0.00  0.00    -0.242 NA
ATOM     14  C   UNL d   1      46.006 -14.274  37.512  0.00  0.00     0.099 A 
ATOM     15  C   UNL d   1      45.221 -14.573  37.393  0.00  0.00     0.024 A 
ENDBRANCH   1  10
TORSDOF 1
ENDMDL
