MODEL 1
REMARK VINA RESULT:      -6.1      0.000      0.000
REMARK  4 active torsions:
REMARK  status: ('A' for Active; 'I' for Inactive)
REMARK    1  A    between atoms: N_2  and  S_1 
REMARK    2  A    between atoms: C_8  and  S_1 
REMARK    3  A    between atoms: C_4  and  C_3 
REMARK       I    between atoms: N_5  and  C_4 
REMARK    4  A    between atoms: C_6  and  N_5 
ROOT
ATOM      1  N   UNL d   1     -40.642  15.440  18.661  0.00  0.00    -0.226 N 
ATOM      2  C   UNL d   1     -40.310  15.142  17.964  0.00  0.00     0.133 A 
ATOM      3  C   UNL d   1     -41.280  15.919  18.460  0.00  0.00     0.092 A 
ATOM      4  C   UNL d   1     -40.747  15.440  17.330  0.00  0.00     0.025 A 
ATOM      5  C   UNL d   1     -41.343  15.918  17.640  0.00  0.00     0.021 A 
ENDROOT
BRANCH   1   6
ATOM      6  S   UNL d   1     -40.329  15.243  19.401  0.00  0.00     0.271 S 
ATOM      7  O   UNL d   1     -39.721  15.799  19.347  0.00  0.00    -0.200 OA
ATOM      8  O   UNL d   1     -40.940  14.691  19.444  0.00  0.00    -0.200 OA
BRANCH   6   9
ATOM      9  C   UNL d   1     -40.057  15.012  20.140  0.00  0.00     0.104 A 
ATOM     10  C   UNL d   1     -40.446  14.411  20.551  0.00  0.00     0.013 A 
ATOM     11  C   UNL d   1     -40.176  14.176  21.294  0.00  0.00     0.001 A 
ATOM     12  C   UNL d   1     -39.512  14.544  21.626  0.00  0.00     0.000 A 
ATOM     13  C   UNL d   1     -39.124  15.146  21.212  0.00  0.00     0.001 A 
ATOM     14  C   UNL d   1     -39.242  14.308  22.369  0.00  0.00     0.000 C 
ATOM     15  C   UNL d   1     -39.397  15.378  20.469  0.00  0.00     0.013 A 
ENDBRANCH   6   9
ENDBRANCH   1   6
BRANCH   2  16
ATOM     16  C   UNL d   1     -39.656  14.635  17.910  0.00  0.00     0.298 C 
ATOM     17  N   UNL d   1     -39.745  13.895  17.546  0.00  0.00    -0.181 NA
ATOM     18  O   UNL d   1     -38.931  14.869  18.216  0.00  0.00    -0.264 OA
BRANCH  17  19
ATOM     19  C   UNL d   1     -39.092  13.392  17.493  0.00  0.00     0.197 A 
ATOM     20  N   UNL d   1     -38.952  12.741  17.983  0.00  0.00    -0.219 NA
ATOM     21  C   UNL d   1     -38.245  12.398  17.739  0.00  0.00     0.108 A 
ATOM     22  C   UNL d   1     -37.948  12.829  17.105  0.00  0.00     0.059 A 
ATOM     23  S   UNL d   1     -38.477  13.449  16.952  0.00  0.00    -0.046 SA
ENDBRANCH  17  19
ENDBRANCH   2  16
TORSDOF 4
ENDMDL
MODEL 2
REMARK VINA RESULT:      -6.0      8.768     10.002
REMARK  4 active torsions:
REMARK  status: ('A' for Active; 'I' for Inactive)
REMARK    1  A    between atoms: N_2  and  S_1 
REMARK    2  A    between atoms: C_8  and  S_1 
REMARK    3  A    between atoms: C_4  and  C_3 
REMARK       I    between atoms: N_5  and  C_4 
REMARK    4  A    between atoms: C_6  and  N_5 
ROOT
ATOM      1  N   UNL d   1     -48.581  14.849  22.676  0.00  0.00    -0.226 N 
ATOM      2  C   UNL d   1     -49.346  14.539  22.743  0.00  0.00     0.133 A 
ATOM      3  C   UNL d   1     -48.638  15.667  22.617  0.00  0.00     0.092 A 
ATOM      4  C   UNL d   1     -49.876  15.172  22.725  0.00  0.00     0.025 A 
ATOM      5  C   UNL d   1     -49.435  15.865  22.647  0.00  0.00     0.021 A 
ENDROOT
BRANCH   1   6
ATOM      6  S   UNL d   1     -47.918  14.354  22.677  0.00  0.00     0.271 S 
ATOM      7  O   UNL d   1     -47.912  14.279  23.499  0.00  0.00    -0.200 OA
ATOM      8  O   UNL d   1     -47.934  14.435  21.856  0.00  0.00    -0.200 OA
BRANCH   6   9
ATOM      9  C   UNL d   1     -47.260  13.866  22.624  0.00  0.00     0.104 A 
ATOM     10  C   UNL d   1     -46.786  13.744  23.288  0.00  0.00     0.013 A 
ATOM     11  C   UNL d   1     -46.123  13.255  23.239  0.00  0.00     0.001 A 
ATOM     12  C   UNL d   1     -45.936  12.887  22.521  0.00  0.00     0.000 A 
ATOM     13  C   UNL d   1     -46.413  13.011  21.857  0.00  0.00     0.001 A 
ATOM     14  C   UNL d   1     -45.273  12.398  22.472  0.00  0.00     0.000 C 
ATOM     15  C   UNL d   1     -47.075  13.501  21.910  0.00  0.00     0.013 A 
ENDBRANCH   6   9
ENDBRANCH   1   6
BRANCH   2  16
ATOM     16  C   UNL d   1     -49.545  13.737  22.816  0.00  0.00     0.298 C 
ATOM     17  N   UNL d   1     -49.899  13.469  23.516  0.00  0.00    -0.181 NA
ATOM     18  O   UNL d   1     -49.391  13.220  22.197  0.00  0.00    -0.264 OA
BRANCH  17  19
ATOM     19  C   UNL d   1     -50.096  12.671  23.587  0.00  0.00     0.197 A 
ATOM     20  N   UNL d   1     -49.555  12.047  23.631  0.00  0.00    -0.219 NA
ATOM     21  C   UNL d   1     -49.987  11.351  23.697  0.00  0.00     0.108 A 
ATOM     22  C   UNL d   1     -50.788  11.536  23.693  0.00  0.00     0.059 A 
ATOM     23  S   UNL d   1     -50.856  12.359  23.625  0.00  0.00    -0.046 SA
ENDBRANCH  17  19
ENDBRANCH   2  16
TORSDOF 4
ENDMDL
MODEL 3
REMARK VINA RESULT:      -5.9      8.842     10.138
REMARK  4 active torsions:
REMARK  status: ('A' for Active; 'I' for Inactive)
REMARK    1  A    between atoms: N_2  and  S_1 
REMARK    2  A    between atoms: C_8  and  S_1 
REMARK    3  A    between atoms: C_4  and  C_3 
REMARK       I    between atoms: N_5  and  C_4 
REMARK    4  A    between atoms: C_6  and  N_5 
ROOT
ATOM      1  N   UNL d   1     -49.043  12.069  23.118  0.00  0.00    -0.226 N 
ATOM      2  C   UNL d   1     -48.217  12.018  23.095  0.00  0.00     0.133 A 
ATOM      3  C   UNL d   1     -49.334  11.394  23.488  0.00  0.00     0.092 A 
ATOM      4  C   UNL d   1     -47.999  11.307  23.455  0.00  0.00     0.025 A 
ATOM      5  C   UNL d   1     -48.690  10.926  23.695  0.00  0.00     0.021 A 
ENDROOT
BRANCH   1   6
ATOM      6  S   UNL d   1     -49.439  12.722  22.799  0.00  0.00     0.271 S 
ATOM      7  O   UNL d   1     -49.275  12.505  22.020  0.00  0.00    -0.200 OA
ATOM      8  O   UNL d   1     -49.597  12.929  23.582  0.00  0.00    -0.200 OA
BRANCH   6   9
ATOM      9  C   UNL d   1     -49.844  13.385  22.534  0.00  0.00     0.104 A 
ATOM     10  C   UNL d   1     -50.126  13.410  21.759  0.00  0.00     0.013 A 
ATOM     11  C   UNL d   1     -50.533  14.074  21.488  0.00  0.00     0.001 A 
ATOM     12  C   UNL d   1     -50.657  14.716  21.997  0.00  0.00     0.000 A 
ATOM     13  C   UNL d   1     -50.373  14.688  22.773  0.00  0.00     0.001 A 
ATOM     14  C   UNL d   1     -51.064  15.381  21.726  0.00  0.00     0.000 C 
ATOM     15  C   UNL d   1     -49.966  14.022  23.040  0.00  0.00     0.013 A 
ENDBRANCH   6   9
ENDBRANCH   1   6
BRANCH   2  16
ATOM     16  C   UNL d   1     -47.700  12.580  22.771  0.00  0.00     0.298 C 
ATOM     17  N   UNL d   1     -47.027  12.806  23.199  0.00  0.00    -0.181 NA
ATOM     18  O   UNL d   1     -47.859  12.904  22.034  0.00  0.00    -0.264 OA
BRANCH  17  19
ATOM     19  C   UNL d   1     -46.513  13.365  22.874  0.00  0.00     0.197 A 
ATOM     20  N   UNL d   1     -46.590  14.185  22.951  0.00  0.00    -0.219 NA
ATOM     21  C   UNL d   1     -45.964  14.530  22.545  0.00  0.00     0.108 A 
ATOM     22  C   UNL d   1     -45.502  13.934  22.218  0.00  0.00     0.059 A 
ATOM     23  S   UNL d   1     -45.844  13.208  22.423  0.00  0.00    -0.046 SA
ENDBRANCH  17  19
ENDBRANCH   2  16
TORSDOF 4
ENDMDL
MODEL 4
REMARK VINA RESULT:      -5.7      1.154      2.528
REMARK  4 active torsions:
REMARK  status: ('A' for Active; 'I' for Inactive)
REMARK    1  A    between atoms: N_2  and  S_1 
REMARK    2  A    between atoms: C_8  and  S_1 
REMARK    3  A    between atoms: C_4  and  C_3 
REMARK       I    between atoms: N_5  and  C_4 
REMARK    4  A    between atoms: C_6  and  N_5 
ROOT
ATOM      1  N   UNL d   1     -38.549  13.677  18.707  0.00  0.00    -0.226 N 
ATOM      2  C   UNL d   1     -38.828  13.829  17.942  0.00  0.00     0.133 A 
ATOM      3  C   UNL d   1     -38.066  13.012  18.679  0.00  0.00     0.092 A 
ATOM      4  C   UNL d   1     -38.512  13.254  17.441  0.00  0.00     0.025 A 
ATOM      5  C   UNL d   1     -38.044  12.753  17.899  0.00  0.00     0.021 A 
ENDROOT
BRANCH   1   6
ATOM      6  S   UNL d   1     -38.766  14.159  19.344  0.00  0.00     0.271 S 
ATOM      7  O   UNL d   1     -38.223  14.748  19.147  0.00  0.00    -0.200 OA
ATOM      8  O   UNL d   1     -39.305  13.563  19.531  0.00  0.00    -0.200 OA
BRANCH   6   9
ATOM      9  C   UNL d   1     -39.017  14.599  19.990  0.00  0.00     0.104 A 
ATOM     10  C   UNL d   1     -39.640  14.325  20.455  0.00  0.00     0.013 A 
ATOM     11  C   UNL d   1     -39.895  14.765  21.105  0.00  0.00     0.001 A 
ATOM     12  C   UNL d   1     -39.523  15.482  21.289  0.00  0.00     0.000 A 
ATOM     13  C   UNL d   1     -38.898  15.754  20.820  0.00  0.00     0.001 A 
ATOM     14  C   UNL d   1     -39.778  15.922  21.938  0.00  0.00     0.000 C 
ATOM     15  C   UNL d   1     -38.646  15.311  20.171  0.00  0.00     0.013 A 
ENDBRANCH   6   9
ENDBRANCH   1   6
BRANCH   2  16
ATOM     16  C   UNL d   1     -39.332  14.448  17.719  0.00  0.00     0.298 C 
ATOM     17  N   UNL d   1     -40.094  14.271  17.444  0.00  0.00    -0.181 NA
ATOM     18  O   UNL d   1     -39.074  15.226  17.771  0.00  0.00    -0.264 OA
BRANCH  17  19
ATOM     19  C   UNL d   1     -40.595  14.889  17.222  0.00  0.00     0.197 A 
ATOM     20  N   UNL d   1     -41.287  15.107  17.617  0.00  0.00    -0.219 NA
ATOM     21  C   UNL d   1     -41.612  15.745  17.211  0.00  0.00     0.108 A 
ATOM     22  C   UNL d   1     -41.129  15.922  16.570  0.00  0.00     0.059 A 
ATOM     23  S   UNL d   1     -40.495  15.388  16.577  0.00  0.00    -0.046 SA
ENDBRANCH  17  19
ENDBRANCH   2  16
TORSDOF 4
ENDMDL
MODEL 5
REMARK VINA RESULT:      -5.7      8.226      9.337
REMARK  4 active torsions:
REMARK  status: ('A' for Active; 'I' for Inactive)
REMARK    1  A    between atoms: N_2  and  S_1 
REMARK    2  A    between atoms: C_8  and  S_1 
REMARK    3  A    between atoms: C_4  and  C_3 
REMARK       I    between atoms: N_5  and  C_4 
REMARK    4  A    between atoms: C_6  and  N_5 
ROOT
ATOM      1  N   UNL d   1     -47.654  14.310  22.476  0.00  0.00    -0.226 N 
ATOM      2  C   UNL d   1     -46.898  13.974  22.452  0.00  0.00     0.133 A 
ATOM      3  C   UNL d   1     -47.579  15.123  22.374  0.00  0.00     0.092 A 
ATOM      4  C   UNL d   1     -46.354  14.584  22.334  0.00  0.00     0.025 A 
ATOM      5  C   UNL d   1     -46.778  15.290  22.286  0.00  0.00     0.021 A 
ENDROOT
BRANCH   1   6
ATOM      6  S   UNL d   1     -48.326  13.842  22.589  0.00  0.00     0.271 S 
ATOM      7  O   UNL d   1     -48.389  13.652  21.788  0.00  0.00    -0.200 OA
ATOM      8  O   UNL d   1     -48.254  14.038  23.387  0.00  0.00    -0.200 OA
BRANCH   6   9
ATOM      9  C   UNL d   1     -48.991  13.388  22.753  0.00  0.00     0.104 A 
ATOM     10  C   UNL d   1     -49.417  13.521  23.447  0.00  0.00     0.013 A 
ATOM     11  C   UNL d   1     -50.085  13.067  23.615  0.00  0.00     0.001 A 
ATOM     12  C   UNL d   1     -50.326  12.478  23.084  0.00  0.00     0.000 A 
ATOM     13  C   UNL d   1     -49.897  12.348  22.390  0.00  0.00     0.001 A 
ATOM     14  C   UNL d   1     -50.995  12.024  23.252  0.00  0.00     0.000 C 
ATOM     15  C   UNL d   1     -49.229  12.803  22.225  0.00  0.00     0.013 A 
ENDBRANCH   6   9
ENDBRANCH   1   6
BRANCH   2  16
ATOM     16  C   UNL d   1     -46.717  13.168  22.533  0.00  0.00     0.298 C 
ATOM     17  N   UNL d   1     -46.311  12.909  23.207  0.00  0.00    -0.181 NA
ATOM     18  O   UNL d   1     -46.941  12.639  21.946  0.00  0.00    -0.264 OA
BRANCH  17  19
ATOM     19  C   UNL d   1     -46.132  12.107  23.285  0.00  0.00     0.197 A 
ATOM     20  N   UNL d   1     -46.591  11.553  23.692  0.00  0.00    -0.219 NA
ATOM     21  C   UNL d   1     -46.211  10.826  23.631  0.00  0.00     0.108 A 
ATOM     22  C   UNL d   1     -45.524  10.924  23.192  0.00  0.00     0.059 A 
ATOM     23  S   UNL d   1     -45.474  11.723  22.976  0.00  0.00    -0.046 SA
ENDBRANCH  17  19
ENDBRANCH   2  16
TORSDOF 4
ENDMDL
MODEL 6
REMARK VINA RESULT:      -5.4      1.364      3.839
REMARK  4 active torsions:
REMARK  status: ('A' for Active; 'I' for Inactive)
REMARK    1  A    between atoms: N_2  and  S_1 
REMARK    2  A    between atoms: C_8  and  S_1 
REMARK    3  A    between atoms: C_4  and  C_3 
REMARK       I    between atoms: N_5  and  C_4 
REMARK    4  A    between atoms: C_6  and  N_5 
ROOT
ATOM      1  N   UNL d   1     -38.776  13.490  18.406  0.00  0.00    -0.226 N 
ATOM      2  C   UNL d   1     -38.518  13.630  19.180  0.00  0.00     0.133 A 
ATOM      3  C   UNL d   1     -38.423  12.798  18.136  0.00  0.00     0.092 A 
ATOM      4  C   UNL d   1     -38.003  13.020  19.387  0.00  0.00     0.025 A 
ATOM      5  C   UNL d   1     -37.947  12.509  18.742  0.00  0.00     0.021 A 
ENDROOT
BRANCH   1   6
ATOM      6  S   UNL d   1     -39.303  14.007  18.031  0.00  0.00     0.271 S 
ATOM      7  O   UNL d   1     -38.714  14.555  17.849  0.00  0.00    -0.200 OA
ATOM      8  O   UNL d   1     -39.883  13.452  18.219  0.00  0.00    -0.200 OA
BRANCH   6   9
ATOM      9  C   UNL d   1     -39.865  14.485  17.671  0.00  0.00     0.104 A 
ATOM     10  C   UNL d   1     -40.666  14.366  17.829  0.00  0.00     0.013 A 
ATOM     11  C   UNL d   1     -41.233  14.844  17.469  0.00  0.00     0.001 A 
ATOM     12  C   UNL d   1     -40.996  15.444  16.948  0.00  0.00     0.000 A 
ATOM     13  C   UNL d   1     -40.192  15.560  16.792  0.00  0.00     0.001 A 
ATOM     14  C   UNL d   1     -41.564  15.922  16.588  0.00  0.00     0.000 C 
ATOM     15  C   UNL d   1     -39.628  15.080  17.154  0.00  0.00     0.013 A 
ENDBRANCH   6   9
ENDBRANCH   1   6
BRANCH   2  16
ATOM     16  C   UNL d   1     -38.737  14.269  19.661  0.00  0.00     0.298 C 
ATOM     17  N   UNL d   1     -39.207  14.130  20.330  0.00  0.00    -0.181 NA
ATOM     18  O   UNL d   1     -38.488  15.028  19.472  0.00  0.00    -0.264 OA
BRANCH  17  19
ATOM     19  C   UNL d   1     -39.425  14.767  20.808  0.00  0.00     0.197 A 
ATOM     20  N   UNL d   1     -40.146  14.842  21.204  0.00  0.00    -0.219 NA
ATOM     21  C   UNL d   1     -40.129  15.556  21.613  0.00  0.00     0.108 A 
ATOM     22  C   UNL d   1     -39.407  15.922  21.474  0.00  0.00     0.059 A 
ATOM     23  S   UNL d   1     -38.967  15.430  20.972  0.00  0.00    -0.046 SA
ENDBRANCH  17  19
ENDBRANCH   2  16
TORSDOF 4
ENDMDL
MODEL 7
REMARK VINA RESULT:      -5.3      8.822     10.259
REMARK  4 active torsions:
REMARK  status: ('A' for Active; 'I' for Inactive)
REMARK    1  A    between atoms: N_2  and  S_1 
REMARK    2  A    between atoms: C_8  and  S_1 
REMARK    3  A    between atoms: C_4  and  C_3 
REMARK       I    between atoms: N_5  and  C_4 
REMARK    4  A    between atoms: C_6  and  N_5 
ROOT
ATOM      1  N   UNL d   1     -47.351  14.100  22.626  0.00  0.00    -0.226 N 
ATOM      2  C   UNL d   1     -47.735  14.827  22.529  0.00  0.00     0.133 A 
ATOM      3  C   UNL d   1     -46.540  14.235  22.636  0.00  0.00     0.092 A 
ATOM      4  C   UNL d   1     -47.155  15.413  22.479  0.00  0.00     0.025 A 
ATOM      5  C   UNL d   1     -46.420  15.043  22.545  0.00  0.00     0.021 A 
ENDROOT
BRANCH   1   6
ATOM      6  S   UNL d   1     -47.781  13.397  22.695  0.00  0.00     0.271 S 
ATOM      7  O   UNL d   1     -47.872  13.314  21.879  0.00  0.00    -0.200 OA
ATOM      8  O   UNL d   1     -47.684  13.490  23.509  0.00  0.00    -0.200 OA
BRANCH   6   9
ATOM      9  C   UNL d   1     -48.203  12.703  22.817  0.00  0.00     0.104 A 
ATOM     10  C   UNL d   1     -48.566  12.326  22.179  0.00  0.00     0.013 A 
ATOM     11  C   UNL d   1     -48.990  11.629  22.297  0.00  0.00     0.001 A 
ATOM     12  C   UNL d   1     -49.050  11.308  23.058  0.00  0.00     0.000 A 
ATOM     13  C   UNL d   1     -48.685  11.688  23.696  0.00  0.00     0.001 A 
ATOM     14  C   UNL d   1     -49.474  10.610  23.176  0.00  0.00     0.000 C 
ATOM     15  C   UNL d   1     -48.262  12.385  23.574  0.00  0.00     0.013 A 
ENDBRANCH   6   9
ENDBRANCH   1   6
BRANCH   2  16
ATOM     16  C   UNL d   1     -48.555  14.948  22.489  0.00  0.00     0.298 C 
ATOM     17  N   UNL d   1     -48.934  15.360  23.100  0.00  0.00    -0.181 NA
ATOM     18  O   UNL d   1     -48.980  14.659  21.849  0.00  0.00    -0.264 OA
BRANCH  17  19
ATOM     19  C   UNL d   1     -49.750  15.479  23.059  0.00  0.00     0.197 A 
ATOM     20  N   UNL d   1     -50.183  15.579  22.362  0.00  0.00    -0.219 NA
ATOM     21  C   UNL d   1     -50.971  15.680  22.574  0.00  0.00     0.108 A 
ATOM     22  C   UNL d   1     -51.030  15.643  23.393  0.00  0.00     0.059 A 
ATOM     23  S   UNL d   1     -50.269  15.518  23.695  0.00  0.00    -0.046 SA
ENDBRANCH  17  19
ENDBRANCH   2  16
TORSDOF 4
ENDMDL
MODEL 8
REMARK VINA RESULT:      -4.8      7.775      9.037
REMARK  4 active torsions:
REMARK  status: ('A' for Active; 'I' for Inactive)
REMARK    1  A    between atoms: N_2  and  S_1 
REMARK    2  A    between atoms: C_8  and  S_1 
REMARK    3  A    between atoms: C_4  and  C_3 
REMARK       I    between atoms: N_5  and  C_4 
REMARK    4  A    between atoms: C_6  and  N_5 
ROOT
ATOM      1  N   UNL d   1     -46.699  14.029  22.743  0.00  0.00    -0.226 N 
ATOM      2  C   UNL d   1     -47.498  14.174  22.586  0.00  0.00     0.133 A 
ATOM      3  C   UNL d   1     -46.287  14.736  22.660  0.00  0.00     0.092 A 
ATOM      4  C   UNL d   1     -47.578  14.976  22.405  0.00  0.00     0.025 A 
ATOM      5  C   UNL d   1     -46.829  15.318  22.452  0.00  0.00     0.021 A 
ENDROOT
BRANCH   1   6
ATOM      6  S   UNL d   1     -46.433  13.272  22.944  0.00  0.00     0.271 S 
ATOM      7  O   UNL d   1     -46.803  13.284  23.682  0.00  0.00    -0.200 OA
ATOM      8  O   UNL d   1     -46.068  13.271  22.204  0.00  0.00    -0.200 OA
BRANCH   6   9
ATOM      9  C   UNL d   1     -46.145  12.518  23.096  0.00  0.00     0.104 A 
ATOM     10  C   UNL d   1     -46.599  11.986  23.534  0.00  0.00     0.013 A 
ATOM     11  C   UNL d   1     -46.313  11.228  23.689  0.00  0.00     0.001 A 
ATOM     12  C   UNL d   1     -45.569  11.003  23.403  0.00  0.00     0.000 A 
ATOM     13  C   UNL d   1     -45.117  11.538  22.964  0.00  0.00     0.001 A 
ATOM     14  C   UNL d   1     -45.283  10.244  23.557  0.00  0.00     0.000 C 
ATOM     15  C   UNL d   1     -45.406  12.295  22.811  0.00  0.00     0.013 A 
ENDBRANCH   6   9
ENDBRANCH   1   6
BRANCH   2  16
ATOM     16  C   UNL d   1     -48.111  13.615  22.607  0.00  0.00     0.298 C 
ATOM     17  N   UNL d   1     -48.639  13.569  21.970  0.00  0.00    -0.181 NA
ATOM     18  O   UNL d   1     -48.187  13.116  23.255  0.00  0.00    -0.264 OA
BRANCH  17  19
ATOM     19  C   UNL d   1     -49.248  13.011  21.992  0.00  0.00     0.197 A 
ATOM     20  N   UNL d   1     -49.209  12.249  21.675  0.00  0.00    -0.219 NA
ATOM     21  C   UNL d   1     -49.932  11.885  21.819  0.00  0.00     0.108 A 
ATOM     22  C   UNL d   1     -50.417  12.413  22.222  0.00  0.00     0.059 A 
ATOM     23  S   UNL d   1     -49.990  13.115  22.329  0.00  0.00    -0.046 SA
ENDBRANCH  17  19
ENDBRANCH   2  16
TORSDOF 4
ENDMDL
