MODEL 1
REMARK VINA RESULT:      40.8      0.000      0.000
REMARK  7 active torsions:
REMARK  status: ('A' for Active; 'I' for Inactive)
REMARK    1  A    between atoms: N_3  and  C_2 
REMARK       I    between atoms: C_6  and  N_3 
REMARK    2  A    between atoms: C_11  and  C_4 
REMARK    3  A    between atoms: C_5  and  C_6 
REMARK    4  A    between atoms: C_15  and  C_11 
REMARK    5  A    between atoms: C_18  and  C_12 
REMARK    6  A    between atoms: O_17  and  C_18 
REMARK    7  A    between atoms: C_19  and  O_17 
ROOT
ATOM      1  C   UNL d   1     -54.844-101.622 -41.160  0.00  0.00     0.158 A 
ATOM      2  O   UNL d   1     -54.773-101.558 -40.343  0.00  0.00    -0.300 OA
ATOM      3  C   UNL d   1     -54.901-102.421 -41.350  0.00  0.00     0.032 A 
ATOM      4  C   UNL d   1     -54.785-102.318 -40.019  0.00  0.00     0.125 A 
ATOM      5  C   UNL d   1     -54.865-102.851 -40.645  0.00  0.00     0.029 A 
ENDROOT
BRANCH   1   6
ATOM      6  C   UNL d   1     -54.856-100.993 -41.701  0.00  0.00     0.304 C 
ATOM      7  N   UNL d   1     -54.739-101.140 -42.506  0.00  0.00    -0.180 NA
ATOM      8  O   UNL d   1     -54.986-100.224 -41.433  0.00  0.00    -0.263 OA
BRANCH   7   9
ATOM      9  C   UNL d   1     -54.751-100.518 -43.043  0.00  0.00     0.216 A 
ATOM     10  N   UNL d   1     -54.806-100.585 -43.879  0.00  0.00    -0.200 NA
ATOM     11  C   UNL d   1     -54.799 -99.840 -44.186  0.00  0.00     0.175 A 
ATOM     12  N   UNL d   1     -54.741 -99.298 -43.566  0.00  0.00    -0.187 NA
ATOM     13  S   UNL d   1     -54.712 -99.719 -42.860  0.00  0.00     0.054 SA
BRANCH  11  14
ATOM     14  C   UNL d   1     -54.842 -99.641 -44.985  0.00  0.00     0.082 C 
BRANCH  14  15
ATOM     15  C   UNL d   1     -55.581 -99.461 -45.319  0.00  0.00     0.199 C 
ATOM     16  O   UNL d   1     -56.248 -99.895 -45.113  0.00  0.00    -0.286 OA
ATOM     17  C   UNL d   1     -55.645 -98.840 -45.864  0.00  0.00     0.045 C 
ENDBRANCH  14  15
ENDBRANCH  11  14
ENDBRANCH   7   9
ENDBRANCH   1   6
BRANCH   4  18
ATOM     18  C   UNL d   1     -54.729-102.502 -39.224  0.00  0.00     0.147 C 
BRANCH  18  19
ATOM     19  O   UNL d   1     -55.314-102.234 -38.699  0.00  0.00    -0.303 OA
BRANCH  19  20
ATOM     20  C   UNL d   1     -55.163-102.211 -37.890  0.00  0.00     0.100 A 
ATOM     21  C   UNL d   1     -55.311-102.879 -37.429  0.00  0.00     0.025 A 
ATOM     22  C   UNL d   1     -55.162-102.858 -36.624  0.00  0.00     0.002 A 
ATOM     23  C   UNL d   1     -54.862-102.164 -36.272  0.00  0.00     0.000 A 
ATOM     24  C   UNL d   1     -54.717-101.500 -36.739  0.00  0.00     0.002 A 
ATOM     25  C   UNL d   1     -54.712-102.147 -35.457  0.00  0.00     0.000 C 
ATOM     26  C   UNL d   1     -54.867-101.522 -37.547  0.00  0.00     0.025 A 
ENDBRANCH  19  20
ENDBRANCH  18  19
ENDBRANCH   4  18
TORSDOF 7
ENDMDL
