MODEL 1
REMARK VINA RESULT:      53.8      0.000      0.000
REMARK  5 active torsions:
REMARK  status: ('A' for Active; 'I' for Inactive)
REMARK       I    between atoms: C_2  and  N_1 
REMARK    1  A    between atoms: C_5  and  C_2 
REMARK    2  A    between atoms: S_7  and  C_3 
REMARK    3  A    between atoms: N_4  and  C_8 
REMARK    4  A    between atoms: C_17  and  S_7 
REMARK    5  A    between atoms: C_18  and  C_17 
ROOT
ATOM      1  N   UNL d   1      59.031  49.693  51.149  0.00  0.00    -0.251 N 
ATOM      2  C   UNL d   1      58.563  49.699  50.469  0.00  0.00     0.266 C 
ATOM      3  C   UNL d   1      59.860  49.694  51.174  0.00  0.00     0.182 A 
ATOM      4  N   UNL d   1      60.086  49.687  51.963  0.00  0.00    -0.219 NA
ATOM      5  O   UNL d   1      58.914  49.706  49.721  0.00  0.00    -0.267 OA
ATOM      6  C   UNL d   1      58.749  49.686  51.932  0.00  0.00     0.106 A 
ATOM      7  C   UNL d   1      59.409  49.682  52.435  0.00  0.00     0.120 A 
ENDROOT
BRANCH   3   8
ATOM      8  S   UNL d   1      60.356  49.700  50.517  0.00  0.00    -0.049 SA
BRANCH   8   9
ATOM      9  C   UNL d   1      61.094  49.353  50.562  0.00  0.00     0.038 C 
BRANCH   9  10
ATOM     10  C   UNL d   1      61.171  48.539  50.497  0.00  0.00     0.007 A 
ATOM     11  C   UNL d   1      61.133  48.060  51.165  0.00  0.00     0.002 A 
ATOM     12  C   UNL d   1      61.210  47.241  51.100  0.00  0.00     0.024 A 
ATOM     13  C   UNL d   1      61.326  46.905  50.360  0.00  0.00     0.127 A 
ATOM     14  C   UNL d   1      61.366  47.372  49.686  0.00  0.00     0.024 A 
ATOM     15  C   UNL d   1      61.289  48.193  49.750  0.00  0.00     0.002 A 
BRANCH  13  16
ATOM     16  N   UNL d   1      61.405  46.083  50.288  0.00  0.00    -0.114 N 
ATOM     17  O   UNL d   1      62.108  45.752  49.966  0.00  0.00    -0.532 OA
ATOM     18  O   UNL d   1      60.792  45.573  50.531  0.00  0.00    -0.532 OA
ENDBRANCH  13  16
ENDBRANCH   9  10
ENDBRANCH   8   9
ENDBRANCH   3   8
BRANCH   2  19
ATOM     19  C   UNL d   1      57.735  49.697  50.535  0.00  0.00     0.057 A 
ATOM     20  C   UNL d   1      57.271  49.685  49.847  0.00  0.00     0.005 A 
ATOM     21  C   UNL d   1      57.630  49.675  49.105  0.00  0.00     0.000 C 
ATOM     22  C   UNL d   1      56.458  49.684  49.921  0.00  0.00     0.000 A 
ATOM     23  C   UNL d   1      56.103  49.695  50.675  0.00  0.00     0.000 A 
ATOM     24  C   UNL d   1      56.563  49.706  51.352  0.00  0.00     0.000 A 
ATOM     25  C   UNL d   1      57.384  49.708  51.282  0.00  0.00     0.005 A 
ENDBRANCH   2  19
TORSDOF 5
ENDMDL
