MODEL 1
REMARK VINA RESULT:      -2.5      0.000      0.000
REMARK  4 active torsions:
REMARK  status: ('A' for Active; 'I' for Inactive)
REMARK    1  A    between atoms: N_5  and  C_1 
REMARK    2  A    between atoms: C_4  and  N_6 
REMARK    3  A    between atoms: N_11  and  C_4 
REMARK    4  A    between atoms: N_6  and  N_5 
ROOT
ATOM      1  C   UNL d   1      33.067  19.498 -22.842  0.00  0.00     0.768 A 
ATOM      2  N   UNL d   1      32.829  18.721 -22.716  0.00  0.00    -0.058 NA
ATOM      3  N   UNL d   1      33.206  19.766 -23.614  0.00  0.00    -0.058 NA
ATOM      4  C   UNL d   1      32.727  18.207 -23.355  0.00  0.00     0.102 A 
ATOM      5  C   UNL d   1      33.103  19.252 -24.253  0.00  0.00     0.102 A 
ATOM      6  C   UNL d   1      32.865  18.476 -24.126  0.00  0.00     0.040 A 
ATOM      7  C   UNL d   1      33.241  19.518 -25.022  0.00  0.00     0.021 C 
ATOM      8  C   UNL d   1      32.488  17.428 -23.225  0.00  0.00     0.021 C 
ENDROOT
BRANCH   1   9
ATOM      9  N   UNL d   1      33.169  20.009 -22.206  0.00  0.00     0.049 NA
BRANCH   9  10
ATOM     10  N   UNL d   1      32.511  20.347 -21.845  0.00  0.00    -0.101 NA
BRANCH  10  11
ATOM     11  C   UNL d   1      32.613  20.924 -21.274  0.00  0.00     0.241 C 
ATOM     12  S   UNL d   1      33.241  20.876 -20.751  0.00  0.00    -0.035 SA
BRANCH  11  13
ATOM     13  N   UNL d   1      32.086  21.550 -21.226  0.00  0.00    -0.213 NA
ATOM     14  C   UNL d   1      32.128  22.077 -20.596  0.00  0.00     0.122 C 
ENDBRANCH  11  13
ENDBRANCH  10  11
ENDBRANCH   9  10
ENDBRANCH   1   9
TORSDOF 4
ENDMDL
MODEL 2
REMARK VINA RESULT:      -2.2      3.399      4.605
REMARK  4 active torsions:
REMARK  status: ('A' for Active; 'I' for Inactive)
REMARK    1  A    between atoms: N_5  and  C_1 
REMARK    2  A    between atoms: C_4  and  N_6 
REMARK    3  A    between atoms: N_11  and  C_4 
REMARK    4  A    between atoms: N_6  and  N_5 
ROOT
ATOM      1  C   UNL d   1      31.447  16.700 -23.925  0.00  0.00     0.768 A 
ATOM      2  N   UNL d   1      31.971  16.102 -23.716  0.00  0.00    -0.058 NA
ATOM      3  N   UNL d   1      31.667  17.493 -23.831  0.00  0.00    -0.058 NA
ATOM      4  C   UNL d   1      32.716  16.289 -23.412  0.00  0.00     0.102 A 
ATOM      5  C   UNL d   1      32.412  17.680 -23.526  0.00  0.00     0.102 A 
ATOM      6  C   UNL d   1      32.936  17.082 -23.317  0.00  0.00     0.040 A 
ATOM      7  C   UNL d   1      32.632  18.469 -23.431  0.00  0.00     0.021 C 
ATOM      8  C   UNL d   1      33.241  15.687 -23.202  0.00  0.00     0.021 C 
ENDROOT
BRANCH   1   9
ATOM      9  N   UNL d   1      30.705  16.513 -24.228  0.00  0.00     0.049 NA
BRANCH   9  10
ATOM     10  N   UNL d   1      30.119  16.230 -23.725  0.00  0.00    -0.101 NA
BRANCH  10  11
ATOM     11  C   UNL d   1      29.357  16.127 -24.007  0.00  0.00     0.241 C 
ATOM     12  S   UNL d   1      29.219  15.630 -24.643  0.00  0.00    -0.035 SA
BRANCH  11  13
ATOM     13  N   UNL d   1      28.733  16.523 -23.652  0.00  0.00    -0.213 NA
ATOM     14  C   UNL d   1      28.019  16.134 -23.522  0.00  0.00     0.122 C 
ENDBRANCH  11  13
ENDBRANCH  10  11
ENDBRANCH   9  10
ENDBRANCH   1   9
TORSDOF 4
ENDMDL
MODEL 3
REMARK VINA RESULT:      -2.1      2.801      4.033
REMARK  4 active torsions:
REMARK  status: ('A' for Active; 'I' for Inactive)
REMARK    1  A    between atoms: N_5  and  C_1 
REMARK    2  A    between atoms: C_4  and  N_6 
REMARK    3  A    between atoms: N_11  and  C_4 
REMARK    4  A    between atoms: N_6  and  N_5 
ROOT
ATOM      1  C   UNL d   1      32.199  17.587 -23.826  0.00  0.00     0.768 A 
ATOM      2  N   UNL d   1      32.510  17.821 -23.102  0.00  0.00    -0.058 NA
ATOM      3  N   UNL d   1      32.305  18.064 -24.495  0.00  0.00    -0.058 NA
ATOM      4  C   UNL d   1      32.929  18.531 -23.039  0.00  0.00     0.102 A 
ATOM      5  C   UNL d   1      32.724  18.774 -24.432  0.00  0.00     0.102 A 
ATOM      6  C   UNL d   1      33.035  19.008 -23.708  0.00  0.00     0.040 A 
ATOM      7  C   UNL d   1      32.831  19.250 -25.097  0.00  0.00     0.021 C 
ATOM      8  C   UNL d   1      33.241  18.765 -22.311  0.00  0.00     0.021 C 
ENDROOT
BRANCH   1   9
ATOM      9  N   UNL d   1      31.782  16.880 -23.888  0.00  0.00     0.049 NA
BRANCH   9  10
ATOM     10  N   UNL d   1      30.961  16.894 -23.947  0.00  0.00    -0.101 NA
BRANCH  10  11
ATOM     11  C   UNL d   1      30.541  16.192 -23.932  0.00  0.00     0.241 C 
ATOM     12  S   UNL d   1      30.354  15.812 -24.633  0.00  0.00    -0.035 SA
BRANCH  11  13
ATOM     13  N   UNL d   1      30.308  15.870 -23.215  0.00  0.00    -0.213 NA
ATOM     14  C   UNL d   1      29.598  15.458 -23.161  0.00  0.00     0.122 C 
ENDBRANCH  11  13
ENDBRANCH  10  11
ENDBRANCH   9  10
ENDBRANCH   1   9
TORSDOF 4
ENDMDL
MODEL 4
REMARK VINA RESULT:      -2.0      1.260      1.895
REMARK  4 active torsions:
REMARK  status: ('A' for Active; 'I' for Inactive)
REMARK    1  A    between atoms: N_5  and  C_1 
REMARK    2  A    between atoms: C_4  and  N_6 
REMARK    3  A    between atoms: N_11  and  C_4 
REMARK    4  A    between atoms: N_6  and  N_5 
ROOT
ATOM      1  C   UNL d   1      32.628  18.133 -23.454  0.00  0.00     0.768 A 
ATOM      2  N   UNL d   1      33.008  17.444 -23.217  0.00  0.00    -0.058 NA
ATOM      3  N   UNL d   1      31.963  18.089 -23.947  0.00  0.00    -0.058 NA
ATOM      4  C   UNL d   1      32.730  16.707 -23.467  0.00  0.00     0.102 A 
ATOM      5  C   UNL d   1      31.684  17.352 -24.197  0.00  0.00     0.102 A 
ATOM      6  C   UNL d   1      32.064  16.663 -23.959  0.00  0.00     0.040 A 
ATOM      7  C   UNL d   1      31.022  17.306 -24.687  0.00  0.00     0.021 C 
ATOM      8  C   UNL d   1      33.113  16.016 -23.228  0.00  0.00     0.021 C 
ENDROOT
BRANCH   1   9
ATOM      9  N   UNL d   1      32.906  18.866 -23.205  0.00  0.00     0.049 NA
BRANCH   9  10
ATOM     10  N   UNL d   1      32.877  19.063 -22.407  0.00  0.00    -0.101 NA
BRANCH  10  11
ATOM     11  C   UNL d   1      33.100  19.813 -22.165  0.00  0.00     0.241 C 
ATOM     12  S   UNL d   1      33.241  20.397 -22.722  0.00  0.00    -0.035 SA
BRANCH  11  13
ATOM     13  N   UNL d   1      33.182  19.978 -21.366  0.00  0.00    -0.213 NA
ATOM     14  C   UNL d   1      32.948  20.709 -21.071  0.00  0.00     0.122 C 
ENDBRANCH  11  13
ENDBRANCH  10  11
ENDBRANCH   9  10
ENDBRANCH   1   9
TORSDOF 4
ENDMDL
MODEL 5
REMARK VINA RESULT:      -2.0      1.487      4.008
REMARK  4 active torsions:
REMARK  status: ('A' for Active; 'I' for Inactive)
REMARK    1  A    between atoms: N_5  and  C_1 
REMARK    2  A    between atoms: C_4  and  N_6 
REMARK    3  A    between atoms: N_11  and  C_4 
REMARK    4  A    between atoms: N_6  and  N_5 
ROOT
ATOM      1  C   UNL d   1      32.954  21.795 -21.491  0.00  0.00     0.768 A 
ATOM      2  N   UNL d   1      33.153  21.800 -20.693  0.00  0.00    -0.058 NA
ATOM      3  N   UNL d   1      32.523  22.425 -21.813  0.00  0.00    -0.058 NA
ATOM      4  C   UNL d   1      32.926  22.432 -20.211  0.00  0.00     0.102 A 
ATOM      5  C   UNL d   1      32.296  23.057 -21.331  0.00  0.00     0.102 A 
ATOM      6  C   UNL d   1      32.495  23.062 -20.533  0.00  0.00     0.040 A 
ATOM      7  C   UNL d   1      31.867  23.685 -21.650  0.00  0.00     0.021 C 
ATOM      8  C   UNL d   1      33.127  22.435 -19.410  0.00  0.00     0.021 C 
ENDROOT
BRANCH   1   9
ATOM      9  N   UNL d   1      33.180  21.166 -21.969  0.00  0.00     0.049 NA
BRANCH   9  10
ATOM     10  N   UNL d   1      32.961  20.399 -21.767  0.00  0.00    -0.101 NA
BRANCH  10  11
ATOM     11  C   UNL d   1      33.119  19.782 -22.281  0.00  0.00     0.241 C 
ATOM     12  S   UNL d   1      33.241  19.934 -23.077  0.00  0.00    -0.035 SA
BRANCH  11  13
ATOM     13  N   UNL d   1      33.154  19.013 -22.000  0.00  0.00    -0.213 NA
ATOM     14  C   UNL d   1      33.148  18.381 -22.526  0.00  0.00     0.122 C 
ENDBRANCH  11  13
ENDBRANCH  10  11
ENDBRANCH   9  10
ENDBRANCH   1   9
TORSDOF 4
ENDMDL
MODEL 6
REMARK VINA RESULT:      -1.9      2.819      3.758
REMARK  4 active torsions:
REMARK  status: ('A' for Active; 'I' for Inactive)
REMARK    1  A    between atoms: N_5  and  C_1 
REMARK    2  A    between atoms: C_4  and  N_6 
REMARK    3  A    between atoms: N_11  and  C_4 
REMARK    4  A    between atoms: N_6  and  N_5 
ROOT
ATOM      1  C   UNL d   1      32.641  22.441 -20.556  0.00  0.00     0.768 A 
ATOM      2  N   UNL d   1      32.667  21.619 -20.576  0.00  0.00    -0.058 NA
ATOM      3  N   UNL d   1      32.777  22.875 -21.248  0.00  0.00    -0.058 NA
ATOM      4  C   UNL d   1      32.828  21.225 -21.284  0.00  0.00     0.102 A 
ATOM      5  C   UNL d   1      32.938  22.480 -21.956  0.00  0.00     0.102 A 
ATOM      6  C   UNL d   1      32.964  21.659 -21.976  0.00  0.00     0.040 A 
ATOM      7  C   UNL d   1      33.073  22.911 -22.647  0.00  0.00     0.021 C 
ATOM      8  C   UNL d   1      32.854  20.400 -21.302  0.00  0.00     0.021 C 
ENDROOT
BRANCH   1   9
ATOM      9  N   UNL d   1      32.481  22.832 -19.850  0.00  0.00     0.049 NA
BRANCH   9  10
ATOM     10  N   UNL d   1      33.082  22.945 -19.300  0.00  0.00    -0.101 NA
BRANCH  10  11
ATOM     11  C   UNL d   1      32.894  23.083 -18.515  0.00  0.00     0.241 C 
ATOM     12  S   UNL d   1      32.397  23.702 -18.317  0.00  0.00    -0.035 SA
BRANCH  11  13
ATOM     13  N   UNL d   1      33.204  22.601 -17.929  0.00  0.00    -0.213 NA
ATOM     14  C   UNL d   1      33.235  22.866 -17.151  0.00  0.00     0.122 C 
ENDBRANCH  11  13
ENDBRANCH  10  11
ENDBRANCH   9  10
ENDBRANCH   1   9
TORSDOF 4
ENDMDL
MODEL 7
REMARK VINA RESULT:      -1.9      1.678      3.379
REMARK  4 active torsions:
REMARK  status: ('A' for Active; 'I' for Inactive)
REMARK    1  A    between atoms: N_5  and  C_1 
REMARK    2  A    between atoms: C_4  and  N_6 
REMARK    3  A    between atoms: N_11  and  C_4 
REMARK    4  A    between atoms: N_6  and  N_5 
ROOT
ATOM      1  C   UNL d   1      33.237  19.790 -22.684  0.00  0.00     0.768 A 
ATOM      2  N   UNL d   1      33.236  19.798 -21.862  0.00  0.00    -0.058 NA
ATOM      3  N   UNL d   1      33.238  20.504 -23.104  0.00  0.00    -0.058 NA
ATOM      4  C   UNL d   1      33.236  20.516 -21.452  0.00  0.00     0.102 A 
ATOM      5  C   UNL d   1      33.238  21.222 -22.695  0.00  0.00     0.102 A 
ATOM      6  C   UNL d   1      33.237  21.231 -21.873  0.00  0.00     0.040 A 
ATOM      7  C   UNL d   1      33.239  21.934 -23.111  0.00  0.00     0.021 C 
ATOM      8  C   UNL d   1      33.235  20.523 -20.627  0.00  0.00     0.021 C 
ENDROOT
BRANCH   1   9
ATOM      9  N   UNL d   1      33.237  19.075 -23.090  0.00  0.00     0.049 NA
BRANCH   9  10
ATOM     10  N   UNL d   1      32.541  18.638 -23.148  0.00  0.00    -0.101 NA
BRANCH  10  11
ATOM     11  C   UNL d   1      32.535  17.939 -23.573  0.00  0.00     0.241 C 
ATOM     12  S   UNL d   1      32.946  17.287 -23.294  0.00  0.00    -0.035 SA
BRANCH  11  13
ATOM     13  N   UNL d   1      32.118  17.891 -24.277  0.00  0.00    -0.213 NA
ATOM     14  C   UNL d   1      31.792  17.174 -24.514  0.00  0.00     0.122 C 
ENDBRANCH  11  13
ENDBRANCH  10  11
ENDBRANCH   9  10
ENDBRANCH   1   9
TORSDOF 4
ENDMDL
MODEL 8
REMARK VINA RESULT:      -1.8      0.918      1.648
REMARK  4 active torsions:
REMARK  status: ('A' for Active; 'I' for Inactive)
REMARK    1  A    between atoms: N_5  and  C_1 
REMARK    2  A    between atoms: C_4  and  N_6 
REMARK    3  A    between atoms: N_11  and  C_4 
REMARK    4  A    between atoms: N_6  and  N_5 
ROOT
ATOM      1  C   UNL d   1      33.240  20.396 -22.399  0.00  0.00     0.768 A 
ATOM      2  N   UNL d   1      33.239  20.530 -23.210  0.00  0.00    -0.058 NA
ATOM      3  N   UNL d   1      33.239  19.619 -22.109  0.00  0.00    -0.058 NA
ATOM      4  C   UNL d   1      33.238  19.894 -23.738  0.00  0.00     0.102 A 
ATOM      5  C   UNL d   1      33.238  18.983 -22.637  0.00  0.00     0.102 A 
ATOM      6  C   UNL d   1      33.238  19.117 -23.448  0.00  0.00     0.040 A 
ATOM      7  C   UNL d   1      33.238  18.210 -22.350  0.00  0.00     0.021 C 
ATOM      8  C   UNL d   1      33.238  20.030 -24.552  0.00  0.00     0.021 C 
ENDROOT
BRANCH   1   9
ATOM      9  N   UNL d   1      33.241  21.029 -21.875  0.00  0.00     0.049 NA
BRANCH   9  10
ATOM     10  N   UNL d   1      32.536  21.272 -21.526  0.00  0.00    -0.101 NA
BRANCH  10  11
ATOM     11  C   UNL d   1      32.542  21.879 -20.977  0.00  0.00     0.241 C 
ATOM     12  S   UNL d   1      33.195  21.988 -20.495  0.00  0.00    -0.035 SA
BRANCH  11  13
ATOM     13  N   UNL d   1      31.895  22.377 -20.910  0.00  0.00    -0.213 NA
ATOM     14  C   UNL d   1      31.850  22.913 -20.287  0.00  0.00     0.122 C 
ENDBRANCH  11  13
ENDBRANCH  10  11
ENDBRANCH   9  10
ENDBRANCH   1   9
TORSDOF 4
ENDMDL
MODEL 9
REMARK VINA RESULT:      -0.8      3.295      4.473
REMARK  4 active torsions:
REMARK  status: ('A' for Active; 'I' for Inactive)
REMARK    1  A    between atoms: N_5  and  C_1 
REMARK    2  A    between atoms: C_4  and  N_6 
REMARK    3  A    between atoms: N_11  and  C_4 
REMARK    4  A    between atoms: N_6  and  N_5 
ROOT
ATOM      1  C   UNL d   1      30.193  17.123 -24.147  0.00  0.00     0.768 A 
ATOM      2  N   UNL d   1      29.623  17.716 -24.143  0.00  0.00    -0.058 NA
ATOM      3  N   UNL d   1      30.001  16.365 -23.874  0.00  0.00    -0.058 NA
ATOM      4  C   UNL d   1      28.860  17.559 -23.868  0.00  0.00     0.102 A 
ATOM      5  C   UNL d   1      29.237  16.207 -23.599  0.00  0.00     0.102 A 
ATOM      6  C   UNL d   1      28.668  16.800 -23.595  0.00  0.00     0.040 A 
ATOM      7  C   UNL d   1      29.045  15.453 -23.327  0.00  0.00     0.021 C 
ATOM      8  C   UNL d   1      28.290  18.155 -23.865  0.00  0.00     0.021 C 
ENDROOT
BRANCH   1   9
ATOM      9  N   UNL d   1      30.952  17.281 -24.421  0.00  0.00     0.049 NA
BRANCH   9  10
ATOM     10  N   UNL d   1      31.524  17.560 -23.899  0.00  0.00    -0.101 NA
BRANCH  10  11
ATOM     11  C   UNL d   1      32.217  17.885 -24.192  0.00  0.00     0.241 C 
ATOM     12  S   UNL d   1      32.286  18.048 -24.991  0.00  0.00    -0.035 SA
BRANCH  11  13
ATOM     13  N   UNL d   1      32.840  18.046 -23.684  0.00  0.00    -0.213 NA
ATOM     14  C   UNL d   1      32.871  18.764 -23.284  0.00  0.00     0.122 C 
ENDBRANCH  11  13
ENDBRANCH  10  11
ENDBRANCH   9  10
ENDBRANCH   1   9
TORSDOF 4
ENDMDL
