MODEL 1
REMARK VINA RESULT:     -11.0      0.000      0.000
REMARK  7 active torsions:
REMARK  status: ('A' for Active; 'I' for Inactive)
REMARK    1  A    between atoms: C_9  and  N_1 
REMARK    2  A    between atoms: C_12  and  N_3 
REMARK    3  A    between atoms: N_7  and  C_11 
REMARK    4  A    between atoms: C_13  and  C_9 
REMARK    5  A    between atoms: C_21  and  C_12 
REMARK       I    between atoms: N_20  and  C_13 
REMARK    6  A    between atoms: C_23  and  N_20 
REMARK    7  A    between atoms: C_24  and  C_23 
ROOT
ATOM      1  N   UNL d   1      52.344  33.334  53.539  0.00  0.00    -0.220 N 
ATOM      2  C   UNL d   1      52.683  32.662  53.201  0.00  0.00     0.342 A 
ATOM      3  N   UNL d   1      53.403  32.375  53.487  0.00  0.00    -0.258 N 
ATOM      4  C   UNL d   1      53.443  33.431  54.448  0.00  0.00     0.102 A 
ATOM      5  C   UNL d   1      52.725  33.718  54.164  0.00  0.00     0.276 A 
ATOM      6  C   UNL d   1      53.782  32.759  54.110  0.00  0.00     0.079 A 
ATOM      7  S   UNL d   1      53.940  33.691  55.051  0.00  0.00    -0.080 SA
ATOM      8  C   UNL d   1      54.486  32.608  54.506  0.00  0.00     0.025 A 
ATOM      9  O   UNL d   1      52.302  32.271  52.570  0.00  0.00    -0.245 OA
ATOM     10  C   UNL d   1      54.589  33.181  55.088  0.00  0.00     0.037 A 
ATOM     11  O   UNL d   1      52.386  34.390  54.502  0.00  0.00    -0.266 OA
ENDROOT
BRANCH   1  12
ATOM     12  C   UNL d   1      51.621  33.621  53.250  0.00  0.00     0.150 C 
BRANCH  12  13
ATOM     13  C   UNL d   1      51.612  34.210  52.672  0.00  0.00     0.297 C 
ATOM     14  N   UNL d   1      50.888  34.506  52.390  0.00  0.00    -0.205 NA
ATOM     15  O   UNL d   1      52.321  34.512  52.367  0.00  0.00    -0.264 OA
BRANCH  14  16
ATOM     16  C   UNL d   1      50.323  34.276  52.624  0.00  0.00     0.102 C 
BRANCH  16  17
ATOM     17  C   UNL d   1      49.609  34.610  52.348  0.00  0.00     0.019 A 
ATOM     18  C   UNL d   1      49.183  35.113  52.853  0.00  0.00     0.002 A 
ATOM     19  C   UNL d   1      48.469  35.453  52.589  0.00  0.00     0.000 A 
ATOM     20  C   UNL d   1      48.200  35.287  51.837  0.00  0.00     0.000 A 
ATOM     21  C   UNL d   1      48.626  34.784  51.331  0.00  0.00     0.000 A 
ATOM     22  C   UNL d   1      47.481  35.632  51.578  0.00  0.00     0.000 C 
ATOM     23  C   UNL d   1      49.333  34.446  51.589  0.00  0.00     0.002 A 
ENDBRANCH  16  17
ENDBRANCH  14  16
ENDBRANCH  12  13
ENDBRANCH   1  12
BRANCH   3  24
ATOM     24  C   UNL d   1      53.742  31.703  53.149  0.00  0.00     0.085 C 
BRANCH  24  25
ATOM     25  C   UNL d   1      53.383  30.969  53.242  0.00  0.00     0.019 A 
ATOM     26  C   UNL d   1      53.539  30.514  53.913  0.00  0.00     0.025 A 
ATOM     27  C   UNL d   1      53.179  29.779  54.007  0.00  0.00     0.127 A 
ATOM     28  C   UNL d   1      52.661  29.496  53.428  0.00  0.00     0.024 A 
ATOM     29  C   UNL d   1      52.505  29.951  52.757  0.00  0.00     0.002 A 
ATOM     30  C   UNL d   1      52.864  30.685  52.664  0.00  0.00     0.002 A 
BRANCH  27  31
ATOM     31  N   UNL d   1      53.340  29.331  54.680  0.00  0.00    -0.114 N 
ATOM     32  O   UNL d   1      53.186  29.635  55.434  0.00  0.00    -0.532 OA
ATOM     33  O   UNL d   1      53.660  28.571  54.604  0.00  0.00    -0.532 OA
ENDBRANCH  27  31
ENDBRANCH  24  25
ENDBRANCH   3  24
TORSDOF 7
ENDMDL
