MODEL 1
REMARK VINA RESULT:      21.1      0.000      0.000
REMARK  7 active torsions:
REMARK  status: ('A' for Active; 'I' for Inactive)
REMARK    1  A    between atoms: C_11  and  C_3 
REMARK    2  A    between atoms: C_10  and  C_5 
REMARK    3  A    between atoms: O_22  and  C_13 
REMARK    4  A    between atoms: O_25  and  C_14 
REMARK    5  A    between atoms: O_24  and  C_15 
REMARK    6  A    between atoms: O_26  and  C_21 
REMARK    7  A    between atoms: C_30  and  O_26 
ROOT
ATOM      1  N   UNL d   1     -41.524-120.965 -52.231  0.00  0.00    -0.208 N 
ATOM      2  N   UNL d   1     -41.513-120.281 -52.688  0.00  0.00    -0.162 NA
ATOM      3  C   UNL d   1     -41.668-121.752 -52.430  0.00  0.00     0.184 A 
ATOM      4  C   UNL d   1     -41.355-120.762 -51.450  0.00  0.00     0.088 A 
ATOM      5  C   UNL d   1     -41.335-119.646 -52.183  0.00  0.00     0.126 A 
ATOM      6  O   UNL d   1     -41.643-122.335 -51.849  0.00  0.00    -0.287 OA
ATOM      7  C   UNL d   1     -41.330-121.348 -50.866  0.00  0.00     0.043 A 
ATOM      8  C   UNL d   1     -41.474-122.132 -51.068  0.00  0.00     0.126 A 
ATOM      9  C   UNL d   1     -41.238-119.946 -51.417  0.00  0.00     0.042 A 
ATOM     10  C   UNL d   1     -41.451-122.718 -50.495  0.00  0.00     0.123 A 
ATOM     11  C   UNL d   1     -41.162-121.142 -50.087  0.00  0.00     0.004 A 
ATOM     12  C   UNL d   1     -41.137-121.722 -49.510  0.00  0.00     0.002 A 
ATOM     13  C   UNL d   1     -41.282-122.515 -49.714  0.00  0.00     0.027 A 
ENDROOT
BRANCH   3  14
ATOM     14  C   UNL d   1     -41.837-121.955 -53.211  0.00  0.00     0.045 A 
ATOM     15  C   UNL d   1     -42.452-121.572 -53.617  0.00  0.00     0.030 A 
ATOM     16  C   UNL d   1     -42.621-121.774 -54.398  0.00  0.00     0.118 A 
ATOM     17  C   UNL d   1     -42.184-122.354 -54.781  0.00  0.00     0.138 A 
ATOM     18  C   UNL d   1     -41.566-122.740 -54.373  0.00  0.00     0.118 A 
ATOM     19  C   UNL d   1     -41.397-122.537 -53.592  0.00  0.00     0.030 A 
BRANCH  16  20
ATOM     20  O   UNL d   1     -43.232-121.392 -54.797  0.00  0.00    -0.326 OA
ATOM     21  C   UNL d   1     -44.019-121.569 -54.615  0.00  0.00     0.181 C 
ENDBRANCH  16  20
BRANCH  17  22
ATOM     22  O   UNL d   1     -42.354-122.557 -55.563  0.00  0.00    -0.324 OA
ATOM     23  C   UNL d   1     -41.835-122.335 -56.165  0.00  0.00     0.182 C 
ENDBRANCH  17  22
BRANCH  18  24
ATOM     24  O   UNL d   1     -41.122-123.324 -54.751  0.00  0.00    -0.326 OA
ATOM     25  C   UNL d   1     -41.358-123.608 -55.491  0.00  0.00     0.181 C 
ENDBRANCH  18  24
ENDBRANCH   3  14
BRANCH   5  26
ATOM     26  C   UNL d   1     -41.267-118.848 -52.408  0.00  0.00     0.119 A 
ATOM     27  O   UNL d   1     -41.284-118.559 -53.180  0.00  0.00    -0.306 OA
ATOM     28  C   UNL d   1     -41.196-117.731 -53.135  0.00  0.00     0.100 A 
ATOM     29  C   UNL d   1     -41.183-117.220 -53.780  0.00  0.00     0.027 C 
ATOM     30  C   UNL d   1     -41.125-117.523 -52.336  0.00  0.00     0.027 A 
ATOM     31  C   UNL d   1     -41.167-118.200 -51.878  0.00  0.00     0.028 A 
ENDBRANCH   5  26
BRANCH  10  32
ATOM     32  O   UNL d   1     -41.594-123.505 -50.694  0.00  0.00    -0.303 OA
BRANCH  32  33
ATOM     33  C   UNL d   1     -42.367-123.799 -50.707  0.00  0.00     0.123 C 
ATOM     34  C   UNL d   1     -42.814-123.817 -50.017  0.00  0.00     0.029 C 
ENDBRANCH  32  33
ENDBRANCH  10  32
TORSDOF 7
ENDMDL
MODEL 2
REMARK VINA RESULT:      23.0      1.121      3.792
REMARK  7 active torsions:
REMARK  status: ('A' for Active; 'I' for Inactive)
REMARK    1  A    between atoms: C_11  and  C_3 
REMARK    2  A    between atoms: C_10  and  C_5 
REMARK    3  A    between atoms: O_22  and  C_13 
REMARK    4  A    between atoms: O_25  and  C_14 
REMARK    5  A    between atoms: O_24  and  C_15 
REMARK    6  A    between atoms: O_26  and  C_21 
REMARK    7  A    between atoms: C_30  and  O_26 
ROOT
ATOM      1  N   UNL d   1     -41.727-120.994 -53.019  0.00  0.00    -0.208 N 
ATOM      2  N   UNL d   1     -41.657-120.337 -52.530  0.00  0.00    -0.162 NA
ATOM      3  C   UNL d   1     -41.886-121.786 -52.851  0.00  0.00     0.184 A 
ATOM      4  C   UNL d   1     -41.608-120.755 -53.800  0.00  0.00     0.088 A 
ATOM      5  C   UNL d   1     -41.492-119.682 -53.014  0.00  0.00     0.126 A 
ATOM      6  O   UNL d   1     -41.925-122.337 -53.461  0.00  0.00    -0.287 OA
ATOM      7  C   UNL d   1     -41.647-121.309 -54.413  0.00  0.00     0.043 A 
ATOM      8  C   UNL d   1     -41.806-122.098 -54.242  0.00  0.00     0.126 A 
ATOM      9  C   UNL d   1     -41.462-119.943 -53.799  0.00  0.00     0.042 A 
ATOM     10  C   UNL d   1     -41.846-122.652 -54.844  0.00  0.00     0.123 A 
ATOM     11  C   UNL d   1     -41.528-121.068 -55.190  0.00  0.00     0.004 A 
ATOM     12  C   UNL d   1     -41.567-121.616 -55.798  0.00  0.00     0.002 A 
ATOM     13  C   UNL d   1     -41.727-122.414 -55.624  0.00  0.00     0.027 A 
ENDROOT
BRANCH   3  14
ATOM     14  C   UNL d   1     -42.005-122.025 -52.071  0.00  0.00     0.045 A 
ATOM     15  C   UNL d   1     -41.514-122.604 -51.733  0.00  0.00     0.030 A 
ATOM     16  C   UNL d   1     -41.634-122.843 -50.953  0.00  0.00     0.118 A 
ATOM     17  C   UNL d   1     -42.236-122.511 -50.505  0.00  0.00     0.138 A 
ATOM     18  C   UNL d   1     -42.729-121.929 -50.844  0.00  0.00     0.118 A 
ATOM     19  C   UNL d   1     -42.610-121.690 -51.624  0.00  0.00     0.030 A 
BRANCH  16  20
ATOM     20  O   UNL d   1     -41.146-123.417 -50.622  0.00  0.00    -0.326 OA
ATOM     21  C   UNL d   1     -41.365-123.792 -49.918  0.00  0.00     0.181 C 
ENDBRANCH  16  20
BRANCH  17  22
ATOM     22  O   UNL d   1     -42.354-122.751 -49.724  0.00  0.00    -0.324 OA
ATOM     23  C   UNL d   1     -42.029-122.310 -49.106  0.00  0.00     0.182 C 
ENDBRANCH  17  22
BRANCH  18  24
ATOM     24  O   UNL d   1     -43.336-121.591 -50.399  0.00  0.00    -0.326 OA
ATOM     25  C   UNL d   1     -44.122-121.806 -50.540  0.00  0.00     0.181 C 
ENDBRANCH  18  24
ENDBRANCH   3  14
BRANCH   5  26
ATOM     26  C   UNL d   1     -41.377-118.900 -52.754  0.00  0.00     0.119 A 
ATOM     27  O   UNL d   1     -41.429-118.222 -53.220  0.00  0.00    -0.306 OA
ATOM     28  C   UNL d   1     -41.272-117.570 -52.724  0.00  0.00     0.100 A 
ATOM     29  C   UNL d   1     -41.266-116.783 -52.964  0.00  0.00     0.027 C 
ATOM     30  C   UNL d   1     -41.127-117.857 -51.960  0.00  0.00     0.027 A 
ATOM     31  C   UNL d   1     -41.188-118.673 -51.965  0.00  0.00     0.028 A 
ENDBRANCH   5  26
BRANCH  10  32
ATOM     32  O   UNL d   1     -42.005-123.444 -54.675  0.00  0.00    -0.303 OA
BRANCH  32  33
ATOM     33  C   UNL d   1     -42.768-123.748 -54.773  0.00  0.00     0.123 C 
ATOM     34  C   UNL d   1     -43.187-123.597 -55.463  0.00  0.00     0.029 C 
ENDBRANCH  32  33
ENDBRANCH  10  32
TORSDOF 7
ENDMDL
MODEL 3
REMARK VINA RESULT:      24.1      1.288      4.505
REMARK  7 active torsions:
REMARK  status: ('A' for Active; 'I' for Inactive)
REMARK    1  A    between atoms: C_11  and  C_3 
REMARK    2  A    between atoms: C_10  and  C_5 
REMARK    3  A    between atoms: O_22  and  C_13 
REMARK    4  A    between atoms: O_25  and  C_14 
REMARK    5  A    between atoms: O_24  and  C_15 
REMARK    6  A    between atoms: O_26  and  C_21 
REMARK    7  A    between atoms: C_30  and  O_26 
ROOT
ATOM      1  N   UNL d   1     -42.080-121.551 -52.458  0.00  0.00    -0.208 N 
ATOM      2  N   UNL d   1     -42.304-122.247 -52.835  0.00  0.00    -0.162 NA
ATOM      3  C   UNL d   1     -42.014-121.359 -51.659  0.00  0.00     0.184 A 
ATOM      4  C   UNL d   1     -41.906-120.985 -53.033  0.00  0.00     0.088 A 
ATOM      5  C   UNL d   1     -42.267-122.111 -53.653  0.00  0.00     0.126 A 
ATOM      6  O   UNL d   1     -41.773-120.604 -51.434  0.00  0.00    -0.287 OA
ATOM      7  C   UNL d   1     -41.664-120.227 -52.807  0.00  0.00     0.043 A 
ATOM      8  C   UNL d   1     -41.598-120.039 -52.009  0.00  0.00     0.126 A 
ATOM      9  C   UNL d   1     -42.021-121.329 -53.774  0.00  0.00     0.042 A 
ATOM     10  C   UNL d   1     -41.360-119.290 -51.778  0.00  0.00     0.123 A 
ATOM     11  C   UNL d   1     -41.491-119.665 -53.383  0.00  0.00     0.004 A 
ATOM     12  C   UNL d   1     -41.251-118.914 -53.160  0.00  0.00     0.002 A 
ATOM     13  C   UNL d   1     -41.185-118.725 -52.353  0.00  0.00     0.027 A 
ENDROOT
BRANCH   3  14
ATOM     14  C   UNL d   1     -42.188-121.925 -51.084  0.00  0.00     0.045 A 
ATOM     15  C   UNL d   1     -42.960-121.987 -50.783  0.00  0.00     0.030 A 
ATOM     16  C   UNL d   1     -43.135-122.553 -50.209  0.00  0.00     0.118 A 
ATOM     17  C   UNL d   1     -42.549-123.057 -49.931  0.00  0.00     0.138 A 
ATOM     18  C   UNL d   1     -41.774-122.994 -50.233  0.00  0.00     0.118 A 
ATOM     19  C   UNL d   1     -41.599-122.428 -50.808  0.00  0.00     0.030 A 
BRANCH  16  20
ATOM     20  O   UNL d   1     -43.900-122.612 -49.913  0.00  0.00    -0.326 OA
ATOM     21  C   UNL d   1     -44.546-122.436 -50.398  0.00  0.00     0.181 C 
ENDBRANCH  16  20
BRANCH  17  22
ATOM     22  O   UNL d   1     -42.725-123.622 -49.356  0.00  0.00    -0.324 OA
ATOM     23  C   UNL d   1     -42.961-123.382 -48.603  0.00  0.00     0.182 C 
ENDBRANCH  17  22
BRANCH  18  24
ATOM     24  O   UNL d   1     -41.181-123.497 -49.958  0.00  0.00    -0.326 OA
ATOM     25  C   UNL d   1     -41.134-123.680 -49.153  0.00  0.00     0.181 C 
ENDBRANCH  18  24
ENDBRANCH   3  14
BRANCH   5  26
ATOM     26  C   UNL d   1     -42.447-122.664 -54.248  0.00  0.00     0.119 A 
ATOM     27  O   UNL d   1     -42.849-122.507 -54.951  0.00  0.00    -0.306 OA
ATOM     28  C   UNL d   1     -42.899-123.225 -55.372  0.00  0.00     0.100 A 
ATOM     29  C   UNL d   1     -43.258-123.321 -56.106  0.00  0.00     0.027 C 
ATOM     30  C   UNL d   1     -42.528-123.814 -54.921  0.00  0.00     0.027 A 
ATOM     31  C   UNL d   1     -42.245-123.482 -54.228  0.00  0.00     0.028 A 
ENDBRANCH   5  26
BRANCH  10  32
ATOM     32  O   UNL d   1     -41.293-119.099 -50.979  0.00  0.00    -0.303 OA
BRANCH  32  33
ATOM     33  C   UNL d   1     -41.393-118.318 -50.726  0.00  0.00     0.123 C 
ATOM     34  C   UNL d   1     -41.390-118.139 -49.923  0.00  0.00     0.029 C 
ENDBRANCH  32  33
ENDBRANCH  10  32
TORSDOF 7
ENDMDL
