MODEL 1
REMARK VINA RESULT:      24.0      0.000      0.000
REMARK  4 active torsions:
REMARK  status: ('A' for Active; 'I' for Inactive)
REMARK    1  A    between atoms: C_6  and  C_1 
REMARK    2  A    between atoms: C_7  and  N_3 
REMARK    3  A    between atoms: C_9  and  C_6 
REMARK    4  A    between atoms: N_8  and  C_9 
ROOT
ATOM      1  C   UNL d   1      45.742 -15.850  43.931  0.00  0.00     0.058 A 
ATOM      2  C   UNL d   1      45.744 -16.625  44.216  0.00  0.00     0.067 A 
ATOM      3  N   UNL d   1      46.079 -17.123  43.646  0.00  0.00    -0.306 N 
ATOM      4  C   UNL d   1      46.281 -16.637  43.011  0.00  0.00     0.064 A 
ATOM      5  C   UNL d   1      46.074 -15.885  43.197  0.00  0.00     0.022 A 
ATOM      6  C   UNL d   1      45.456 -16.868  44.955  0.00  0.00     0.019 C 
ATOM      7  C   UNL d   1      46.640 -16.893  42.297  0.00  0.00     0.019 C 
ENDROOT
BRANCH   1   8
ATOM      8  C   UNL d   1      45.455 -15.174  44.326  0.00  0.00     0.214 C 
ATOM      9  O   UNL d   1      44.652 -15.068  44.450  0.00  0.00    -0.285 OA
BRANCH   8  10
ATOM     10  C   UNL d   1      45.990 -14.606  44.595  0.00  0.00     0.123 C 
BRANCH  10  11
ATOM     11  N   UNL d   1      45.874 -13.814  44.421  0.00  0.00    -0.300 N 
ATOM     12  C   UNL d   1      46.190 -13.255  44.910  0.00  0.00     0.080 A 
ATOM     13  C   UNL d   1      46.079 -12.444  44.744  0.00  0.00     0.019 A 
ATOM     14  C   UNL d   1      45.642 -12.253  44.073  0.00  0.00     0.003 A 
ATOM     15  C   UNL d   1      45.326 -12.812  43.584  0.00  0.00     0.019 A 
ATOM     16  C   UNL d   1      45.458 -13.612  43.782  0.00  0.00     0.080 A 
ENDBRANCH  10  11
ENDBRANCH   8  10
ENDBRANCH   1   8
BRANCH   3  17
ATOM     17  C   UNL d   1      46.221 -17.913  43.621  0.00  0.00     0.064 A 
ATOM     18  C   UNL d   1      46.073 -18.331  42.919  0.00  0.00     0.020 A 
ATOM     19  C   UNL d   1      46.221 -19.156  42.893  0.00  0.00     0.031 A 
ATOM     20  C   UNL d   1      46.503 -19.530  43.545  0.00  0.00     0.140 A 
ATOM     21  C   UNL d   1      46.647 -19.122  44.227  0.00  0.00     0.031 A 
ATOM     22  F   UNL d   1      46.647 -20.330  43.520  0.00  0.00    -0.204 F 
ATOM     23  C   UNL d   1      46.508 -18.296  44.282  0.00  0.00     0.020 A 
ENDBRANCH   3  17
TORSDOF 4
ENDMDL
