MODEL 1
REMARK VINA RESULT:      92.5      0.000      0.000
REMARK  9 active torsions:
REMARK  status: ('A' for Active; 'I' for Inactive)
REMARK    1  A    between atoms: P_2  and  C_1 
REMARK    2  A    between atoms: O_8  and  P_2 
REMARK    3  A    between atoms: O_9  and  P_2 
REMARK    4  A    between atoms: N_10  and  C_4 
REMARK    5  A    between atoms: C_24  and  O_8 
REMARK    6  A    between atoms: C_23  and  O_9 
REMARK    7  A    between atoms: C_15  and  N_10 
REMARK    8  A    between atoms: O_25  and  C_16 
REMARK    9  A    between atoms: O_26  and  C_17 
ROOT
ATOM      1  C   UNL d   1      58.578  49.116  50.737  0.00  0.00     0.174 A 
ATOM      2  C   UNL d   1      59.174  48.825  50.236  0.00  0.00     0.100 A 
ATOM      3  C   UNL d   1      59.956  48.798  50.498  0.00  0.00     0.095 A 
ATOM      4  N   UNL d   1      58.770  49.377  51.495  0.00  0.00    -0.237 NA
ATOM      5  C   UNL d   1      60.144  49.059  51.255  0.00  0.00     0.038 A 
ATOM      6  C   UNL d   1      59.548  49.350  51.755  0.00  0.00     0.083 A 
ATOM      7  C   UNL d   1      60.921  49.030  51.511  0.00  0.00     0.027 A 
ATOM      8 CL   UNL d   1      58.981  48.562  49.474  0.00  0.00    -0.079 Cl
ATOM      9  C   UNL d   1      59.737  49.610  52.511  0.00  0.00     0.021 A 
ATOM     10  C   UNL d   1      61.117  49.293  52.276  0.00  0.00     0.094 A 
ATOM     11  C   UNL d   1      60.521  49.584  52.777  0.00  0.00     0.026 A 
ENDROOT
BRANCH   1  12
ATOM     12  P   UNL d   1      57.791  49.143  50.474  0.00  0.00     0.392 P 
ATOM     13  O   UNL d   1      58.044  49.508  49.777  0.00  0.00    -0.251 OA
BRANCH  12  14
ATOM     14  O   UNL d   1      57.358  48.796  51.087  0.00  0.00    -0.265 OA
BRANCH  14  15
ATOM     15  C   UNL d   1      56.655  49.150  51.354  0.00  0.00     0.103 C 
ATOM     16  C   UNL d   1      56.260  49.699  50.885  0.00  0.00     0.027 C 
ATOM     17  C   UNL d   1      56.355  48.945  52.097  0.00  0.00     0.027 C 
ENDBRANCH  14  15
ENDBRANCH  12  14
BRANCH  12  18
ATOM     18  O   UNL d   1      57.002  49.158  50.239  0.00  0.00    -0.265 OA
BRANCH  18  19
ATOM     19  C   UNL d   1      56.802  49.030  49.450  0.00  0.00     0.103 C 
ATOM     20  C   UNL d   1      56.688  49.669  48.941  0.00  0.00     0.027 C 
ATOM     21  C   UNL d   1      56.714  48.260  49.170  0.00  0.00     0.027 C 
ENDBRANCH  18  19
ENDBRANCH  12  18
ENDBRANCH   1  12
BRANCH   3  22
ATOM     22  N   UNL d   1      60.549  48.508  50.000  0.00  0.00    -0.245 NA
BRANCH  22  23
ATOM     23  C   UNL d   1      60.802  47.721  50.062  0.00  0.00     0.082 A 
ATOM     24  C   UNL d   1      61.366  47.519  50.623  0.00  0.00     0.021 A 
ATOM     25  C   UNL d   1      61.627  46.733  50.694  0.00  0.00     0.026 A 
ATOM     26  C   UNL d   1      61.307  46.161  50.188  0.00  0.00     0.094 A 
ATOM     27  C   UNL d   1      60.740  46.365  49.624  0.00  0.00     0.026 A 
ATOM     28  C   UNL d   1      60.488  47.147  49.562  0.00  0.00     0.021 A 
BRANCH  26  29
ATOM     29  O   UNL d   1      61.568  45.373  50.258  0.00  0.00    -0.328 OA
ATOM     30  C   UNL d   1      62.328  45.222  50.558  0.00  0.00     0.181 C 
ENDBRANCH  26  29
ENDBRANCH  22  23
ENDBRANCH   3  22
BRANCH  10  31
ATOM     31  O   UNL d   1      61.896  49.266  52.536  0.00  0.00    -0.328 OA
ATOM     32  C   UNL d   1      62.123  49.700  53.196  0.00  0.00     0.181 C 
ENDBRANCH  10  31
TORSDOF 9
ENDMDL
