MODEL 1
REMARK VINA RESULT:      70.9      0.000      0.000
REMARK  4 active torsions:
REMARK  status: ('A' for Active; 'I' for Inactive)
REMARK    1  A    between atoms: N_2  and  S_1 
REMARK    2  A    between atoms: C_5  and  S_1 
REMARK    3  A    between atoms: C_4  and  C_3 
REMARK    4  A    between atoms: C_12  and  C_3 
ROOT
ATOM      1  N   UNL d   1     -56.122 -99.893 -44.482  0.00  0.00    -0.230 N 
ATOM      2  C   UNL d   1     -57.679 -99.445 -44.794  0.00  0.00     0.137 A 
ATOM      3  C   UNL d   1     -57.135 -99.514 -45.401  0.00  0.00     0.011 A 
ATOM      4  C   UNL d   1     -57.438 -99.603 -44.020  0.00  0.00     0.011 A 
ATOM      5  C   UNL d   1     -56.660 -99.827 -43.864  0.00  0.00     0.088 A 
ATOM      6  C   UNL d   1     -56.356 -99.738 -45.245  0.00  0.00     0.088 A 
ENDROOT
BRANCH   1   7
ATOM      7  S   UNL d   1     -55.343-100.117 -44.325  0.00  0.00     0.271 S 
ATOM      8  O   UNL d   1     -54.723 -99.765 -44.735  0.00  0.00    -0.200 OA
ATOM      9  O   UNL d   1     -55.295 -99.541 -44.910  0.00  0.00    -0.200 OA
BRANCH   7  10
ATOM     10  C   UNL d   1     -55.186-100.693 -43.758  0.00  0.00     0.104 A 
ATOM     11  C   UNL d   1     -55.039-100.475 -42.985  0.00  0.00     0.013 A 
ATOM     12  C   UNL d   1     -54.880-101.048 -42.409  0.00  0.00     0.001 A 
ATOM     13  C   UNL d   1     -54.873-101.854 -42.629  0.00  0.00     0.000 A 
ATOM     14  C   UNL d   1     -55.023-102.065 -43.412  0.00  0.00     0.001 A 
ATOM     15  C   UNL d   1     -54.714-102.427 -42.054  0.00  0.00     0.000 C 
ATOM     16  C   UNL d   1     -55.178-101.487 -43.972  0.00  0.00     0.013 A 
ENDBRANCH   7  10
ENDBRANCH   1   7
BRANCH   2  17
ATOM     17  C   UNL d   1     -57.992 -99.457 -44.022  0.00  0.00     0.196 C 
ATOM     18  O   UNL d   1     -58.270-100.155 -43.695  0.00  0.00    -0.647 OA
ATOM     19  O   UNL d   1     -58.021 -98.757 -43.585  0.00  0.00    -0.647 OA
ENDBRANCH   2  17
BRANCH   2  20
ATOM     20  C   UNL d   1     -58.390 -99.215 -45.145  0.00  0.00    -0.005 A 
ATOM     21  C   UNL d   1     -58.423 -99.133 -45.963  0.00  0.00    -0.003 A 
ATOM     22  C   UNL d   1     -59.133 -98.903 -46.321  0.00  0.00    -0.000 A 
ATOM     23  C   UNL d   1     -59.806 -98.756 -45.861  0.00  0.00    -0.000 A 
ATOM     24  C   UNL d   1     -59.762 -98.842 -45.037  0.00  0.00    -0.000 A 
ATOM     25  C   UNL d   1     -59.058 -99.069 -44.688  0.00  0.00    -0.003 A 
ENDBRANCH   2  20
TORSDOF 4
ENDMDL
MODEL 2
REMARK VINA RESULT:      71.3      1.613      4.068
REMARK  4 active torsions:
REMARK  status: ('A' for Active; 'I' for Inactive)
REMARK    1  A    between atoms: N_2  and  S_1 
REMARK    2  A    between atoms: C_5  and  S_1 
REMARK    3  A    between atoms: C_4  and  C_3 
REMARK    4  A    between atoms: C_12  and  C_3 
ROOT
ATOM      1  N   UNL d   1     -57.707 -99.587 -44.032  0.00  0.00    -0.230 N 
ATOM      2  C   UNL d   1     -56.345-100.511 -44.151  0.00  0.00     0.137 A 
ATOM      3  C   UNL d   1     -57.085-100.860 -44.119  0.00  0.00     0.011 A 
ATOM      4  C   UNL d   1     -56.289 -99.688 -44.123  0.00  0.00     0.011 A 
ATOM      5  C   UNL d   1     -56.970 -99.226 -44.064  0.00  0.00     0.088 A 
ATOM      6  C   UNL d   1     -57.765-100.398 -44.059  0.00  0.00     0.088 A 
ENDROOT
BRANCH   1   7
ATOM      7  S   UNL d   1     -58.388 -99.125 -43.973  0.00  0.00     0.271 S 
ATOM      8  O   UNL d   1     -58.696 -98.757 -44.641  0.00  0.00    -0.200 OA
ATOM      9  O   UNL d   1     -58.169 -99.096 -44.765  0.00  0.00    -0.200 OA
BRANCH   7  10
ATOM     10  C   UNL d   1     -58.761 -99.033 -43.244  0.00  0.00     0.104 A 
ATOM     11  C   UNL d   1     -58.315 -98.949 -42.565  0.00  0.00     0.013 A 
ATOM     12  C   UNL d   1     -58.682 -98.856 -41.829  0.00  0.00     0.001 A 
ATOM     13  C   UNL d   1     -59.516 -98.848 -41.789  0.00  0.00     0.000 A 
ATOM     14  C   UNL d   1     -59.960 -98.934 -42.480  0.00  0.00     0.001 A 
ATOM     15  C   UNL d   1     -59.884 -98.755 -41.054  0.00  0.00     0.000 C 
ATOM     16  C   UNL d   1     -59.582 -99.026 -43.202  0.00  0.00     0.013 A 
ENDBRANCH   7  10
ENDBRANCH   1   7
BRANCH   2  17
ATOM     17  C   UNL d   1     -55.764 -99.913 -44.164  0.00  0.00     0.196 C 
ATOM     18  O   UNL d   1     -55.617 -99.491 -44.849  0.00  0.00    -0.647 OA
ATOM     19  O   UNL d   1     -55.335 -99.750 -43.477  0.00  0.00    -0.647 OA
ENDBRANCH   2  17
BRANCH   2  20
ATOM     20  C   UNL d   1     -55.799-101.128 -44.208  0.00  0.00    -0.005 A 
ATOM     21  C   UNL d   1     -55.690-101.624 -43.561  0.00  0.00    -0.003 A 
ATOM     22  C   UNL d   1     -55.145-102.245 -43.611  0.00  0.00    -0.000 A 
ATOM     23  C   UNL d   1     -54.711-102.367 -44.306  0.00  0.00    -0.000 A 
ATOM     24  C   UNL d   1     -54.829-101.860 -44.952  0.00  0.00    -0.000 A 
ATOM     25  C   UNL d   1     -55.369-101.248 -44.898  0.00  0.00    -0.003 A 
ENDBRANCH   2  20
TORSDOF 4
ENDMDL
