MODEL 1
REMARK VINA RESULT:      99.6      0.000      0.000
REMARK  3 active torsions:
REMARK  status: ('A' for Active; 'I' for Inactive)
REMARK    1  A    between atoms: C_9  and  N_1 
REMARK       I    between atoms: C_8  and  N_2 
REMARK    2  A    between atoms: C_3  and  C_9 
REMARK    3  A    between atoms: C_13  and  C_8 
ROOT
ATOM      1  N   UNL d   1      60.516  48.166  50.994  0.00  0.00    -0.193 N 
ATOM      2  C   UNL d   1      59.480  49.010  51.058  0.00  0.00     0.055 A 
ATOM      3  N   UNL d   1      59.821  47.748  50.780  0.00  0.00    -0.163 NA
ATOM      4  C   UNL d   1      60.294  48.936  51.161  0.00  0.00     0.089 A 
ATOM      5  C   UNL d   1      61.273  47.848  51.024  0.00  0.00     0.303 C 
ATOM      6  C   UNL d   1      59.187  48.278  50.824  0.00  0.00     0.104 A 
ATOM      7  O   UNL d   1      61.908  48.339  51.247  0.00  0.00    -0.263 OA
ATOM      8  C   UNL d   1      60.813  49.536  51.395  0.00  0.00     0.021 C 
ATOM      9  C   UNL d   1      58.397  48.096  50.658  0.00  0.00     0.023 C 
ENDROOT
BRANCH   2  10
ATOM     10  C   UNL d   1      59.036  49.705  51.173  0.00  0.00     0.089 C 
BRANCH  10  11
ATOM     11  N   UNL d   1      58.390  49.706  51.689  0.00  0.00    -0.240 N 
ATOM     12  C   UNL d   1      57.602  49.706  51.470  0.00  0.00     0.267 A 
ATOM     13  C   UNL d   1      57.153  49.706  52.165  0.00  0.00     0.061 A 
ATOM     14  O   UNL d   1      57.311  49.706  50.697  0.00  0.00    -0.267 OA
ATOM     15  C   UNL d   1      56.339  49.707  52.284  0.00  0.00     0.005 A 
ATOM     16  C   UNL d   1      57.661  49.706  52.806  0.00  0.00     0.061 A 
ATOM     17  C   UNL d   1      56.034  49.707  53.049  0.00  0.00     0.000 A 
ATOM     18  C   UNL d   1      56.546  49.707  53.697  0.00  0.00     0.000 A 
ATOM     19  C   UNL d   1      57.361  49.707  53.577  0.00  0.00     0.005 A 
ATOM     20  C   UNL d   1      58.436  49.706  52.518  0.00  0.00     0.267 A 
ATOM     21  O   UNL d   1      59.126  49.706  52.975  0.00  0.00    -0.267 OA
ENDBRANCH  10  11
ENDBRANCH   2  10
BRANCH   5  22
ATOM     22  C   UNL d   1      61.395  47.055  50.835  0.00  0.00     0.158 A 
ATOM     23  O   UNL d   1      61.596  46.762  50.090  0.00  0.00    -0.300 OA
ATOM     24  C   UNL d   1      61.662  45.942  50.153  0.00  0.00     0.123 A 
ATOM     25  C   UNL d   1      61.505  45.730  50.925  0.00  0.00     0.029 A 
ATOM     26  C   UNL d   1      61.338  46.421  51.353  0.00  0.00     0.032 A 
ENDBRANCH   5  22
TORSDOF 3
ENDMDL
MODEL 2
REMARK VINA RESULT:     102.0      2.164      3.820
REMARK  3 active torsions:
REMARK  status: ('A' for Active; 'I' for Inactive)
REMARK    1  A    between atoms: C_9  and  N_1 
REMARK       I    between atoms: C_8  and  N_2 
REMARK    2  A    between atoms: C_3  and  C_9 
REMARK    3  A    between atoms: C_13  and  C_8 
ROOT
ATOM      1  N   UNL d   1      57.327  47.945  50.114  0.00  0.00    -0.193 N 
ATOM      2  C   UNL d   1      58.173  48.849  50.620  0.00  0.00     0.055 A 
ATOM      3  N   UNL d   1      57.932  47.537  50.527  0.00  0.00    -0.163 NA
ATOM      4  C   UNL d   1      57.485  48.745  50.178  0.00  0.00     0.089 A 
ATOM      5  C   UNL d   1      56.697  47.592  49.722  0.00  0.00     0.303 C 
ATOM      6  C   UNL d   1      58.450  48.105  50.835  0.00  0.00     0.104 A 
ATOM      7  O   UNL d   1      56.139  48.076  49.337  0.00  0.00    -0.263 OA
ATOM      8  C   UNL d   1      57.022  49.347  49.849  0.00  0.00     0.021 C 
ATOM      9  C   UNL d   1      59.127  47.943  51.283  0.00  0.00     0.023 C 
ENDROOT
BRANCH   2  10
ATOM     10  C   UNL d   1      58.523  49.580  50.812  0.00  0.00     0.089 C 
BRANCH  10  11
ATOM     11  N   UNL d   1      59.296  49.607  51.104  0.00  0.00    -0.240 N 
ATOM     12  C   UNL d   1      59.978  49.625  50.652  0.00  0.00     0.267 A 
ATOM     13  C   UNL d   1      60.619  49.649  51.175  0.00  0.00     0.061 A 
ATOM     14  O   UNL d   1      60.017  49.619  49.827  0.00  0.00    -0.267 OA
ATOM     15  C   UNL d   1      61.430  49.674  51.038  0.00  0.00     0.005 A 
ATOM     16  C   UNL d   1      60.334  49.647  51.941  0.00  0.00     0.061 A 
ATOM     17  C   UNL d   1      61.955  49.696  51.672  0.00  0.00     0.000 A 
ATOM     18  C   UNL d   1      61.668  49.693  52.446  0.00  0.00     0.000 A 
ATOM     19  C   UNL d   1      60.856  49.668  52.583  0.00  0.00     0.005 A 
ATOM     20  C   UNL d   1      59.508  49.620  51.906  0.00  0.00     0.267 A 
ATOM     21  O   UNL d   1      58.993  49.609  52.554  0.00  0.00    -0.267 OA
ENDBRANCH  10  11
ENDBRANCH   2  10
BRANCH   5  22
ATOM     22  C   UNL d   1      56.624  46.771  49.714  0.00  0.00     0.158 A 
ATOM     23  O   UNL d   1      56.541  46.288  50.379  0.00  0.00    -0.300 OA
ATOM     24  C   UNL d   1      56.487  45.508  50.116  0.00  0.00     0.123 A 
ATOM     25  C   UNL d   1      56.535  45.507  49.301  0.00  0.00     0.029 A 
ATOM     26  C   UNL d   1      56.621  46.293  49.048  0.00  0.00     0.032 A 
ENDBRANCH   5  22
TORSDOF 3
ENDMDL
