MODEL 1
REMARK VINA RESULT:      -2.4      0.000      0.000
REMARK  10 active torsions:
REMARK  status: ('A' for Active; 'I' for Inactive)
REMARK    1  A    between atoms: C_5  and  C_1 
REMARK    2  A    between atoms: C_8  and  N_2 
REMARK    3  A    between atoms: C_9  and  C_5 
REMARK    4  A    between atoms: C_7  and  C_8 
REMARK       I    between atoms: N_13  and  C_7 
REMARK       I    between atoms: N_19  and  C_9 
REMARK    5  A    between atoms: N_11  and  C_21 
REMARK    6  A    between atoms: C_24  and  N_13 
REMARK    7  A    between atoms: C_25  and  N_13 
REMARK    8  A    between atoms: C_26  and  N_19 
REMARK    9  A    between atoms: C_21  and  C_23 
REMARK   10  A    between atoms: C_23  and  C_26 
ROOT
ATOM      1  C   UNL d   1      32.009  17.568 -23.831  0.00  0.00     0.063 A 
ATOM      2  N   UNL d   1      30.990  16.782 -24.203  0.00  0.00    -0.300 N 
ATOM      3  C   UNL d   1      31.177  17.479 -23.805  0.00  0.00     0.084 A 
ATOM      4  C   UNL d   1      32.322  16.925 -24.243  0.00  0.00     0.021 A 
ATOM      5  C   UNL d   1      31.684  16.437 -24.474  0.00  0.00     0.064 A 
ATOM      6  C   UNL d   1      33.087  16.717 -24.440  0.00  0.00     0.002 A 
ATOM      7  C   UNL d   1      31.836  15.747 -24.899  0.00  0.00     0.018 A 
ATOM      8  C   UNL d   1      33.240  16.024 -24.867  0.00  0.00     0.000 A 
ATOM      9  C   UNL d   1      32.610  15.542 -25.095  0.00  0.00     0.002 A 
ENDROOT
BRANCH   1  10
ATOM     10  C   UNL d   1      32.435  18.189 -23.501  0.00  0.00     0.254 C 
ATOM     11  O   UNL d   1      32.526  18.892 -23.928  0.00  0.00    -0.281 OA
BRANCH  10  12
ATOM     12  C   UNL d   1      32.770  18.118 -22.752  0.00  0.00     0.318 C 
ATOM     13  O   UNL d   1      33.004  17.376 -22.483  0.00  0.00    -0.262 OA
ATOM     14  N   UNL d   1      32.866  18.788 -22.280  0.00  0.00    -0.204 NA
BRANCH  14  15
ATOM     15  C   UNL d   1      32.630  19.521 -22.556  0.00  0.00     0.104 C 
BRANCH  15  16
ATOM     16  C   UNL d   1      32.577  20.151 -22.030  0.00  0.00     0.040 C 
BRANCH  16  17
ATOM     17  C   UNL d   1      33.036  20.832 -22.157  0.00  0.00     0.083 C 
BRANCH  17  18
ATOM     18  N   UNL d   1      32.820  21.553 -21.803  0.00  0.00    -0.285 N 
ATOM     19  C   UNL d   1      33.064  22.300 -22.054  0.00  0.00     0.183 A 
ATOM     20  N   UNL d   1      32.713  22.855 -21.539  0.00  0.00    -0.222 NA
ATOM     21  C   UNL d   1      32.256  22.444 -20.974  0.00  0.00     0.120 A 
ATOM     22  C   UNL d   1      32.329  21.635 -21.147  0.00  0.00     0.102 A 
ENDBRANCH  17  18
ENDBRANCH  16  17
ENDBRANCH  15  16
ENDBRANCH  14  15
ENDBRANCH  10  12
ENDBRANCH   1  10
BRANCH   2  23
ATOM     23  C   UNL d   1      30.229  16.481 -24.310  0.00  0.00     0.142 C 
BRANCH  23  24
ATOM     24  C   UNL d   1      29.578  16.976 -24.262  0.00  0.00     0.282 C 
ATOM     25  N   UNL d   1      28.879  16.712 -23.914  0.00  0.00    -0.271 N 
ATOM     26  O   UNL d   1      29.624  17.745 -24.565  0.00  0.00    -0.265 OA
BRANCH  25  27
ATOM     27  C   UNL d   1      28.832  15.947 -23.612  0.00  0.00     0.083 C 
ATOM     28  C   UNL d   1      28.100  15.597 -23.490  0.00  0.00     0.021 C 
ENDBRANCH  25  27
BRANCH  25  29
ATOM     29  C   UNL d   1      28.225  17.216 -23.868  0.00  0.00     0.083 C 
ATOM     30  C   UNL d   1      27.935  17.449 -23.131  0.00  0.00     0.021 C 
ENDBRANCH  25  29
ENDBRANCH  23  24
ENDBRANCH   2  23
TORSDOF 10
ENDMDL
MODEL 2
REMARK VINA RESULT:      -0.9      1.398      5.562
REMARK  10 active torsions:
REMARK  status: ('A' for Active; 'I' for Inactive)
REMARK    1  A    between atoms: C_5  and  C_1 
REMARK    2  A    between atoms: C_8  and  N_2 
REMARK    3  A    between atoms: C_9  and  C_5 
REMARK    4  A    between atoms: C_7  and  C_8 
REMARK       I    between atoms: N_13  and  C_7 
REMARK       I    between atoms: N_19  and  C_9 
REMARK    5  A    between atoms: N_11  and  C_21 
REMARK    6  A    between atoms: C_24  and  N_13 
REMARK    7  A    between atoms: C_25  and  N_13 
REMARK    8  A    between atoms: C_26  and  N_19 
REMARK    9  A    between atoms: C_21  and  C_23 
REMARK   10  A    between atoms: C_23  and  C_26 
ROOT
ATOM      1  C   UNL d   1      33.046  19.712 -23.479  0.00  0.00     0.063 A 
ATOM      2  N   UNL d   1      33.174  20.776 -22.675  0.00  0.00    -0.300 N 
ATOM      3  C   UNL d   1      33.094  19.956 -22.680  0.00  0.00     0.084 A 
ATOM      4  C   UNL d   1      33.096  20.384 -23.954  0.00  0.00     0.021 A 
ATOM      5  C   UNL d   1      33.176  21.046 -23.451  0.00  0.00     0.064 A 
ATOM      6  C   UNL d   1      33.082  20.487 -24.765  0.00  0.00     0.002 A 
ATOM      7  C   UNL d   1      33.239  21.800 -23.780  0.00  0.00     0.018 A 
ATOM      8  C   UNL d   1      33.145  21.244 -25.096  0.00  0.00     0.000 A 
ATOM      9  C   UNL d   1      33.224  21.897 -24.598  0.00  0.00     0.002 A 
ENDROOT
BRANCH   1  10
ATOM     10  C   UNL d   1      32.962  18.936 -23.738  0.00  0.00     0.254 C 
ATOM     11  O   UNL d   1      33.154  18.745 -24.520  0.00  0.00    -0.281 OA
BRANCH  10  12
ATOM     12  C   UNL d   1      32.690  18.349 -23.227  0.00  0.00     0.318 C 
ATOM     13  O   UNL d   1      33.044  18.260 -22.489  0.00  0.00    -0.262 OA
ATOM     14  N   UNL d   1      32.069  17.859 -23.458  0.00  0.00    -0.204 NA
BRANCH  14  15
ATOM     15  C   UNL d   1      31.723  17.956 -24.195  0.00  0.00     0.104 C 
BRANCH  15  16
ATOM     16  C   UNL d   1      31.152  17.418 -24.444  0.00  0.00     0.040 C 
BRANCH  16  17
ATOM     17  C   UNL d   1      30.388  17.452 -24.121  0.00  0.00     0.083 C 
BRANCH  17  18
ATOM     18  N   UNL d   1      29.852  16.829 -24.251  0.00  0.00    -0.285 N 
ATOM     19  C   UNL d   1      29.048  16.844 -24.066  0.00  0.00     0.183 A 
ATOM     20  N   UNL d   1      28.733  16.105 -24.292  0.00  0.00    -0.222 NA
ATOM     21  C   UNL d   1      29.348  15.641 -24.615  0.00  0.00     0.120 A 
ATOM     22  C   UNL d   1      30.039  16.100 -24.585  0.00  0.00     0.102 A 
ENDBRANCH  17  18
ENDBRANCH  16  17
ENDBRANCH  15  16
ENDBRANCH  14  15
ENDBRANCH  10  12
ENDBRANCH   1  10
BRANCH   2  23
ATOM     23  C   UNL d   1      33.240  21.248 -22.002  0.00  0.00     0.142 C 
BRANCH  23  24
ATOM     24  C   UNL d   1      32.602  21.336 -21.495  0.00  0.00     0.282 C 
ATOM     25  N   UNL d   1      32.574  21.971 -20.969  0.00  0.00    -0.271 N 
ATOM     26  O   UNL d   1      31.984  20.787 -21.512  0.00  0.00    -0.265 OA
BRANCH  25  27
ATOM     27  C   UNL d   1      33.189  22.519 -20.951  0.00  0.00     0.083 C 
ATOM     28  C   UNL d   1      33.022  23.323 -20.923  0.00  0.00     0.021 C 
ENDBRANCH  25  27
BRANCH  25  29
ATOM     29  C   UNL d   1      31.928  22.056 -20.459  0.00  0.00     0.083 C 
ATOM     30  C   UNL d   1      32.051  22.259 -19.669  0.00  0.00     0.021 C 
ENDBRANCH  25  29
ENDBRANCH  23  24
ENDBRANCH   2  23
TORSDOF 10
ENDMDL
MODEL 3
REMARK VINA RESULT:      -0.2      1.929      3.573
REMARK  10 active torsions:
REMARK  status: ('A' for Active; 'I' for Inactive)
REMARK    1  A    between atoms: C_5  and  C_1 
REMARK    2  A    between atoms: C_8  and  N_2 
REMARK    3  A    between atoms: C_9  and  C_5 
REMARK    4  A    between atoms: C_7  and  C_8 
REMARK       I    between atoms: N_13  and  C_7 
REMARK       I    between atoms: N_19  and  C_9 
REMARK    5  A    between atoms: N_11  and  C_21 
REMARK    6  A    between atoms: C_24  and  N_13 
REMARK    7  A    between atoms: C_25  and  N_13 
REMARK    8  A    between atoms: C_26  and  N_19 
REMARK    9  A    between atoms: C_21  and  C_23 
REMARK   10  A    between atoms: C_23  and  C_26 
ROOT
ATOM      1  C   UNL d   1      33.006  20.208 -22.648  0.00  0.00     0.063 A 
ATOM      2  N   UNL d   1      33.087  19.027 -23.276  0.00  0.00    -0.300 N 
ATOM      3  C   UNL d   1      33.010  19.379 -22.534  0.00  0.00     0.084 A 
ATOM      4  C   UNL d   1      33.081  20.356 -23.456  0.00  0.00     0.021 A 
ATOM      5  C   UNL d   1      33.132  19.618 -23.845  0.00  0.00     0.064 A 
ATOM      6  C   UNL d   1      33.111  21.048 -23.888  0.00  0.00     0.002 A 
ATOM      7  C   UNL d   1      33.211  19.598 -24.666  0.00  0.00     0.018 A 
ATOM      8  C   UNL d   1      33.191  21.029 -24.713  0.00  0.00     0.000 A 
ATOM      9  C   UNL d   1      33.240  20.299 -25.097  0.00  0.00     0.002 A 
ENDROOT
BRANCH   1  10
ATOM     10  C   UNL d   1      32.939  20.772 -22.053  0.00  0.00     0.254 C 
ATOM     11  O   UNL d   1      32.852  21.569 -22.256  0.00  0.00    -0.281 OA
BRANCH  10  12
ATOM     12  C   UNL d   1      32.958  20.550 -21.259  0.00  0.00     0.318 C 
ATOM     13  O   UNL d   1      32.942  19.751 -21.063  0.00  0.00    -0.262 OA
ATOM     14  N   UNL d   1      32.994  21.128 -20.672  0.00  0.00    -0.204 NA
BRANCH  14  15
ATOM     15  C   UNL d   1      33.010  21.921 -20.878  0.00  0.00     0.104 C 
BRANCH  15  16
ATOM     16  C   UNL d   1      32.730  22.480 -20.344  0.00  0.00     0.040 C 
BRANCH  16  17
ATOM     17  C   UNL d   1      33.234  22.766 -19.748  0.00  0.00     0.083 C 
BRANCH  17  18
ATOM     18  N   UNL d   1      32.917  23.030 -19.025  0.00  0.00    -0.285 N 
ATOM     19  C   UNL d   1      32.291  23.562 -18.944  0.00  0.00     0.183 A 
ATOM     20  N   UNL d   1      32.164  23.664 -18.125  0.00  0.00    -0.222 NA
ATOM     21  C   UNL d   1      32.714  23.192 -17.709  0.00  0.00     0.120 A 
ATOM     22  C   UNL d   1      33.177  22.802 -18.278  0.00  0.00     0.102 A 
ENDBRANCH  17  18
ENDBRANCH  16  17
ENDBRANCH  15  16
ENDBRANCH  14  15
ENDBRANCH  10  12
ENDBRANCH   1  10
BRANCH   2  23
ATOM     23  C   UNL d   1      33.115  18.216 -23.421  0.00  0.00     0.142 C 
BRANCH  23  24
ATOM     24  C   UNL d   1      32.439  17.759 -23.343  0.00  0.00     0.282 C 
ATOM     25  N   UNL d   1      32.480  16.939 -23.425  0.00  0.00    -0.271 N 
ATOM     26  O   UNL d   1      31.713  18.122 -23.181  0.00  0.00    -0.265 OA
BRANCH  25  27
ATOM     27  C   UNL d   1      33.202  16.576 -23.585  0.00  0.00     0.083 C 
ATOM     28  C   UNL d   1      33.240  15.762 -23.680  0.00  0.00     0.021 C 
ENDBRANCH  25  27
BRANCH  25  29
ATOM     29  C   UNL d   1      31.795  16.482 -23.345  0.00  0.00     0.083 C 
ATOM     30  C   UNL d   1      31.851  15.660 -23.313  0.00  0.00     0.021 C 
ENDBRANCH  25  29
ENDBRANCH  23  24
ENDBRANCH   2  23
TORSDOF 10
ENDMDL
