MODEL 1
REMARK VINA RESULT:      57.5      0.000      0.000
REMARK  4 active torsions:
REMARK  status: ('A' for Active; 'I' for Inactive)
REMARK    1  A    between atoms: C_11  and  C_4 
REMARK    2  A    between atoms: N_10  and  C_5 
REMARK    3  A    between atoms: C_15  and  N_10 
REMARK    4  A    between atoms: C_16  and  C_15 
ROOT
ATOM      1  N   UNL d   1     -50.764  26.176  33.407  0.00  0.00    -0.195 N 
ATOM      2  C   UNL d   1     -51.564  25.996  33.409  0.00  0.00     0.167 A 
ATOM      3  N   UNL d   1     -50.353  25.470  33.441  0.00  0.00    -0.163 NA
ATOM      4  C   UNL d   1     -51.642  25.181  33.444  0.00  0.00     0.055 A 
ATOM      5  C   UNL d   1     -50.523  26.960  33.374  0.00  0.00     0.167 A 
ATOM      6  C   UNL d   1     -50.905  24.860  33.464  0.00  0.00     0.104 A 
ATOM      7  N   UNL d   1     -52.126  26.600  33.378  0.00  0.00    -0.227 NA
ATOM      8  C   UNL d   1     -51.086  27.571  33.342  0.00  0.00     0.058 A 
ATOM      9  C   UNL d   1     -51.878  27.394  33.344  0.00  0.00     0.086 A 
ATOM     10  C   UNL d   1     -50.737  24.050  33.501  0.00  0.00     0.023 C 
ATOM     11  C   UNL d   1     -52.443  28.014  33.312  0.00  0.00     0.021 C 
ENDROOT
BRANCH   5  12
ATOM     12  N   UNL d   1     -49.714  27.141  33.372  0.00  0.00    -0.224 NA
BRANCH  12  13
ATOM     13  C   UNL d   1     -49.471  27.924  33.409  0.00  0.00     0.120 C 
BRANCH  13  14
ATOM     14  C   UNL d   1     -48.990  28.177  34.034  0.00  0.00     0.101 A 
ATOM     15  N   UNL d   1     -48.759  27.638  34.626  0.00  0.00    -0.242 NA
ATOM     16  C   UNL d   1     -48.280  27.889  35.248  0.00  0.00     0.099 A 
ATOM     17  C   UNL d   1     -48.031  28.681  35.282  0.00  0.00     0.021 A 
ATOM     18  C   UNL d   1     -48.260  29.212  34.698  0.00  0.00     0.003 A 
ATOM     19  C   UNL d   1     -48.738  28.961  34.076  0.00  0.00     0.021 A 
ENDBRANCH  13  14
ENDBRANCH  12  13
ENDBRANCH   5  12
BRANCH   4  20
ATOM     20  C   UNL d   1     -52.312  24.687  33.461  0.00  0.00     0.004 A 
ATOM     21  C   UNL d   1     -52.232  23.883  33.627  0.00  0.00     0.001 A 
ATOM     22  C   UNL d   1     -52.893  23.391  33.645  0.00  0.00     0.011 A 
ATOM     23  C   UNL d   1     -53.640  23.710  33.494  0.00  0.00     0.058 A 
ATOM     24  C   UNL d   1     -53.721  24.520  33.327  0.00  0.00     0.011 A 
ATOM     25 CL   UNL d   1     -54.312  23.207  33.512  0.00  0.00    -0.082 Cl
ATOM     26  C   UNL d   1     -53.058  25.007  33.311  0.00  0.00     0.001 A 
ENDBRANCH   4  20
TORSDOF 4
ENDMDL
