MODEL 1
REMARK VINA RESULT:     102.5      0.000      0.000
REMARK  5 active torsions:
REMARK  status: ('A' for Active; 'I' for Inactive)
REMARK    1  A    between atoms: C_11  and  N_4 
REMARK    2  A    between atoms: C_12  and  N_10 
REMARK    3  A    between atoms: C_14  and  C_11 
REMARK    4  A    between atoms: O_26  and  C_13 
REMARK    5  A    between atoms: O_28  and  C_24 
ROOT
ATOM      1  C   UNL d   1     -50.257  27.963  33.911  0.00  0.00     0.191 A 
ATOM      2  C   UNL d   1     -49.731  27.340  34.044  0.00  0.00     0.173 A 
ATOM      3  C   UNL d   1     -48.981  28.601  34.334  0.00  0.00     0.722 A 
ATOM      4  N   UNL d   1     -50.741  26.410  33.689  0.00  0.00    -0.224 N 
ATOM      5  N   UNL d   1     -49.873  28.666  34.062  0.00  0.00    -0.042 NA
ATOM      6  N   UNL d   1     -49.031  27.669  34.275  0.00  0.00    -0.132 N 
ATOM      7  N   UNL d   1     -51.029  27.824  33.667  0.00  0.00    -0.240 N 
ATOM      8  C   UNL d   1     -51.267  27.033  33.556  0.00  0.00     0.343 A 
ATOM      9  C   UNL d   1     -49.977  26.579  33.932  0.00  0.00     0.288 A 
ATOM     10  N   UNL d   1     -48.274  28.919  34.567  0.00  0.00    -0.138 N 
ATOM     11  C   UNL d   1     -48.364  27.251  34.461  0.00  0.00     0.100 A 
ATOM     12  C   UNL d   1     -47.609  28.461  34.751  0.00  0.00     0.100 A 
ATOM     13  O   UNL d   1     -52.049  26.886  33.308  0.00  0.00    -0.245 OA
ATOM     14  O   UNL d   1     -49.450  25.955  34.065  0.00  0.00    -0.265 OA
ATOM     15  C   UNL d   1     -47.654  27.607  34.697  0.00  0.00     0.036 A 
ATOM     16  C   UNL d   1     -51.555  28.447  33.534  0.00  0.00     0.105 C 
ATOM     17  C   UNL d   1     -46.995  27.137  34.878  0.00  0.00     0.003 C 
ENDROOT
BRANCH  10  18
ATOM     18  C   UNL d   1     -48.239  29.745  34.617  0.00  0.00     0.104 A 
ATOM     19  C   UNL d   1     -47.821  30.102  35.232  0.00  0.00     0.113 A 
ATOM     20  C   UNL d   1     -47.765  30.904  35.313  0.00  0.00     0.050 A 
ATOM     21  C   UNL d   1     -48.142  31.401  34.757  0.00  0.00     0.096 A 
ATOM     22  C   UNL d   1     -48.571  31.046  34.127  0.00  0.00     0.026 A 
ATOM     23  C   UNL d   1     -48.611  30.231  34.069  0.00  0.00     0.022 A 
BRANCH  19  24
ATOM     24  O   UNL d   1     -47.444  29.624  35.788  0.00  0.00    -0.327 OA
ATOM     25  C   UNL d   1     -47.246  29.936  36.511  0.00  0.00     0.181 C 
ENDBRANCH  19  24
BRANCH  21  26
ATOM     26  O   UNL d   1     -48.101  32.235  34.816  0.00  0.00    -0.328 OA
ATOM     27  C   UNL d   1     -47.409  32.634  34.604  0.00  0.00     0.181 C 
ENDBRANCH  21  26
ENDBRANCH  10  18
BRANCH   4  28
ATOM     28  C   UNL d   1     -51.329  25.869  33.482  0.00  0.00     0.090 C 
BRANCH  28  29
ATOM     29  C   UNL d   1     -51.148  25.065  33.423  0.00  0.00     0.045 A 
ATOM     30  C   UNL d   1     -51.756  24.518  33.398  0.00  0.00     0.141 A 
ATOM     31  F   UNL d   1     -52.541  24.767  33.432  0.00  0.00    -0.204 F 
ATOM     32  C   UNL d   1     -51.579  23.717  33.340  0.00  0.00     0.030 A 
ATOM     33  C   UNL d   1     -50.796  23.465  33.306  0.00  0.00     0.002 A 
ATOM     34  C   UNL d   1     -50.188  24.025  33.331  0.00  0.00     0.000 A 
ATOM     35  C   UNL d   1     -50.366  24.826  33.390  0.00  0.00     0.004 A 
ENDBRANCH  28  29
ENDBRANCH   4  28
TORSDOF 5
ENDMDL
MODEL 2
REMARK VINA RESULT:     104.4      1.751      5.919
REMARK  5 active torsions:
REMARK  status: ('A' for Active; 'I' for Inactive)
REMARK    1  A    between atoms: C_11  and  N_4 
REMARK    2  A    between atoms: C_12  and  N_10 
REMARK    3  A    between atoms: C_14  and  C_11 
REMARK    4  A    between atoms: O_26  and  C_13 
REMARK    5  A    between atoms: O_28  and  C_24 
ROOT
ATOM      1  C   UNL d   1     -48.449  28.136  34.463  0.00  0.00     0.191 A 
ATOM      2  C   UNL d   1     -48.988  28.746  34.323  0.00  0.00     0.173 A 
ATOM      3  C   UNL d   1     -49.672  27.474  33.936  0.00  0.00     0.722 A 
ATOM      4  N   UNL d   1     -48.035  29.693  34.777  0.00  0.00    -0.224 N 
ATOM      5  N   UNL d   1     -48.796  27.427  34.260  0.00  0.00    -0.042 NA
ATOM      6  N   UNL d   1     -49.659  28.403  34.036  0.00  0.00    -0.132 N 
ATOM      7  N   UNL d   1     -47.698  28.290  34.760  0.00  0.00    -0.240 N 
ATOM      8  C   UNL d   1     -47.496  29.083  34.917  0.00  0.00     0.343 A 
ATOM      9  C   UNL d   1     -48.776  29.509  34.480  0.00  0.00     0.288 A 
ATOM     10  N   UNL d   1     -50.352  27.142  33.647  0.00  0.00    -0.138 N 
ATOM     11  C   UNL d   1     -50.329  28.807  33.825  0.00  0.00     0.100 A 
ATOM     12  C   UNL d   1     -51.021  27.585  33.441  0.00  0.00     0.100 A 
ATOM     13  O   UNL d   1     -46.736  29.246  35.219  0.00  0.00    -0.245 OA
ATOM     14  O   UNL d   1     -49.316  30.120  34.339  0.00  0.00    -0.265 OA
ATOM     15  C   UNL d   1     -51.010  28.437  33.532  0.00  0.00     0.036 A 
ATOM     16  C   UNL d   1     -47.159  27.680  34.901  0.00  0.00     0.105 C 
ATOM     17  C   UNL d   1     -51.673  28.892  33.330  0.00  0.00     0.003 C 
ENDROOT
BRANCH  10  18
ATOM     18  C   UNL d   1     -50.354  26.319  33.563  0.00  0.00     0.104 A 
ATOM     19  C   UNL d   1     -51.059  25.899  33.651  0.00  0.00     0.113 A 
ATOM     20  C   UNL d   1     -51.099  25.096  33.575  0.00  0.00     0.050 A 
ATOM     21  C   UNL d   1     -50.406  24.662  33.401  0.00  0.00     0.096 A 
ATOM     22  C   UNL d   1     -49.683  25.082  33.310  0.00  0.00     0.026 A 
ATOM     23  C   UNL d   1     -49.670  25.896  33.391  0.00  0.00     0.022 A 
BRANCH  19  24
ATOM     24  O   UNL d   1     -51.751  26.313  33.823  0.00  0.00    -0.327 OA
ATOM     25  C   UNL d   1     -52.450  26.074  33.486  0.00  0.00     0.181 C 
ENDBRANCH  19  24
BRANCH  21  26
ATOM     26  O   UNL d   1     -50.418  23.830  33.317  0.00  0.00    -0.328 OA
ATOM     27  C   UNL d   1     -50.096  23.348  33.907  0.00  0.00     0.181 C 
ENDBRANCH  21  26
ENDBRANCH  10  18
BRANCH   4  28
ATOM     28  C   UNL d   1     -47.480  30.244  35.042  0.00  0.00     0.090 C 
BRANCH  28  29
ATOM     29  C   UNL d   1     -47.469  31.006  34.721  0.00  0.00     0.045 A 
ATOM     30  C   UNL d   1     -47.513  31.652  35.221  0.00  0.00     0.141 A 
ATOM     31  F   UNL d   1     -47.568  31.544  36.036  0.00  0.00    -0.204 F 
ATOM     32  C   UNL d   1     -47.503  32.411  34.904  0.00  0.00     0.030 A 
ATOM     33  C   UNL d   1     -47.449  32.523  34.091  0.00  0.00     0.002 A 
ATOM     34  C   UNL d   1     -47.404  31.864  33.592  0.00  0.00     0.000 A 
ATOM     35  C   UNL d   1     -47.415  31.105  33.910  0.00  0.00     0.004 A 
ENDBRANCH  28  29
ENDBRANCH   4  28
TORSDOF 5
ENDMDL
