MODEL 1
REMARK VINA RESULT:      -7.8      0.000      0.000
REMARK  5 active torsions:
REMARK  status: ('A' for Active; 'I' for Inactive)
REMARK    1  A    between atoms: N_2  and  S_1 
REMARK    2  A    between atoms: C_9  and  S_1 
REMARK    3  A    between atoms: C_4  and  N_11 
REMARK    4  A    between atoms: C_8  and  C_16 
REMARK       I    between atoms: N_10  and  C_8 
REMARK    5  A    between atoms: N_11  and  N_10 
ROOT
ATOM      1  C   UNL d   1      51.665  33.917  52.850  0.00  0.00     0.104 A 
ATOM      2  C   UNL d   1      50.344  34.236  51.921  0.00  0.00     0.059 A 
ATOM      3  C   UNL d   1      51.005  33.423  52.891  0.00  0.00     0.013 A 
ATOM      4  C   UNL d   1      51.662  34.570  52.344  0.00  0.00     0.013 A 
ATOM      5  C   UNL d   1      50.998  34.726  51.880  0.00  0.00     0.006 A 
ATOM      6  C   UNL d   1      50.348  33.584  52.427  0.00  0.00     0.006 A 
ENDROOT
BRANCH   2   7
ATOM      7  C   UNL d   1      49.687  34.397  51.456  0.00  0.00     0.297 C 
ATOM      8  N   UNL d   1      49.102  34.823  51.840  0.00  0.00    -0.104 NA
ATOM      9  O   UNL d   1      49.756  34.090  50.685  0.00  0.00    -0.264 OA
BRANCH   8  10
ATOM     10  N   UNL d   1      49.211  35.046  52.621  0.00  0.00    -0.118 NA
BRANCH  10  11
ATOM     11  C   UNL d   1      48.604  35.438  53.034  0.00  0.00     0.215 A 
ATOM     12  N   UNL d   1      47.874  35.655  52.729  0.00  0.00    -0.219 NA
ATOM     13  C   UNL d   1      47.440  36.028  53.315  0.00  0.00     0.090 A 
ATOM     14  C   UNL d   1      46.688  36.356  53.330  0.00  0.00     0.018 A 
ATOM     15  C   UNL d   1      47.913  36.040  53.999  0.00  0.00     0.050 A 
ATOM     16  C   UNL d   1      46.402  36.698  54.024  0.00  0.00     0.002 A 
ATOM     17  C   UNL d   1      46.219  36.342  52.646  0.00  0.00     0.002 C 
ATOM     18  C   UNL d   1      46.871  36.709  54.699  0.00  0.00     0.001 A 
ATOM     19  C   UNL d   1      47.635  36.380  54.698  0.00  0.00     0.008 A 
ATOM     20  S   UNL d   1      48.628  35.676  53.820  0.00  0.00    -0.045 SA
ENDBRANCH  10  11
ENDBRANCH   8  10
ENDBRANCH   2   7
BRANCH   1  21
ATOM     21  S   UNL d   1      52.334  33.768  53.311  0.00  0.00     0.271 S 
ATOM     22  O   UNL d   1      52.137  32.967  53.320  0.00  0.00    -0.200 OA
ATOM     23  O   UNL d   1      52.532  34.568  53.304  0.00  0.00    -0.200 OA
BRANCH  21  24
ATOM     24  N   UNL d   1      52.999  33.610  53.772  0.00  0.00    -0.229 N 
ATOM     25  C   UNL d   1      53.116  34.037  54.459  0.00  0.00     0.092 A 
ATOM     26  C   UNL d   1      53.782  33.879  54.920  0.00  0.00     0.018 A 
ATOM     27  C   UNL d   1      53.930  34.299  55.629  0.00  0.00     0.002 C 
ATOM     28  C   UNL d   1      54.319  33.296  54.685  0.00  0.00     0.003 A 
ATOM     29  C   UNL d   1      54.190  32.872  53.989  0.00  0.00     0.018 A 
ATOM     30  C   UNL d   1      53.524  33.030  53.528  0.00  0.00     0.092 A 
ATOM     31  C   UNL d   1      54.739  32.286  53.762  0.00  0.00     0.002 C 
ENDBRANCH  21  24
ENDBRANCH   1  21
TORSDOF 5
ENDMDL
MODEL 2
REMARK VINA RESULT:      -7.4      2.010      6.194
REMARK  5 active torsions:
REMARK  status: ('A' for Active; 'I' for Inactive)
REMARK    1  A    between atoms: N_2  and  S_1 
REMARK    2  A    between atoms: C_9  and  S_1 
REMARK    3  A    between atoms: C_4  and  N_11 
REMARK    4  A    between atoms: C_8  and  C_16 
REMARK       I    between atoms: N_10  and  C_8 
REMARK    5  A    between atoms: N_11  and  N_10 
ROOT
ATOM      1  C   UNL d   1      51.165  34.276  52.926  0.00  0.00     0.104 A 
ATOM      2  C   UNL d   1      52.647  33.810  53.469  0.00  0.00     0.059 A 
ATOM      3  C   UNL d   1      51.811  34.280  52.411  0.00  0.00     0.013 A 
ATOM      4  C   UNL d   1      51.263  34.039  53.711  0.00  0.00     0.013 A 
ATOM      5  C   UNL d   1      52.008  33.806  53.979  0.00  0.00     0.006 A 
ATOM      6  C   UNL d   1      52.549  34.047  52.685  0.00  0.00     0.006 A 
ENDROOT
BRANCH   2   7
ATOM      7  C   UNL d   1      53.385  33.576  53.742  0.00  0.00     0.297 C 
ATOM      8  N   UNL d   1      53.510  32.767  53.719  0.00  0.00    -0.104 NA
ATOM      9  O   UNL d   1      53.855  34.219  53.988  0.00  0.00    -0.264 OA
BRANCH   8  10
ATOM     10  N   UNL d   1      52.919  32.274  53.438  0.00  0.00    -0.118 NA
BRANCH  10  11
ATOM     11  C   UNL d   1      52.987  31.449  53.517  0.00  0.00     0.215 A 
ATOM     12  N   UNL d   1      53.120  31.039  54.215  0.00  0.00    -0.219 NA
ATOM     13  C   UNL d   1      53.151  30.237  54.052  0.00  0.00     0.090 A 
ATOM     14  C   UNL d   1      53.267  29.576  54.524  0.00  0.00     0.018 A 
ATOM     15  C   UNL d   1      53.035  30.149  53.233  0.00  0.00     0.050 A 
ATOM     16  C   UNL d   1      53.268  28.823  54.185  0.00  0.00     0.002 A 
ATOM     17  C   UNL d   1      53.382  29.667  55.340  0.00  0.00     0.002 C 
ATOM     18  C   UNL d   1      53.153  28.739  53.375  0.00  0.00     0.001 A 
ATOM     19  C   UNL d   1      53.034  29.400  52.886  0.00  0.00     0.008 A 
ATOM     20  S   UNL d   1      52.935  30.898  52.909  0.00  0.00    -0.045 SA
ENDBRANCH  10  11
ENDBRANCH   8  10
ENDBRANCH   2   7
BRANCH   1  21
ATOM     21  S   UNL d   1      50.417  34.509  52.666  0.00  0.00     0.271 S 
ATOM     22  O   UNL d   1      50.572  35.273  52.933  0.00  0.00    -0.200 OA
ATOM     23  O   UNL d   1      50.259  33.746  52.399  0.00  0.00    -0.200 OA
BRANCH  21  24
ATOM     24  N   UNL d   1      49.671  34.749  52.410  0.00  0.00    -0.229 N 
ATOM     25  C   UNL d   1      49.407  34.506  51.675  0.00  0.00     0.092 A 
ATOM     26  C   UNL d   1      48.661  34.747  51.418  0.00  0.00     0.018 A 
ATOM     27  C   UNL d   1      48.361  34.515  50.672  0.00  0.00     0.002 C 
ATOM     28  C   UNL d   1      48.192  35.227  51.901  0.00  0.00     0.003 A 
ATOM     29  C   UNL d   1      48.469  35.466  52.640  0.00  0.00     0.018 A 
ATOM     30  C   UNL d   1      49.215  35.225  52.897  0.00  0.00     0.092 A 
ATOM     31  C   UNL d   1      47.987  35.951  53.119  0.00  0.00     0.002 C 
ENDBRANCH  21  24
ENDBRANCH   1  21
TORSDOF 5
ENDMDL
MODEL 3
REMARK VINA RESULT:      -7.1      2.042      3.053
REMARK  5 active torsions:
REMARK  status: ('A' for Active; 'I' for Inactive)
REMARK    1  A    between atoms: N_2  and  S_1 
REMARK    2  A    between atoms: C_9  and  S_1 
REMARK    3  A    between atoms: C_4  and  N_11 
REMARK    4  A    between atoms: C_8  and  C_16 
REMARK       I    between atoms: N_10  and  C_8 
REMARK    5  A    between atoms: N_11  and  N_10 
ROOT
ATOM      1  C   UNL d   1      52.733  32.393  53.444  0.00  0.00     0.104 A 
ATOM      2  C   UNL d   1      52.499  34.019  53.355  0.00  0.00     0.059 A 
ATOM      3  C   UNL d   1      52.846  32.785  52.725  0.00  0.00     0.013 A 
ATOM      4  C   UNL d   1      52.504  32.815  54.115  0.00  0.00     0.013 A 
ATOM      5  C   UNL d   1      52.388  33.630  54.066  0.00  0.00     0.006 A 
ATOM      6  C   UNL d   1      52.728  33.596  52.685  0.00  0.00     0.006 A 
ENDROOT
BRANCH   2   7
ATOM      7  C   UNL d   1      52.381  34.830  53.314  0.00  0.00     0.297 C 
ATOM      8  N   UNL d   1      51.624  35.048  53.089  0.00  0.00    -0.104 NA
ATOM      9  O   UNL d   1      53.063  35.264  53.513  0.00  0.00    -0.264 OA
BRANCH   8  10
ATOM     10  N   UNL d   1      51.067  34.468  52.928  0.00  0.00    -0.118 NA
BRANCH  10  11
ATOM     11  C   UNL d   1      50.303  34.678  52.674  0.00  0.00     0.215 A 
ATOM     12  N   UNL d   1      49.757  35.118  53.099  0.00  0.00    -0.219 NA
ATOM     13  C   UNL d   1      49.075  35.200  52.652  0.00  0.00     0.090 A 
ATOM     14  C   UNL d   1      48.360  35.577  52.789  0.00  0.00     0.018 A 
ATOM     15  C   UNL d   1      49.204  34.800  51.934  0.00  0.00     0.050 A 
ATOM     16  C   UNL d   1      47.767  35.559  52.215  0.00  0.00     0.002 A 
ATOM     17  C   UNL d   1      48.234  35.974  53.506  0.00  0.00     0.002 C 
ATOM     18  C   UNL d   1      47.897  35.163  51.506  0.00  0.00     0.001 A 
ATOM     19  C   UNL d   1      48.617  34.777  51.353  0.00  0.00     0.008 A 
ATOM     20  S   UNL d   1      49.961  34.481  51.953  0.00  0.00    -0.045 SA
ENDBRANCH  10  11
ENDBRANCH   8  10
ENDBRANCH   2   7
BRANCH   1  21
ATOM     21  S   UNL d   1      52.848  31.577  53.501  0.00  0.00     0.271 S 
ATOM     22  O   UNL d   1      52.061  31.461  53.285  0.00  0.00    -0.200 OA
ATOM     23  O   UNL d   1      53.635  31.690  53.717  0.00  0.00    -0.200 OA
BRANCH  21  24
ATOM     24  N   UNL d   1      52.953  30.760  53.556  0.00  0.00    -0.229 N 
ATOM     25  C   UNL d   1      53.197  30.439  54.267  0.00  0.00     0.092 A 
ATOM     26  C   UNL d   1      53.303  29.623  54.322  0.00  0.00     0.018 A 
ATOM     27  C   UNL d   1      53.551  29.263  55.036  0.00  0.00     0.002 C 
ATOM     28  C   UNL d   1      53.162  29.142  53.664  0.00  0.00     0.003 A 
ATOM     29  C   UNL d   1      52.916  29.479  52.952  0.00  0.00     0.018 A 
ATOM     30  C   UNL d   1      52.811  30.295  52.897  0.00  0.00     0.092 A 
ATOM     31  C   UNL d   1      52.777  28.983  52.294  0.00  0.00     0.002 C 
ENDBRANCH  21  24
ENDBRANCH   1  21
TORSDOF 5
ENDMDL
MODEL 4
REMARK VINA RESULT:      -5.5      1.157      5.792
REMARK  5 active torsions:
REMARK  status: ('A' for Active; 'I' for Inactive)
REMARK    1  A    between atoms: N_2  and  S_1 
REMARK    2  A    between atoms: C_9  and  S_1 
REMARK    3  A    between atoms: C_4  and  N_11 
REMARK    4  A    between atoms: C_8  and  C_16 
REMARK       I    between atoms: N_10  and  C_8 
REMARK    5  A    between atoms: N_11  and  N_10 
ROOT
ATOM      1  C   UNL d   1      50.222  34.230  52.760  0.00  0.00     0.104 A 
ATOM      2  C   UNL d   1      51.436  33.128  52.620  0.00  0.00     0.059 A 
ATOM      3  C   UNL d   1      50.834  34.360  52.222  0.00  0.00     0.013 A 
ATOM      4  C   UNL d   1      50.218  33.549  53.227  0.00  0.00     0.013 A 
ATOM      5  C   UNL d   1      50.829  32.999  53.153  0.00  0.00     0.006 A 
ATOM      6  C   UNL d   1      51.438  33.808  52.154  0.00  0.00     0.006 A 
ENDROOT
BRANCH   2   7
ATOM      7  C   UNL d   1      52.039  32.576  52.552  0.00  0.00     0.297 C 
ATOM      8  N   UNL d   1      52.680  32.719  53.042  0.00  0.00    -0.104 NA
ATOM      9  O   UNL d   1      51.870  31.981  51.994  0.00  0.00    -0.264 OA
BRANCH   8  10
ATOM     10  N   UNL d   1      52.672  33.370  53.539  0.00  0.00    -0.118 NA
BRANCH  10  11
ATOM     11  C   UNL d   1      53.312  33.516  54.050  0.00  0.00     0.215 A 
ATOM     12  N   UNL d   1      54.103  33.544  53.838  0.00  0.00    -0.219 NA
ATOM     13  C   UNL d   1      54.553  33.702  54.505  0.00  0.00     0.090 A 
ATOM     14  C   UNL d   1      55.359  33.791  54.626  0.00  0.00     0.018 A 
ATOM     15  C   UNL d   1      54.026  33.773  55.144  0.00  0.00     0.050 A 
ATOM     16  C   UNL d   1      55.647  33.952  55.382  0.00  0.00     0.002 A 
ATOM     17  C   UNL d   1      55.882  33.720  53.986  0.00  0.00     0.002 C 
ATOM     18  C   UNL d   1      55.124  34.022  56.013  0.00  0.00     0.001 A 
ATOM     19  C   UNL d   1      54.304  33.934  55.904  0.00  0.00     0.008 A 
ATOM     20  S   UNL d   1      53.263  33.658  54.859  0.00  0.00    -0.045 SA
ENDBRANCH  10  11
ENDBRANCH   8  10
ENDBRANCH   2   7
BRANCH   1  21
ATOM     21  S   UNL d   1      49.607  34.776  52.840  0.00  0.00     0.271 S 
ATOM     22  O   UNL d   1      49.150  34.322  52.325  0.00  0.00    -0.200 OA
ATOM     23  O   UNL d   1      50.061  35.231  53.355  0.00  0.00    -0.200 OA
BRANCH  21  24
ATOM     24  N   UNL d   1      48.988  35.316  52.914  0.00  0.00    -0.229 N 
ATOM     25  C   UNL d   1      48.886  35.707  53.625  0.00  0.00     0.092 A 
ATOM     26  C   UNL d   1      48.267  36.247  53.698  0.00  0.00     0.018 A 
ATOM     27  C   UNL d   1      48.135  36.664  54.412  0.00  0.00     0.002 C 
ATOM     28  C   UNL d   1      47.760  36.385  53.060  0.00  0.00     0.003 A 
ATOM     29  C   UNL d   1      47.873  35.984  52.348  0.00  0.00     0.018 A 
ATOM     30  C   UNL d   1      48.493  35.444  52.274  0.00  0.00     0.092 A 
ATOM     31  C   UNL d   1      47.355  36.132  51.710  0.00  0.00     0.002 C 
ENDBRANCH  21  24
ENDBRANCH   1  21
TORSDOF 5
ENDMDL
MODEL 5
REMARK VINA RESULT:      -5.2     10.534     11.694
REMARK  5 active torsions:
REMARK  status: ('A' for Active; 'I' for Inactive)
REMARK    1  A    between atoms: N_2  and  S_1 
REMARK    2  A    between atoms: C_9  and  S_1 
REMARK    3  A    between atoms: C_4  and  N_11 
REMARK    4  A    between atoms: C_8  and  C_16 
REMARK       I    between atoms: N_10  and  C_8 
REMARK    5  A    between atoms: N_11  and  N_10 
ROOT
ATOM      1  C   UNL d   1      44.924  27.192  57.829  0.00  0.00     0.104 A 
ATOM      2  C   UNL d   1      44.983  25.558  58.012  0.00  0.00     0.059 A 
ATOM      3  C   UNL d   1      44.324  26.803  58.243  0.00  0.00     0.013 A 
ATOM      4  C   UNL d   1      45.551  26.762  57.508  0.00  0.00     0.013 A 
ATOM      5  C   UNL d   1      45.577  25.943  57.602  0.00  0.00     0.006 A 
ATOM      6  C   UNL d   1      44.357  25.988  58.332  0.00  0.00     0.006 A 
ENDROOT
BRANCH   2   7
ATOM      7  C   UNL d   1      45.016  24.743  58.102  0.00  0.00     0.297 C 
ATOM      8  N   UNL d   1      44.900  24.324  57.407  0.00  0.00    -0.104 NA
ATOM      9  O   UNL d   1      45.162  24.512  58.889  0.00  0.00    -0.264 OA
BRANCH   8  10
ATOM     10  N   UNL d   1      44.767  24.731  56.708  0.00  0.00    -0.118 NA
BRANCH  10  11
ATOM     11  C   UNL d   1      44.667  24.316  55.994  0.00  0.00     0.215 A 
ATOM     12  N   UNL d   1      44.565  24.649  55.251  0.00  0.00    -0.219 NA
ATOM     13  C   UNL d   1      44.487  24.050  54.698  0.00  0.00     0.090 A 
ATOM     14  C   UNL d   1      44.375  24.051  53.886  0.00  0.00     0.018 A 
ATOM     15  C   UNL d   1      44.541  23.329  55.109  0.00  0.00     0.050 A 
ATOM     16  C   UNL d   1      44.316  23.337  53.476  0.00  0.00     0.002 A 
ATOM     17  C   UNL d   1      44.321  24.772  53.478  0.00  0.00     0.002 C 
ATOM     18  C   UNL d   1      44.370  22.625  53.885  0.00  0.00     0.001 A 
ATOM     19  C   UNL d   1      44.483  22.609  54.708  0.00  0.00     0.008 A 
ATOM     20  S   UNL d   1      44.652  23.498  55.906  0.00  0.00    -0.045 SA
ENDBRANCH  10  11
ENDBRANCH   8  10
ENDBRANCH   2   7
BRANCH   1  21
ATOM     21  S   UNL d   1      44.905  28.012  57.730  0.00  0.00     0.271 S 
ATOM     22  O   UNL d   1      44.329  28.060  58.318  0.00  0.00    -0.200 OA
ATOM     23  O   UNL d   1      45.481  27.967  57.143  0.00  0.00    -0.200 OA
BRANCH  21  24
ATOM     24  N   UNL d   1      44.880  28.831  57.638  0.00  0.00    -0.229 N 
ATOM     25  C   UNL d   1      45.022  29.307  58.288  0.00  0.00     0.092 A 
ATOM     26  C   UNL d   1      44.997  30.126  58.196  0.00  0.00     0.018 A 
ATOM     27  C   UNL d   1      45.138  30.641  58.841  0.00  0.00     0.002 C 
ATOM     28  C   UNL d   1      44.830  30.455  57.456  0.00  0.00     0.003 A 
ATOM     29  C   UNL d   1      44.688  29.964  56.808  0.00  0.00     0.018 A 
ATOM     30  C   UNL d   1      44.713  29.145  56.900  0.00  0.00     0.092 A 
ATOM     31  C   UNL d   1      44.520  30.308  56.066  0.00  0.00     0.002 C 
ENDBRANCH  21  24
ENDBRANCH   1  21
TORSDOF 5
ENDMDL
