MODEL 1
REMARK VINA RESULT:      14.9      0.000      0.000
REMARK  7 active torsions:
REMARK  status: ('A' for Active; 'I' for Inactive)
REMARK       I    between atoms: C_5  and  N_1 
REMARK    1  A    between atoms: C_11  and  C_3 
REMARK    2  A    between atoms: C_12  and  C_5 
REMARK    3  A    between atoms: N_7  and  C_12 
REMARK    4  A    between atoms: C_13  and  C_8 
REMARK    5  A    between atoms: C_29  and  N_10 
REMARK    6  A    between atoms: O_28  and  C_16 
REMARK    7  A    between atoms: O_30  and  C_23 
ROOT
ATOM      1  N   UNL d   1     -41.519-121.857 -51.702  0.00  0.00    -0.193 N 
ATOM      2  N   UNL d   1     -41.581-122.005 -50.902  0.00  0.00    -0.162 NA
ATOM      3  C   UNL d   1     -41.813-122.786 -50.790  0.00  0.00     0.109 A 
ATOM      4  C   UNL d   1     -41.302-121.145 -52.057  0.00  0.00     0.298 C 
ATOM      5  C   UNL d   1     -41.713-122.550 -52.107  0.00  0.00     0.088 A 
ATOM      6  C   UNL d   1     -41.894-123.124 -51.538  0.00  0.00     0.041 A 
ATOM      7  O   UNL d   1     -41.268-121.094 -52.873  0.00  0.00    -0.264 OA
ENDROOT
BRANCH   4   8
ATOM      8  C   UNL d   1     -41.124-120.501 -51.594  0.00  0.00     0.146 C 
BRANCH   8   9
ATOM      9  N   UNL d   1     -41.124-119.749 -51.924  0.00  0.00    -0.262 N 
ATOM     10  C   UNL d   1     -41.125-119.087 -51.441  0.00  0.00     0.322 A 
ATOM     11  C   UNL d   1     -41.126-118.332 -51.772  0.00  0.00     0.322 A 
ATOM     12  O   UNL d   1     -41.126-119.177 -50.620  0.00  0.00    -0.261 OA
ATOM     13  O   UNL d   1     -41.126-117.666 -51.283  0.00  0.00    -0.261 OA
ATOM     14  N   UNL d   1     -41.125-118.238 -52.587  0.00  0.00    -0.267 N 
ATOM     15  C   UNL d   1     -41.124-118.903 -53.074  0.00  0.00     0.102 A 
ATOM     16  C   UNL d   1     -41.124-119.658 -52.743  0.00  0.00     0.102 A 
BRANCH  14  17
ATOM     17  C   UNL d   1     -41.125-117.483 -52.918  0.00  0.00     0.083 C 
ATOM     18  C   UNL d   1     -41.197-117.392 -53.737  0.00  0.00     0.021 C 
ENDBRANCH  14  17
ENDBRANCH   8   9
ENDBRANCH   4   8
BRANCH   5  19
ATOM     19  C   UNL d   1     -41.726-122.659 -52.914  0.00  0.00     0.020 A 
ATOM     20  C   UNL d   1     -42.337-122.344 -53.360  0.00  0.00     0.028 A 
ATOM     21  C   UNL d   1     -42.344-122.459 -54.181  0.00  0.00     0.116 A 
ATOM     22  C   UNL d   1     -41.745-122.882 -54.542  0.00  0.00     0.116 A 
ATOM     23  C   UNL d   1     -41.131-123.197 -54.088  0.00  0.00     0.026 A 
ATOM     24  C   UNL d   1     -41.125-123.082 -53.270  0.00  0.00     0.004 A 
BRANCH  21  25
ATOM     25  O   UNL d   1     -42.955-122.144 -54.625  0.00  0.00    -0.326 OA
ATOM     26  C   UNL d   1     -42.812-121.560 -55.177  0.00  0.00     0.181 C 
ENDBRANCH  21  25
BRANCH  22  27
ATOM     27  O   UNL d   1     -41.752-122.993 -55.346  0.00  0.00    -0.326 OA
ATOM     28  C   UNL d   1     -41.191-123.471 -55.700  0.00  0.00     0.181 C 
ENDBRANCH  22  27
ENDBRANCH   5  19
BRANCH   3  29
ATOM     29  C   UNL d   1     -41.940-123.159 -50.067  0.00  0.00     0.049 A 
ATOM     30  S   UNL d   1     -41.390-123.277 -49.481  0.00  0.00    -0.085 SA
ATOM     31  C   UNL d   1     -41.744-123.670 -48.852  0.00  0.00     0.035 A 
ATOM     32  C   UNL d   1     -42.537-123.797 -49.062  0.00  0.00     0.007 A 
ATOM     33  C   UNL d   1     -42.662-123.479 -49.818  0.00  0.00     0.009 A 
ENDBRANCH   3  29
TORSDOF 7
ENDMDL
