MODEL 1
REMARK VINA RESULT:       7.3      0.000      0.000
REMARK  4 active torsions:
REMARK  status: ('A' for Active; 'I' for Inactive)
REMARK    1  A    between atoms: C_4  and  C_1 
REMARK       I    between atoms: N_6  and  C_4 
REMARK    2  A    between atoms: C_9  and  N_6 
REMARK    3  A    between atoms: C_12  and  N_6 
REMARK    4  A    between atoms: C_17  and  C_12 
ROOT
ATOM      1  C   UNL d   1     -41.906-122.824 -50.117  0.00  0.00     0.272 C 
ATOM      2  N   UNL d   1     -42.304-122.346 -50.656  0.00  0.00    -0.258 N 
ATOM      3  O   UNL d   1     -41.124-123.027 -50.243  0.00  0.00    -0.266 OA
ENDROOT
BRANCH   2   4
ATOM      4  C   UNL d   1     -43.105-122.135 -50.533  0.00  0.00     0.150 A 
ATOM      5  N   UNL d   1     -43.700-122.689 -50.719  0.00  0.00    -0.227 NA
ATOM      6  C   UNL d   1     -44.497-122.477 -50.596  0.00  0.00     0.101 A 
ATOM      7  C   UNL d   1     -44.688-121.732 -50.296  0.00  0.00     0.021 A 
ATOM      8  C   UNL d   1     -44.090-121.186 -50.114  0.00  0.00     0.005 A 
ATOM      9  C   UNL d   1     -43.299-121.387 -50.233  0.00  0.00     0.037 A 
ENDBRANCH   2   4
BRANCH   2  10
ATOM     10  C   UNL d   1     -41.914-122.064 -51.337  0.00  0.00     0.084 C 
BRANCH  10  11
ATOM     11  C   UNL d   1     -41.828-122.547 -51.997  0.00  0.00     0.018 A 
ATOM     12  C   UNL d   1     -42.309-122.433 -52.658  0.00  0.00     0.002 A 
ATOM     13  C   UNL d   1     -42.221-122.918 -53.316  0.00  0.00     0.000 A 
ATOM     14  C   UNL d   1     -41.656-123.514 -53.319  0.00  0.00     0.000 A 
ATOM     15  C   UNL d   1     -41.168-123.629 -52.649  0.00  0.00     0.000 A 
ATOM     16  C   UNL d   1     -41.263-123.141 -51.997  0.00  0.00     0.002 A 
ENDBRANCH  10  11
ENDBRANCH   2  10
BRANCH   1  17
ATOM     17  C   UNL d   1     -42.308-123.097 -49.445  0.00  0.00     0.132 A 
ATOM     18  C   UNL d   1     -42.009-122.917 -48.695  0.00  0.00     0.272 A 
ATOM     19  N   UNL d   1     -42.402-123.184 -48.013  0.00  0.00    -0.265 N 
ATOM     20  O   UNL d   1     -41.319-122.473 -48.614  0.00  0.00    -0.266 OA
ATOM     21  C   UNL d   1     -42.244-123.096 -47.215  0.00  0.00     0.123 A 
ATOM     22  C   UNL d   1     -43.093-123.629 -48.094  0.00  0.00     0.181 A 
ATOM     23  C   UNL d   1     -42.830-123.483 -46.792  0.00  0.00     0.043 A 
ATOM     24  S   UNL d   1     -43.363-123.817 -47.337  0.00  0.00    -0.049 SA
ATOM     25  N   UNL d   1     -43.391-123.808 -48.840  0.00  0.00    -0.220 NA
ATOM     26  C   UNL d   1     -42.999-123.542 -49.518  0.00  0.00     0.111 A 
ENDBRANCH   1  17
TORSDOF 4
ENDMDL
