MODEL 1
REMARK VINA RESULT:      75.8      0.000      0.000
REMARK  5 active torsions:
REMARK  status: ('A' for Active; 'I' for Inactive)
REMARK    1  A    between atoms: C_2  and  C_1 
REMARK    2  A    between atoms: N_13  and  C_7 
REMARK    3  A    between atoms: C_12  and  C_21 
REMARK    4  A    between atoms: C_21  and  N_13 
REMARK    5  A    between atoms: O_24  and  C_22 
ROOT
ATOM      1  C   UNL d   1      60.220  48.647  50.699  0.00  0.00     0.089 A 
ATOM      2  C   UNL d   1      60.200  48.797  51.508  0.00  0.00     0.302 A 
ATOM      3  C   UNL d   1      59.551  48.799  50.233  0.00  0.00     0.009 A 
ATOM      4  O   UNL d   1      59.511  49.100  51.854  0.00  0.00    -0.273 OA
ATOM      5  C   UNL d   1      58.867  49.101  50.581  0.00  0.00     0.025 A 
ATOM      6  C   UNL d   1      58.846  49.251  51.390  0.00  0.00     0.103 A 
ATOM      7  O   UNL d   1      60.866  48.647  51.985  0.00  0.00    -0.259 OA
ATOM      8  C   UNL d   1      58.207  49.250  50.115  0.00  0.00     0.026 A 
ATOM      9  C   UNL d   1      58.166  49.552  51.736  0.00  0.00     0.027 A 
ATOM     10  C   UNL d   1      57.520  49.554  50.471  0.00  0.00     0.094 A 
ATOM     11  C   UNL d   1      57.500  49.703  51.272  0.00  0.00     0.026 A 
ENDROOT
BRANCH   1  12
ATOM     12  C   UNL d   1      60.907  48.344  50.352  0.00  0.00     0.140 A 
ATOM     13  S   UNL d   1      61.120  47.549  50.246  0.00  0.00    -0.026 SA
ATOM     14  C   UNL d   1      61.855  47.536  49.873  0.00  0.00     0.216 A 
ATOM     15  N   UNL d   1      62.089  48.317  49.752  0.00  0.00    -0.121 NA
ATOM     16  N   UNL d   1      61.504  48.811  50.047  0.00  0.00    -0.139 NA
BRANCH  14  17
ATOM     17  N   UNL d   1      62.285  46.864  49.656  0.00  0.00    -0.216 NA
BRANCH  17  18
ATOM     18  C   UNL d   1      62.129  46.493  48.935  0.00  0.00     0.126 C 
BRANCH  18  19
ATOM     19  C   UNL d   1      62.084  45.665  48.895  0.00  0.00     0.119 A 
ATOM     20  O   UNL d   1      61.449  45.139  48.865  0.00  0.00    -0.304 OA
ATOM     21  C   UNL d   1      61.747  44.378  48.830  0.00  0.00     0.123 A 
ATOM     22  C   UNL d   1      62.558  44.422  48.838  0.00  0.00     0.029 A 
ATOM     23  C   UNL d   1      62.778  45.222  48.878  0.00  0.00     0.028 A 
ENDBRANCH  18  19
ENDBRANCH  17  18
ENDBRANCH  14  17
ENDBRANCH   1  12
BRANCH  10  24
ATOM     24  O   UNL d   1      56.861  49.702  49.997  0.00  0.00    -0.328 OA
ATOM     25  C   UNL d   1      56.110  49.435  50.221  0.00  0.00     0.181 C 
ENDBRANCH  10  24
TORSDOF 5
ENDMDL
