MODEL 1
REMARK VINA RESULT:      51.0      0.000      0.000
REMARK  3 active torsions:
REMARK  status: ('A' for Active; 'I' for Inactive)
REMARK    1  A    between atoms: C_8  and  N_2 
REMARK    2  A    between atoms: C_14  and  C_8 
REMARK    3  A    between atoms: N_13  and  C_14 
ROOT
ATOM      1  C   UNL d   1      14.388  14.380  -2.197  0.00  0.00     0.166 A 
ATOM      2  N   UNL d   1      14.101  13.640  -2.503  0.00  0.00    -0.288 N 
ATOM      3  C   UNL d   1      14.778  14.279  -1.448  0.00  0.00     0.117 A 
ATOM      4  C   UNL d   1      14.727  13.469  -1.297  0.00  0.00     0.037 A 
ATOM      5  C   UNL d   1      14.306  13.081  -1.957  0.00  0.00     0.067 A 
ATOM      6  N   UNL d   1      14.345  15.120  -2.500  0.00  0.00    -0.225 NA
ATOM      7  N   UNL d   1      15.120  14.917  -1.011  0.00  0.00    -0.241 NA
ATOM      8  C   UNL d   1      14.693  15.765  -2.053  0.00  0.00     0.101 A 
ATOM      9  C   UNL d   1      15.081  15.666  -1.309  0.00  0.00     0.099 A 
ATOM     10  C   UNL d   1      14.175  12.259  -1.949  0.00  0.00     0.018 A 
ATOM     11  C   UNL d   1      15.010  13.046  -0.649  0.00  0.00     0.003 A 
ATOM     12  C   UNL d   1      14.874  12.227  -0.652  0.00  0.00     0.000 A 
ATOM     13  C   UNL d   1      14.458  11.835  -1.301  0.00  0.00     0.002 A 
ATOM     14  C   UNL d   1      14.654  16.519  -2.353  0.00  0.00     0.021 A 
ATOM     15  C   UNL d   1      15.421  16.308  -0.875  0.00  0.00     0.021 A 
ATOM     16  C   UNL d   1      15.147  11.779  -0.016  0.00  0.00     0.000 C 
ATOM     17  C   UNL d   1      14.995  17.157  -1.915  0.00  0.00     0.002 A 
ATOM     18  C   UNL d   1      15.383  17.049  -1.168  0.00  0.00     0.002 A 
ENDROOT
BRANCH   2  19
ATOM     19  C   UNL d   1      13.704  13.477  -3.185  0.00  0.00     0.101 C 
BRANCH  19  20
ATOM     20  C   UNL d   1      13.249  12.810  -3.231  0.00  0.00     0.100 C 
BRANCH  20  21
ATOM     21  N   UNL d   1      13.168  12.673  -4.012  0.00  0.00    -0.298 N 
ATOM     22  C   UNL d   1      13.201  13.272  -4.527  0.00  0.00     0.107 A 
ATOM     23  C   UNL d   1      13.120  13.139  -5.310  0.00  0.00     0.142 A 
ATOM     24  O   UNL d   1      13.004  12.384  -5.574  0.00  0.00    -0.300 OA
ATOM     25  C   UNL d   1      12.971  11.781  -5.055  0.00  0.00     0.142 A 
ATOM     26  C   UNL d   1      13.052  11.922  -4.278  0.00  0.00     0.107 A 
ENDBRANCH  20  21
ENDBRANCH  19  20
ENDBRANCH   2  19
TORSDOF 3
ENDMDL
