MODEL 1
REMARK VINA RESULT:      -6.7      0.000      0.000
REMARK  4 active torsions:
REMARK  status: ('A' for Active; 'I' for Inactive)
REMARK    1  A    between atoms: N_7  and  C_1 
REMARK    2  A    between atoms: C_11  and  C_2 
REMARK    3  A    between atoms: N_6  and  C_12 
REMARK       I    between atoms: C_8  and  N_7 
REMARK    4  A    between atoms: C_14  and  C_8 
REMARK       I    between atoms: N_26  and  C_11 
ROOT
ATOM      1  N   UNL d   1     -48.103  12.999  22.441  0.00  0.00    -0.201 NA
ATOM      2  C   UNL d   1     -47.410  13.338  23.091  0.00  0.00     0.280 C 
ATOM      3  O   UNL d   1     -47.427  13.719  23.697  0.00  0.00    -0.265 OA
ENDROOT
BRANCH   1   4
ATOM      4  C   UNL d   1     -48.807  13.219  22.683  0.00  0.00     0.119 A 
ATOM      5  C   UNL d   1     -49.548  12.980  22.908  0.00  0.00     0.082 A 
ATOM      6  C   UNL d   1     -49.990  13.650  23.094  0.00  0.00     0.013 A 
ATOM      7  C   UNL d   1     -50.766  13.747  23.351  0.00  0.00     0.001 A 
ATOM      8  C   UNL d   1     -49.502  14.310  22.977  0.00  0.00     0.031 A 
ATOM      9  C   UNL d   1     -51.063  14.507  23.495  0.00  0.00     0.000 A 
ATOM     10  C   UNL d   1     -50.573  15.161  23.377  0.00  0.00     0.001 A 
ATOM     11  C   UNL d   1     -49.801  15.065  23.121  0.00  0.00     0.006 A 
ATOM     12  C   UNL d   1     -50.862  15.922  23.519  0.00  0.00     0.000 C 
ATOM     13  S   UNL d   1     -48.772  14.044  22.723  0.00  0.00    -0.068 SA
BRANCH   5  14
ATOM     14  C   UNL d   1     -49.807  12.197  22.944  0.00  0.00     0.281 C 
ATOM     15  O   UNL d   1     -50.132  11.834  22.278  0.00  0.00    -0.265 OA
ATOM     16  N   UNL d   1     -49.741  11.775  23.651  0.00  0.00    -0.205 NA
ATOM     17  C   UNL d   1     -49.998  10.993  23.694  0.00  0.00     0.123 C 
ENDBRANCH   5  14
ENDBRANCH   1   4
BRANCH   2  18
ATOM     18  C   UNL d   1     -46.644  13.126  22.872  0.00  0.00     0.058 A 
ATOM     19  C   UNL d   1     -46.388  12.350  22.960  0.00  0.00     0.006 A 
ATOM     20  C   UNL d   1     -45.628  12.141  22.743  0.00  0.00     0.018 A 
ATOM     21  C   UNL d   1     -45.108  12.690  22.436  0.00  0.00     0.070 A 
ATOM     22  C   UNL d   1     -45.363  13.483  22.344  0.00  0.00     0.018 A 
ATOM     23  C   UNL d   1     -46.119  13.703  22.557  0.00  0.00     0.006 A 
BRANCH  21  24
ATOM     24  N   UNL d   1     -44.343  12.475  22.219  0.00  0.00    -0.242 N 
ATOM     25  C   UNL d   1     -43.882  12.888  21.666  0.00  0.00     0.267 A 
ATOM     26  C   UNL d   1     -43.147  12.503  21.595  0.00  0.00     0.066 A 
ATOM     27  O   UNL d   1     -44.117  13.585  21.242  0.00  0.00    -0.267 OA
ATOM     28  C   UNL d   1     -43.166  11.859  22.104  0.00  0.00     0.066 A 
ATOM     29  C   UNL d   1     -43.888  11.839  22.484  0.00  0.00     0.267 A 
ATOM     30  O   UNL d   1     -44.129  11.276  23.043  0.00  0.00    -0.267 OA
ENDBRANCH  21  24
ENDBRANCH   2  18
TORSDOF 4
ENDMDL
MODEL 2
REMARK VINA RESULT:      -6.1      1.463      5.505
REMARK  4 active torsions:
REMARK  status: ('A' for Active; 'I' for Inactive)
REMARK    1  A    between atoms: N_7  and  C_1 
REMARK    2  A    between atoms: C_11  and  C_2 
REMARK    3  A    between atoms: N_6  and  C_12 
REMARK       I    between atoms: C_8  and  N_7 
REMARK    4  A    between atoms: C_14  and  C_8 
REMARK       I    between atoms: N_26  and  C_11 
ROOT
ATOM      1  N   UNL d   1     -46.480  12.740  22.366  0.00  0.00    -0.201 NA
ATOM      2  C   UNL d   1     -46.574  13.626  22.838  0.00  0.00     0.280 C 
ATOM      3  O   UNL d   1     -46.119  14.099  23.126  0.00  0.00    -0.265 OA
ENDROOT
BRANCH   1   4
ATOM      4  C   UNL d   1     -45.727  12.556  22.321  0.00  0.00     0.119 A 
ATOM      5  C   UNL d   1     -45.136  12.066  22.582  0.00  0.00     0.082 A 
ATOM      6  C   UNL d   1     -44.436  12.284  22.206  0.00  0.00     0.013 A 
ATOM      7  C   UNL d   1     -43.669  11.989  22.252  0.00  0.00     0.001 A 
ATOM      8  C   UNL d   1     -44.611  12.921  21.705  0.00  0.00     0.031 A 
ATOM      9  C   UNL d   1     -43.065  12.329  21.796  0.00  0.00     0.000 A 
ATOM     10  C   UNL d   1     -43.245  12.964  21.299  0.00  0.00     0.001 A 
ATOM     11  C   UNL d   1     -44.008  13.258  21.253  0.00  0.00     0.006 A 
ATOM     12  C   UNL d   1     -42.649  13.308  20.842  0.00  0.00     0.000 C 
ATOM     13  S   UNL d   1     -45.407  13.089  21.776  0.00  0.00    -0.068 SA
BRANCH   5  14
ATOM     14  C   UNL d   1     -45.228  11.457  23.131  0.00  0.00     0.281 C 
ATOM     15  O   UNL d   1     -44.645  11.312  23.696  0.00  0.00    -0.265 OA
ATOM     16  N   UNL d   1     -45.908  10.989  23.113  0.00  0.00    -0.205 NA
ATOM     17  C   UNL d   1     -46.007  10.377  23.658  0.00  0.00     0.123 C 
ENDBRANCH   5  14
ENDBRANCH   1   4
BRANCH   2  18
ATOM     18  C   UNL d   1     -47.361  13.862  22.908  0.00  0.00     0.058 A 
ATOM     19  C   UNL d   1     -47.858  13.493  23.449  0.00  0.00     0.006 A 
ATOM     20  C   UNL d   1     -48.637  13.728  23.519  0.00  0.00     0.018 A 
ATOM     21  C   UNL d   1     -48.941  14.329  23.058  0.00  0.00     0.070 A 
ATOM     22  C   UNL d   1     -48.441  14.710  22.505  0.00  0.00     0.018 A 
ATOM     23  C   UNL d   1     -47.661  14.484  22.426  0.00  0.00     0.006 A 
BRANCH  21  24
ATOM     24  N   UNL d   1     -49.728  14.562  23.131  0.00  0.00    -0.242 N 
ATOM     25  C   UNL d   1     -49.970  15.299  23.427  0.00  0.00     0.267 A 
ATOM     26  C   UNL d   1     -50.802  15.329  23.415  0.00  0.00     0.066 A 
ATOM     27  O   UNL d   1     -49.459  15.920  23.698  0.00  0.00    -0.267 OA
ATOM     28  C   UNL d   1     -51.061  14.610  23.113  0.00  0.00     0.066 A 
ATOM     29  C   UNL d   1     -50.414  14.144  22.939  0.00  0.00     0.267 A 
ATOM     30  O   UNL d   1     -50.436  13.378  22.624  0.00  0.00    -0.267 OA
ENDBRANCH  21  24
ENDBRANCH   2  18
TORSDOF 4
ENDMDL
MODEL 3
REMARK VINA RESULT:      -5.8      1.172      2.120
REMARK  4 active torsions:
REMARK  status: ('A' for Active; 'I' for Inactive)
REMARK    1  A    between atoms: N_7  and  C_1 
REMARK    2  A    between atoms: C_11  and  C_2 
REMARK    3  A    between atoms: N_6  and  C_12 
REMARK       I    between atoms: C_8  and  N_7 
REMARK    4  A    between atoms: C_14  and  C_8 
REMARK       I    between atoms: N_26  and  C_11 
ROOT
ATOM      1  N   UNL d   1     -47.692  13.261  22.051  0.00  0.00    -0.201 NA
ATOM      2  C   UNL d   1     -47.059  13.078  22.815  0.00  0.00     0.280 C 
ATOM      3  O   UNL d   1     -47.131  12.974  23.520  0.00  0.00    -0.265 OA
ENDROOT
BRANCH   1   4
ATOM      4  C   UNL d   1     -48.418  13.290  22.325  0.00  0.00     0.119 A 
ATOM      5  C   UNL d   1     -49.061  13.757  22.484  0.00  0.00     0.082 A 
ATOM      6  C   UNL d   1     -49.653  13.281  22.803  0.00  0.00     0.013 A 
ATOM      7  C   UNL d   1     -50.415  13.448  23.065  0.00  0.00     0.001 A 
ATOM      8  C   UNL d   1     -49.358  12.507  22.838  0.00  0.00     0.031 A 
ATOM      9  C   UNL d   1     -50.893  12.841  23.365  0.00  0.00     0.000 A 
ATOM     10  C   UNL d   1     -50.594  12.072  23.398  0.00  0.00     0.001 A 
ATOM     11  C   UNL d   1     -49.836  11.905  23.138  0.00  0.00     0.006 A 
ATOM     12  C   UNL d   1     -51.064  11.461  23.697  0.00  0.00     0.000 C 
ATOM     13  S   UNL d   1     -48.596  12.512  22.544  0.00  0.00    -0.068 SA
BRANCH   5  14
ATOM     14  C   UNL d   1     -49.107  14.569  22.345  0.00  0.00     0.281 C 
ATOM     15  O   UNL d   1     -49.173  14.859  21.576  0.00  0.00    -0.265 OA
ATOM     16  N   UNL d   1     -49.087  15.095  22.983  0.00  0.00    -0.205 NA
ATOM     17  C   UNL d   1     -49.133  15.908  22.852  0.00  0.00     0.123 C 
ENDBRANCH   5  14
ENDBRANCH   1   4
BRANCH   2  18
ATOM     18  C   UNL d   1     -46.273  13.040  22.569  0.00  0.00     0.058 A 
ATOM     19  C   UNL d   1     -46.016  12.415  22.099  0.00  0.00     0.006 A 
ATOM     20  C   UNL d   1     -45.237  12.378  21.856  0.00  0.00     0.018 A 
ATOM     21  C   UNL d   1     -44.698  12.952  22.069  0.00  0.00     0.070 A 
ATOM     22  C   UNL d   1     -44.952  13.591  22.547  0.00  0.00     0.018 A 
ATOM     23  C   UNL d   1     -45.728  13.640  22.796  0.00  0.00     0.006 A 
BRANCH  21  24
ATOM     24  N   UNL d   1     -43.913  12.910  21.821  0.00  0.00    -0.242 N 
ATOM     25  C   UNL d   1     -43.413  12.263  21.965  0.00  0.00     0.267 A 
ATOM     26  C   UNL d   1     -42.668  12.426  21.631  0.00  0.00     0.066 A 
ATOM     27  O   UNL d   1     -43.622  11.555  22.382  0.00  0.00    -0.267 OA
ATOM     28  C   UNL d   1     -42.719  13.169  21.286  0.00  0.00     0.066 A 
ATOM     29  C   UNL d   1     -43.472  13.466  21.399  0.00  0.00     0.267 A 
ATOM     30  O   UNL d   1     -43.751  14.200  21.136  0.00  0.00    -0.267 OA
ENDBRANCH  21  24
ENDBRANCH   2  18
TORSDOF 4
ENDMDL
MODEL 4
REMARK VINA RESULT:      -5.1      1.551      5.705
REMARK  4 active torsions:
REMARK  status: ('A' for Active; 'I' for Inactive)
REMARK    1  A    between atoms: N_7  and  C_1 
REMARK    2  A    between atoms: C_11  and  C_2 
REMARK    3  A    between atoms: N_6  and  C_12 
REMARK       I    between atoms: C_8  and  N_7 
REMARK    4  A    between atoms: C_14  and  C_8 
REMARK       I    between atoms: N_26  and  C_11 
ROOT
ATOM      1  N   UNL d   1     -46.429  12.933  23.196  0.00  0.00    -0.201 NA
ATOM      2  C   UNL d   1     -47.129  12.720  22.502  0.00  0.00     0.280 C 
ATOM      3  O   UNL d   1     -47.173  12.268  21.948  0.00  0.00    -0.265 OA
ENDROOT
BRANCH   1   4
ATOM      4  C   UNL d   1     -45.807  12.487  23.074  0.00  0.00     0.119 A 
ATOM      5  C   UNL d   1     -45.080  12.426  22.720  0.00  0.00     0.082 A 
ATOM      6  C   UNL d   1     -44.768  11.683  22.897  0.00  0.00     0.013 A 
ATOM      7  C   UNL d   1     -44.060  11.318  22.692  0.00  0.00     0.001 A 
ATOM      8  C   UNL d   1     -45.323  11.288  23.369  0.00  0.00     0.031 A 
ATOM      9  C   UNL d   1     -43.897  10.550  22.958  0.00  0.00     0.000 A 
ATOM     10  C   UNL d   1     -44.453  10.160  23.428  0.00  0.00     0.001 A 
ATOM     11  C   UNL d   1     -45.158  10.523  23.632  0.00  0.00     0.006 A 
ATOM     12  C   UNL d   1     -44.299   9.394  23.698  0.00  0.00     0.000 C 
ATOM     13  S   UNL d   1     -45.964  11.783  23.478  0.00  0.00    -0.068 SA
BRANCH   5  14
ATOM     14  C   UNL d   1     -44.720  13.011  22.263  0.00  0.00     0.281 C 
ATOM     15  O   UNL d   1     -44.862  13.809  22.418  0.00  0.00    -0.265 OA
ATOM     16  N   UNL d   1     -44.213  12.795  21.646  0.00  0.00    -0.205 NA
ATOM     17  C   UNL d   1     -43.850  13.375  21.185  0.00  0.00     0.123 C 
ENDBRANCH   5  14
ENDBRANCH   1   4
BRANCH   2  18
ATOM     18  C   UNL d   1     -47.811  13.173  22.594  0.00  0.00     0.058 A 
ATOM     19  C   UNL d   1     -47.807  13.834  23.084  0.00  0.00     0.006 A 
ATOM     20  C   UNL d   1     -48.484  14.283  23.174  0.00  0.00     0.018 A 
ATOM     21  C   UNL d   1     -49.176  14.090  22.786  0.00  0.00     0.070 A 
ATOM     22  C   UNL d   1     -49.188  13.419  22.286  0.00  0.00     0.018 A 
ATOM     23  C   UNL d   1     -48.518  12.963  22.187  0.00  0.00     0.006 A 
BRANCH  21  24
ATOM     24  N   UNL d   1     -49.856  14.546  22.881  0.00  0.00    -0.242 N 
ATOM     25  C   UNL d   1     -49.956  15.305  22.561  0.00  0.00     0.267 A 
ATOM     26  C   UNL d   1     -50.711  15.584  22.775  0.00  0.00     0.066 A 
ATOM     27  O   UNL d   1     -49.388  15.728  22.094  0.00  0.00    -0.267 OA
ATOM     28  C   UNL d   1     -51.064  14.994  23.223  0.00  0.00     0.066 A 
ATOM     29  C   UNL d   1     -50.550  14.364  23.290  0.00  0.00     0.267 A 
ATOM     30  O   UNL d   1     -50.695  13.657  23.698  0.00  0.00    -0.267 OA
ENDBRANCH  21  24
ENDBRANCH   2  18
TORSDOF 4
ENDMDL
MODEL 5
REMARK VINA RESULT:      -4.9      7.004     10.029
REMARK  4 active torsions:
REMARK  status: ('A' for Active; 'I' for Inactive)
REMARK    1  A    between atoms: N_7  and  C_1 
REMARK    2  A    between atoms: C_11  and  C_2 
REMARK    3  A    between atoms: N_6  and  C_12 
REMARK       I    between atoms: C_8  and  N_7 
REMARK    4  A    between atoms: C_14  and  C_8 
REMARK       I    between atoms: N_26  and  C_11 
ROOT
ATOM      1  N   UNL d   1     -39.280  14.490  19.394  0.00  0.00    -0.201 NA
ATOM      2  C   UNL d   1     -38.870  15.243  18.863  0.00  0.00     0.280 C 
ATOM      3  O   UNL d   1     -38.683  15.920  19.004  0.00  0.00    -0.265 OA
ENDROOT
BRANCH   1   4
ATOM      4  C   UNL d   1     -39.411  14.733  20.119  0.00  0.00     0.119 A 
ATOM      5  C   UNL d   1     -39.966  14.882  20.691  0.00  0.00     0.082 A 
ATOM      6  C   UNL d   1     -39.577  15.156  21.364  0.00  0.00     0.013 A 
ATOM      7  C   UNL d   1     -39.850  15.391  22.103  0.00  0.00     0.001 A 
ATOM      8  C   UNL d   1     -38.766  15.171  21.192  0.00  0.00     0.031 A 
ATOM      9  C   UNL d   1     -39.314  15.645  22.682  0.00  0.00     0.000 A 
ATOM     10  C   UNL d   1     -38.508  15.658  22.506  0.00  0.00     0.001 A 
ATOM     11  C   UNL d   1     -38.235  15.425  21.770  0.00  0.00     0.006 A 
ATOM     12  C   UNL d   1     -37.967  15.910  23.078  0.00  0.00     0.000 C 
ATOM     13  S   UNL d   1     -38.663  14.910  20.424  0.00  0.00    -0.068 SA
BRANCH   5  14
ATOM     14  C   UNL d   1     -40.780  14.776  20.605  0.00  0.00     0.281 C 
ATOM     15  O   UNL d   1     -41.260  15.401  20.361  0.00  0.00    -0.265 OA
ATOM     16  N   UNL d   1     -41.116  14.038  20.766  0.00  0.00    -0.205 NA
ATOM     17  C   UNL d   1     -41.929  13.924  20.683  0.00  0.00     0.123 C 
ENDBRANCH   5  14
ENDBRANCH   1   4
BRANCH   2  18
ATOM     18  C   UNL d   1     -38.714  15.028  18.083  0.00  0.00     0.058 A 
ATOM     19  C   UNL d   1     -38.094  14.516  17.910  0.00  0.00     0.006 A 
ATOM     20  C   UNL d   1     -37.939  14.304  17.136  0.00  0.00     0.018 A 
ATOM     21  C   UNL d   1     -38.391  14.590  16.519  0.00  0.00     0.070 A 
ATOM     22  C   UNL d   1     -39.024  15.112  16.688  0.00  0.00     0.018 A 
ATOM     23  C   UNL d   1     -39.188  15.331  17.457  0.00  0.00     0.006 A 
BRANCH  21  24
ATOM     24  N   UNL d   1     -38.232  14.373  15.741  0.00  0.00    -0.242 N 
ATOM     25  C   UNL d   1     -38.110  13.591  15.491  0.00  0.00     0.267 A 
ATOM     26  C   UNL d   1     -37.966  13.595  14.671  0.00  0.00     0.066 A 
ATOM     27  O   UNL d   1     -38.130  12.901  15.984  0.00  0.00    -0.267 OA
ATOM     28  C   UNL d   1     -38.000  14.379  14.427  0.00  0.00     0.066 A 
ATOM     29  C   UNL d   1     -38.161  14.853  15.073  0.00  0.00     0.267 A 
ATOM     30  O   UNL d   1     -38.240  15.678  15.063  0.00  0.00    -0.267 OA
ENDBRANCH  21  24
ENDBRANCH   2  18
TORSDOF 4
ENDMDL
MODEL 6
REMARK VINA RESULT:      -4.0      3.217      7.527
REMARK  4 active torsions:
REMARK  status: ('A' for Active; 'I' for Inactive)
REMARK    1  A    between atoms: N_7  and  C_1 
REMARK    2  A    between atoms: C_11  and  C_2 
REMARK    3  A    between atoms: N_6  and  C_12 
REMARK       I    between atoms: C_8  and  N_7 
REMARK    4  A    between atoms: C_14  and  C_8 
REMARK       I    between atoms: N_26  and  C_11 
ROOT
ATOM      1  N   UNL d   1     -42.090  14.132  21.211  0.00  0.00    -0.201 NA
ATOM      2  C   UNL d   1     -42.438  13.204  21.027  0.00  0.00     0.280 C 
ATOM      3  O   UNL d   1     -42.215  12.647  20.635  0.00  0.00    -0.265 OA
ENDROOT
BRANCH   1   4
ATOM      4  C   UNL d   1     -41.426  14.235  20.824  0.00  0.00     0.119 A 
ATOM      5  C   UNL d   1     -40.623  14.331  20.877  0.00  0.00     0.082 A 
ATOM      6  C   UNL d   1     -40.322  14.410  20.113  0.00  0.00     0.013 A 
ATOM      7  C   UNL d   1     -39.557  14.520  19.829  0.00  0.00     0.001 A 
ATOM      8  C   UNL d   1     -40.961  14.360  19.588  0.00  0.00     0.031 A 
ATOM      9  C   UNL d   1     -39.423  14.582  19.013  0.00  0.00     0.000 A 
ATOM     10  C   UNL d   1     -40.063  14.531  18.495  0.00  0.00     0.001 A 
ATOM     11  C   UNL d   1     -40.824  14.422  18.777  0.00  0.00     0.006 A 
ATOM     12  C   UNL d   1     -39.937  14.591  17.680  0.00  0.00     0.000 C 
ATOM     13  S   UNL d   1     -41.642  14.252  20.026  0.00  0.00    -0.068 SA
BRANCH   5  14
ATOM     14  C   UNL d   1     -40.188  14.347  21.578  0.00  0.00     0.281 C 
ATOM     15  O   UNL d   1     -40.161  15.030  22.039  0.00  0.00    -0.265 OA
ATOM     16  N   UNL d   1     -39.777  13.671  21.819  0.00  0.00    -0.205 NA
ATOM     17  C   UNL d   1     -39.340  13.679  22.519  0.00  0.00     0.123 C 
ENDBRANCH   5  14
ENDBRANCH   1   4
BRANCH   2  18
ATOM     18  C   UNL d   1     -43.146  13.049  21.420  0.00  0.00     0.058 A 
ATOM     19  C   UNL d   1     -43.744  13.613  21.433  0.00  0.00     0.006 A 
ATOM     20  C   UNL d   1     -44.446  13.459  21.823  0.00  0.00     0.018 A 
ATOM     21  C   UNL d   1     -44.571  12.750  22.207  0.00  0.00     0.070 A 
ATOM     22  C   UNL d   1     -43.966  12.171  22.198  0.00  0.00     0.018 A 
ATOM     23  C   UNL d   1     -43.261  12.313  21.812  0.00  0.00     0.006 A 
BRANCH  21  24
ATOM     24  N   UNL d   1     -45.280  12.600  22.599  0.00  0.00    -0.242 N 
ATOM     25  C   UNL d   1     -45.955  13.080  22.541  0.00  0.00     0.267 A 
ATOM     26  C   UNL d   1     -46.555  12.749  23.014  0.00  0.00     0.066 A 
ATOM     27  O   UNL d   1     -46.025  13.789  22.081  0.00  0.00    -0.267 OA
ATOM     28  C   UNL d   1     -46.242  12.070  23.355  0.00  0.00     0.066 A 
ATOM     29  C   UNL d   1     -45.470  11.977  23.106  0.00  0.00     0.267 A 
ATOM     30  O   UNL d   1     -44.959  11.362  23.323  0.00  0.00    -0.267 OA
ENDBRANCH  21  24
ENDBRANCH   2  18
TORSDOF 4
ENDMDL
