MODEL 1
REMARK VINA RESULT:       5.4      0.000      0.000
REMARK  4 active torsions:
REMARK  status: ('A' for Active; 'I' for Inactive)
REMARK    1  A    between atoms: C_17  and  N_3 
REMARK    2  A    between atoms: C_9  and  C_5 
REMARK    3  A    between atoms: O_21  and  C_12 
REMARK    4  A    between atoms: C_19  and  C_17 
ROOT
ATOM      1  C   UNL d   1     -41.933-122.043 -51.040  0.00  0.00     0.083 A 
ATOM      2  C   UNL d   1     -41.806-121.458 -50.479  0.00  0.00     0.161 A 
ATOM      3  N   UNL d   1     -41.426-120.949 -51.672  0.00  0.00    -0.272 N 
ATOM      4  C   UNL d   1     -41.498-120.790 -50.857  0.00  0.00     0.288 A 
ATOM      5  C   UNL d   1     -41.693-121.726 -51.796  0.00  0.00     0.072 A 
ATOM      6  C   UNL d   1     -42.239-122.779 -50.826  0.00  0.00     0.201 A 
ATOM      7  O   UNL d   1     -41.993-121.615 -49.679  0.00  0.00    -0.302 OA
ATOM      8  C   UNL d   1     -42.423-122.931 -50.033  0.00  0.00     0.062 A 
ATOM      9  C   UNL d   1     -42.299-122.345 -49.455  0.00  0.00     0.103 A 
ATOM     10  O   UNL d   1     -41.292-120.075 -50.492  0.00  0.00    -0.264 OA
ATOM     11  O   UNL d   1     -42.362-123.361 -51.399  0.00  0.00    -0.286 OA
ATOM     12  C   UNL d   1     -42.732-123.669 -49.812  0.00  0.00     0.005 A 
ATOM     13  C   UNL d   1     -42.485-122.502 -48.662  0.00  0.00     0.025 A 
ATOM     14  C   UNL d   1     -42.914-123.816 -49.019  0.00  0.00     0.000 A 
ATOM     15  C   UNL d   1     -42.791-123.235 -48.446  0.00  0.00     0.002 A 
ENDROOT
BRANCH   5  16
ATOM     16  C   UNL d   1     -41.724-122.122 -52.516  0.00  0.00     0.019 A 
ATOM     17  C   UNL d   1     -42.310-121.943 -53.058  0.00  0.00     0.029 A 
ATOM     18  C   UNL d   1     -42.351-122.332 -53.780  0.00  0.00     0.133 A 
ATOM     19  C   UNL d   1     -41.792-122.912 -53.959  0.00  0.00     0.218 A 
ATOM     20  C   UNL d   1     -41.195-123.097 -53.410  0.00  0.00     0.044 A 
ATOM     21  O   UNL d   1     -41.822-123.311 -54.682  0.00  0.00    -0.284 OA
ATOM     22  C   UNL d   1     -41.167-122.701 -52.696  0.00  0.00     0.005 A 
BRANCH  18  23
ATOM     23  O   UNL d   1     -42.938-122.152 -54.323  0.00  0.00    -0.325 OA
ATOM     24  C   UNL d   1     -42.756-121.707 -54.997  0.00  0.00     0.181 C 
ENDBRANCH  18  23
ENDBRANCH   5  16
BRANCH   3  25
ATOM     25  C   UNL d   1     -41.143-120.437 -52.252  0.00  0.00     0.083 C 
BRANCH  25  26
ATOM     26  C   UNL d   1     -41.157-119.623 -52.127  0.00  0.00     0.019 C 
ATOM     27  C   UNL d   1     -41.125-119.107 -52.768  0.00  0.00     0.002 C 
ENDBRANCH  25  26
ENDBRANCH   3  25
TORSDOF 4
ENDMDL
