MODEL 1
REMARK VINA RESULT:      -7.1      0.000      0.000
REMARK  3 active torsions:
REMARK  status: ('A' for Active; 'I' for Inactive)
REMARK       I    between atoms: N_5  and  C_1 
REMARK       I    between atoms: N_6  and  C_1 
REMARK    1  A    between atoms: C_2  and  N_7 
REMARK    2  A    between atoms: C_9  and  N_5 
REMARK    3  A    between atoms: N_7  and  N_6 
ROOT
ATOM      1  C   UNL d   1     -49.315  12.125  22.561  0.00  0.00     0.070 A 
ATOM      2  C   UNL d   1     -48.562  12.141  22.903  0.00  0.00     0.032 A 
ATOM      3  C   UNL d   1     -47.945  12.516  22.539  0.00  0.00     0.087 A 
ATOM      4  C   UNL d   1     -49.413  12.506  21.834  0.00  0.00     0.068 A 
ATOM      5  C   UNL d   1     -48.783  12.888  21.463  0.00  0.00     0.014 A 
ATOM      6 CL   UNL d   1     -49.958  11.745  22.921  0.00  0.00    -0.081 Cl
ATOM      7  C   UNL d   1     -48.049  12.893  21.815  0.00  0.00     0.020 A 
ATOM      8 CL   UNL d   1     -50.189  12.499  21.464  0.00  0.00    -0.082 Cl
ENDROOT
BRANCH   3   9
ATOM      9  N   UNL d   1     -47.170  12.517  22.919  0.00  0.00    -0.190 NA
ATOM     10  C   UNL d   1     -46.876  13.235  23.255  0.00  0.00     0.387 C 
ATOM     11  N   UNL d   1     -47.326  13.913  23.217  0.00  0.00    -0.086 NA
ATOM     12  O   UNL d   1     -46.132  13.235  23.620  0.00  0.00    -0.241 OA
BRANCH  11  13
ATOM     13  N   UNL d   1     -48.056  13.905  22.857  0.00  0.00    -0.111 NA
BRANCH  13  14
ATOM     14  C   UNL d   1     -48.536  14.585  22.838  0.00  0.00     0.260 C 
ATOM     15  S   UNL d   1     -48.435  15.147  22.246  0.00  0.00    -0.034 SA
ATOM     16  N   UNL d   1     -49.114  14.685  23.424  0.00  0.00    -0.113 N 
ENDBRANCH  13  14
ENDBRANCH  11  13
ENDBRANCH   3   9
TORSDOF 3
ENDMDL
MODEL 2
REMARK VINA RESULT:      -6.8      2.195      2.947
REMARK  3 active torsions:
REMARK  status: ('A' for Active; 'I' for Inactive)
REMARK       I    between atoms: N_5  and  C_1 
REMARK       I    between atoms: N_6  and  C_1 
REMARK    1  A    between atoms: C_2  and  N_7 
REMARK    2  A    between atoms: C_9  and  N_5 
REMARK    3  A    between atoms: N_7  and  N_6 
ROOT
ATOM      1  C   UNL d   1     -46.622  13.631  22.762  0.00  0.00     0.070 A 
ATOM      2  C   UNL d   1     -47.132  14.278  22.691  0.00  0.00     0.032 A 
ATOM      3  C   UNL d   1     -47.891  14.245  22.966  0.00  0.00     0.087 A 
ATOM      4  C   UNL d   1     -46.918  12.949  23.125  0.00  0.00     0.068 A 
ATOM      5  C   UNL d   1     -47.693  12.916  23.405  0.00  0.00     0.014 A 
ATOM      6 CL   UNL d   1     -45.841  13.648  22.486  0.00  0.00    -0.081 Cl
ATOM      7  C   UNL d   1     -48.180  13.564  23.326  0.00  0.00     0.020 A 
ATOM      8 CL   UNL d   1     -46.402  12.266  23.207  0.00  0.00    -0.082 Cl
ENDROOT
BRANCH   3   9
ATOM      9  N   UNL d   1     -48.401  14.936  22.878  0.00  0.00    -0.190 NA
ATOM     10  C   UNL d   1     -49.074  14.890  22.368  0.00  0.00     0.387 C 
ATOM     11  N   UNL d   1     -49.232  14.198  21.968  0.00  0.00    -0.086 NA
ATOM     12  O   UNL d   1     -49.563  15.554  22.284  0.00  0.00    -0.241 OA
BRANCH  11  13
ATOM     13  N   UNL d   1     -48.747  13.550  22.056  0.00  0.00    -0.111 NA
BRANCH  13  14
ATOM     14  C   UNL d   1     -48.885  12.847  21.632  0.00  0.00     0.260 C 
ATOM     15  S   UNL d   1     -49.413  12.287  21.921  0.00  0.00    -0.034 SA
ATOM     16  N   UNL d   1     -48.483  12.723  20.918  0.00  0.00    -0.113 N 
ENDBRANCH  13  14
ENDBRANCH  11  13
ENDBRANCH   3   9
TORSDOF 3
ENDMDL
MODEL 3
REMARK VINA RESULT:      -6.7      1.539      2.085
REMARK  3 active torsions:
REMARK  status: ('A' for Active; 'I' for Inactive)
REMARK       I    between atoms: N_5  and  C_1 
REMARK       I    between atoms: N_6  and  C_1 
REMARK    1  A    between atoms: C_2  and  N_7 
REMARK    2  A    between atoms: C_9  and  N_5 
REMARK    3  A    between atoms: N_7  and  N_6 
ROOT
ATOM      1  C   UNL d   1     -48.835  14.486  22.633  0.00  0.00     0.070 A 
ATOM      2  C   UNL d   1     -48.077  14.368  22.943  0.00  0.00     0.032 A 
ATOM      3  C   UNL d   1     -47.562  13.846  22.605  0.00  0.00     0.087 A 
ATOM      4  C   UNL d   1     -49.045  14.049  21.962  0.00  0.00     0.068 A 
ATOM      5  C   UNL d   1     -48.518  13.516  21.617  0.00  0.00     0.014 A 
ATOM      6 CL   UNL d   1     -49.375  15.018  22.968  0.00  0.00    -0.081 Cl
ATOM      7  C   UNL d   1     -47.777  13.414  21.938  0.00  0.00     0.020 A 
ATOM      8 CL   UNL d   1     -49.828  14.158  21.625  0.00  0.00    -0.082 Cl
ENDROOT
BRANCH   3   9
ATOM      9  N   UNL d   1     -46.778  13.743  22.951  0.00  0.00    -0.190 NA
ATOM     10  C   UNL d   1     -46.582  13.007  23.319  0.00  0.00     0.387 C 
ATOM     11  N   UNL d   1     -47.133  12.408  23.342  0.00  0.00    -0.086 NA
ATOM     12  O   UNL d   1     -45.829  12.909  23.651  0.00  0.00    -0.241 OA
BRANCH  11  13
ATOM     13  N   UNL d   1     -47.871  12.512  23.013  0.00  0.00    -0.111 NA
BRANCH  13  14
ATOM     14  C   UNL d   1     -48.440  11.904  23.029  0.00  0.00     0.260 C 
ATOM     15  S   UNL d   1     -48.905  11.790  23.698  0.00  0.00    -0.034 SA
ATOM     16  N   UNL d   1     -48.529  11.418  22.363  0.00  0.00    -0.113 N 
ENDBRANCH  13  14
ENDBRANCH  11  13
ENDBRANCH   3   9
TORSDOF 3
ENDMDL
MODEL 4
REMARK VINA RESULT:      -6.7      2.201      2.733
REMARK  3 active torsions:
REMARK  status: ('A' for Active; 'I' for Inactive)
REMARK       I    between atoms: N_5  and  C_1 
REMARK       I    between atoms: N_6  and  C_1 
REMARK    1  A    between atoms: C_2  and  N_7 
REMARK    2  A    between atoms: C_9  and  N_5 
REMARK    3  A    between atoms: N_7  and  N_6 
ROOT
ATOM      1  C   UNL d   1     -46.625  13.044  22.945  0.00  0.00     0.070 A 
ATOM      2  C   UNL d   1     -47.111  12.435  23.223  0.00  0.00     0.032 A 
ATOM      3  C   UNL d   1     -47.885  12.569  23.410  0.00  0.00     0.087 A 
ATOM      4  C   UNL d   1     -46.962  13.795  22.867  0.00  0.00     0.068 A 
ATOM      5  C   UNL d   1     -47.752  13.932  23.059  0.00  0.00     0.014 A 
ATOM      6 CL   UNL d   1     -45.829  12.923  22.748  0.00  0.00    -0.081 Cl
ATOM      7  C   UNL d   1     -48.214  13.319  23.330  0.00  0.00     0.020 A 
ATOM      8 CL   UNL d   1     -46.472  14.441  22.579  0.00  0.00    -0.082 Cl
ENDROOT
BRANCH   3   9
ATOM      9  N   UNL d   1     -48.368  11.915  23.698  0.00  0.00    -0.190 NA
ATOM     10  C   UNL d   1     -49.024  11.650  23.233  0.00  0.00     0.387 C 
ATOM     11  N   UNL d   1     -49.190  12.014  22.524  0.00  0.00    -0.086 NA
ATOM     12  O   UNL d   1     -49.487  11.021  23.510  0.00  0.00    -0.241 OA
BRANCH  11  13
ATOM     13  N   UNL d   1     -48.729  12.632  22.259  0.00  0.00    -0.111 NA
BRANCH  13  14
ATOM     14  C   UNL d   1     -48.868  12.986  21.519  0.00  0.00     0.260 C 
ATOM     15  S   UNL d   1     -49.422  13.591  21.446  0.00  0.00    -0.034 SA
ATOM     16  N   UNL d   1     -48.441  12.722  20.860  0.00  0.00    -0.113 N 
ENDBRANCH  13  14
ENDBRANCH  11  13
ENDBRANCH   3   9
TORSDOF 3
ENDMDL
MODEL 5
REMARK VINA RESULT:      -5.5      1.962      2.400
REMARK  3 active torsions:
REMARK  status: ('A' for Active; 'I' for Inactive)
REMARK       I    between atoms: N_5  and  C_1 
REMARK       I    between atoms: N_6  and  C_1 
REMARK    1  A    between atoms: C_2  and  N_7 
REMARK    2  A    between atoms: C_9  and  N_5 
REMARK    3  A    between atoms: N_7  and  N_6 
ROOT
ATOM      1  C   UNL d   1     -47.676  12.260  23.049  0.00  0.00     0.070 A 
ATOM      2  C   UNL d   1     -48.347  12.109  22.590  0.00  0.00     0.032 A 
ATOM      3  C   UNL d   1     -48.539  12.577  21.960  0.00  0.00     0.087 A 
ATOM      4  C   UNL d   1     -47.208  12.909  22.838  0.00  0.00     0.068 A 
ATOM      5  C   UNL d   1     -47.404  13.387  22.195  0.00  0.00     0.014 A 
ATOM      6 CL   UNL d   1     -47.466  11.790  23.698  0.00  0.00    -0.081 Cl
ATOM      7  C   UNL d   1     -48.069  13.221  21.756  0.00  0.00     0.020 A 
ATOM      8 CL   UNL d   1     -46.506  13.082  23.303  0.00  0.00    -0.082 Cl
ENDROOT
BRANCH   3   9
ATOM      9  N   UNL d   1     -49.246  12.395  21.500  0.00  0.00    -0.190 NA
ATOM     10  C   UNL d   1     -49.896  12.936  21.510  0.00  0.00     0.387 C 
ATOM     11  N   UNL d   1     -49.846  13.619  21.951  0.00  0.00    -0.086 NA
ATOM     12  O   UNL d   1     -50.574  12.761  21.067  0.00  0.00    -0.241 OA
BRANCH  11  13
ATOM     13  N   UNL d   1     -49.176  13.784  22.383  0.00  0.00    -0.111 NA
BRANCH  13  14
ATOM     14  C   UNL d   1     -49.134  14.456  22.873  0.00  0.00     0.260 C 
ATOM     15  S   UNL d   1     -48.848  15.168  22.576  0.00  0.00    -0.034 SA
ATOM     16  N   UNL d   1     -49.382  14.395  23.662  0.00  0.00    -0.113 N 
ENDBRANCH  13  14
ENDBRANCH  11  13
ENDBRANCH   3   9
TORSDOF 3
ENDMDL
