MODEL 1
REMARK VINA RESULT:      -3.0      0.000      0.000
REMARK  2 active torsions:
REMARK  status: ('A' for Active; 'I' for Inactive)
REMARK    1  A    between atoms: C_5  and  C_1 
REMARK    2  A    between atoms: C_7  and  N_2 
ROOT
ATOM      1  C   UNL d   1      60.491  -0.935  29.190  0.00  0.00     0.129 A 
ATOM      2  N   UNL d   1      59.669  -1.059  29.136  0.00  0.00    -0.302 N 
ATOM      3  C   UNL d   1      60.860  -1.672  29.111  0.00  0.00     0.025 A 
ATOM      4  C   UNL d   1      59.536  -1.867  29.025  0.00  0.00     0.064 A 
ATOM      5  C   UNL d   1      60.275  -2.247  29.009  0.00  0.00     0.018 A 
ATOM      6  C   UNL d   1      58.841  -2.311  28.935  0.00  0.00     0.018 A 
ATOM      7  C   UNL d   1      60.313  -3.069  28.904  0.00  0.00     0.002 A 
ATOM      8  C   UNL d   1      58.883  -3.125  28.831  0.00  0.00     0.002 A 
ATOM      9  C   UNL d   1      59.616  -3.503  28.816  0.00  0.00     0.000 A 
ENDROOT
BRANCH   2  10
ATOM     10  C   UNL d   1      59.086  -0.476  29.186  0.00  0.00     0.064 A 
ATOM     11  C   UNL d   1      58.755  -0.298  29.918  0.00  0.00     0.018 A 
ATOM     12  C   UNL d   1      58.175   0.282  29.969  0.00  0.00     0.002 A 
ATOM     13  C   UNL d   1      57.926   0.682  29.292  0.00  0.00     0.000 A 
ATOM     14  C   UNL d   1      58.260   0.500  28.556  0.00  0.00     0.002 A 
ATOM     15  C   UNL d   1      58.842  -0.082  28.510  0.00  0.00     0.018 A 
ENDBRANCH   2  10
BRANCH   1  16
ATOM     16  C   UNL d   1      60.867  -0.211  29.302  0.00  0.00     0.228 C 
ATOM     17  O   UNL d   1      61.084   0.246  28.652  0.00  0.00    -0.643 OA
ATOM     18  O   UNL d   1      61.026   0.057  30.070  0.00  0.00    -0.643 OA
ENDBRANCH   1  16
TORSDOF 2
ENDMDL
MODEL 2
REMARK VINA RESULT:      -2.5      1.565      3.106
REMARK  2 active torsions:
REMARK  status: ('A' for Active; 'I' for Inactive)
REMARK    1  A    between atoms: C_5  and  C_1 
REMARK    2  A    between atoms: C_7  and  N_2 
ROOT
ATOM      1  C   UNL d   1      58.455  -1.331  29.791  0.00  0.00     0.129 A 
ATOM      2  N   UNL d   1      58.668  -0.536  29.920  0.00  0.00    -0.302 N 
ATOM      3  C   UNL d   1      57.817  -1.501  30.290  0.00  0.00     0.025 A 
ATOM      4  C   UNL d   1      58.163  -0.222  30.493  0.00  0.00     0.064 A 
ATOM      5  C   UNL d   1      57.634  -0.822  30.723  0.00  0.00     0.018 A 
ATOM      6  C   UNL d   1      58.109   0.530  30.840  0.00  0.00     0.018 A 
ATOM      7  C   UNL d   1      57.057  -0.664  31.298  0.00  0.00     0.002 A 
ATOM      8  C   UNL d   1      57.536   0.682  31.409  0.00  0.00     0.002 A 
ATOM      9  C   UNL d   1      57.013   0.087  31.637  0.00  0.00     0.000 A 
ENDROOT
BRANCH   2  10
ATOM     10  C   UNL d   1      59.279  -0.129  29.540  0.00  0.00     0.064 A 
ATOM     11  C   UNL d   1      59.122   0.265  28.834  0.00  0.00     0.018 A 
ATOM     12  C   UNL d   1      59.729   0.671  28.455  0.00  0.00     0.002 A 
ATOM     13  C   UNL d   1      60.487   0.682  28.779  0.00  0.00     0.000 A 
ATOM     14  C   UNL d   1      60.642   0.284  29.489  0.00  0.00     0.002 A 
ATOM     15  C   UNL d   1      60.030  -0.121  29.865  0.00  0.00     0.018 A 
ENDBRANCH   2  10
BRANCH   1  16
ATOM     16  C   UNL d   1      58.816  -1.851  29.264  0.00  0.00     0.228 C 
ATOM     17  O   UNL d   1      59.452  -2.312  29.510  0.00  0.00    -0.643 OA
ATOM     18  O   UNL d   1      58.536  -1.909  28.486  0.00  0.00    -0.643 OA
ENDBRANCH   1  16
TORSDOF 2
ENDMDL
MODEL 3
REMARK VINA RESULT:      -2.4      1.202      2.941
REMARK  2 active torsions:
REMARK  status: ('A' for Active; 'I' for Inactive)
REMARK    1  A    between atoms: C_5  and  C_1 
REMARK    2  A    between atoms: C_7  and  N_2 
ROOT
ATOM      1  C   UNL d   1      58.971   0.156  29.751  0.00  0.00     0.129 A 
ATOM      2  N   UNL d   1      58.655  -0.603  29.885  0.00  0.00    -0.302 N 
ATOM      3  C   UNL d   1      58.574   0.682  30.251  0.00  0.00     0.025 A 
ATOM      4  C   UNL d   1      58.068  -0.541  30.463  0.00  0.00     0.064 A 
ATOM      5  C   UNL d   1      58.018   0.257  30.690  0.00  0.00     0.018 A 
ATOM      6  C   UNL d   1      57.570  -1.103  30.816  0.00  0.00     0.018 A 
ATOM      7  C   UNL d   1      57.469   0.487  31.269  0.00  0.00     0.002 A 
ATOM      8  C   UNL d   1      57.028  -0.871  31.388  0.00  0.00     0.002 A 
ATOM      9  C   UNL d   1      56.978  -0.080  31.614  0.00  0.00     0.000 A 
ENDROOT
BRANCH   2  10
ATOM     10  C   UNL d   1      58.887  -1.300  29.505  0.00  0.00     0.064 A 
ATOM     11  C   UNL d   1      59.519  -1.732  29.809  0.00  0.00     0.018 A 
ATOM     12  C   UNL d   1      59.751  -2.425  29.432  0.00  0.00     0.002 A 
ATOM     13  C   UNL d   1      59.354  -2.685  28.757  0.00  0.00     0.000 A 
ATOM     14  C   UNL d   1      58.719  -2.248  28.455  0.00  0.00     0.002 A 
ATOM     15  C   UNL d   1      58.490  -1.554  28.836  0.00  0.00     0.018 A 
ENDBRANCH   2  10
BRANCH   1  16
ATOM     16  C   UNL d   1      59.570   0.345  29.218  0.00  0.00     0.228 C 
ATOM     17  O   UNL d   1      59.381   0.587  28.455  0.00  0.00    -0.643 OA
ATOM     18  O   UNL d   1      60.363   0.291  29.453  0.00  0.00    -0.643 OA
ENDBRANCH   1  16
TORSDOF 2
ENDMDL
MODEL 4
REMARK VINA RESULT:      -2.2      2.137      3.043
REMARK  2 active torsions:
REMARK  status: ('A' for Active; 'I' for Inactive)
REMARK    1  A    between atoms: C_5  and  C_1 
REMARK    2  A    between atoms: C_7  and  N_2 
ROOT
ATOM      1  C   UNL d   1      58.891  -0.017  29.425  0.00  0.00     0.129 A 
ATOM      2  N   UNL d   1      58.812   0.095  30.246  0.00  0.00    -0.302 N 
ATOM      3  C   UNL d   1      59.683   0.122  29.229  0.00  0.00     0.025 A 
ATOM      4  C   UNL d   1      59.551   0.300  30.551  0.00  0.00     0.064 A 
ATOM      5  C   UNL d   1      60.092   0.317  29.920  0.00  0.00     0.018 A 
ATOM      6  C   UNL d   1      59.810   0.476  31.320  0.00  0.00     0.018 A 
ATOM      7  C   UNL d   1      60.887   0.509  30.062  0.00  0.00     0.002 A 
ATOM      8  C   UNL d   1      60.598   0.665  31.457  0.00  0.00     0.002 A 
ATOM      9  C   UNL d   1      61.133   0.682  30.831  0.00  0.00     0.000 A 
ENDROOT
BRANCH   2  10
ATOM     10  C   UNL d   1      58.115   0.014  30.683  0.00  0.00     0.064 A 
ATOM     11  C   UNL d   1      57.658   0.681  30.837  0.00  0.00     0.018 A 
ATOM     12  C   UNL d   1      56.964   0.603  31.272  0.00  0.00     0.002 A 
ATOM     13  C   UNL d   1      56.729  -0.138  31.550  0.00  0.00     0.000 A 
ATOM     14  C   UNL d   1      57.191  -0.806  31.393  0.00  0.00     0.002 A 
ATOM     15  C   UNL d   1      57.886  -0.722  30.957  0.00  0.00     0.018 A 
ENDBRANCH   2  10
BRANCH   1  16
ATOM     16  C   UNL d   1      58.288  -0.227  28.903  0.00  0.00     0.228 C 
ATOM     17  O   UNL d   1      57.810   0.354  28.570  0.00  0.00    -0.643 OA
ATOM     18  O   UNL d   1      58.166  -1.025  28.716  0.00  0.00    -0.643 OA
ENDBRANCH   1  16
TORSDOF 2
ENDMDL
MODEL 5
REMARK VINA RESULT:      -1.7      1.277      2.030
REMARK  2 active torsions:
REMARK  status: ('A' for Active; 'I' for Inactive)
REMARK    1  A    between atoms: C_5  and  C_1 
REMARK    2  A    between atoms: C_7  and  N_2 
ROOT
ATOM      1  C   UNL d   1      58.970  -1.441  29.106  0.00  0.00     0.129 A 
ATOM      2  N   UNL d   1      59.802  -1.390  29.086  0.00  0.00    -0.302 N 
ATOM      3  C   UNL d   1      58.768  -2.240  29.037  0.00  0.00     0.025 A 
ATOM      4  C   UNL d   1      60.106  -2.154  29.005  0.00  0.00     0.064 A 
ATOM      5  C   UNL d   1      59.463  -2.682  28.975  0.00  0.00     0.018 A 
ATOM      6  C   UNL d   1      60.881  -2.445  28.955  0.00  0.00     0.018 A 
ATOM      7  C   UNL d   1      59.603  -3.496  28.895  0.00  0.00     0.002 A 
ATOM      8  C   UNL d   1      61.014  -3.252  28.875  0.00  0.00     0.002 A 
ATOM      9  C   UNL d   1      60.378  -3.775  28.845  0.00  0.00     0.000 A 
ENDROOT
BRANCH   2  10
ATOM     10  C   UNL d   1      60.248  -0.696  29.137  0.00  0.00     0.064 A 
ATOM     11  C   UNL d   1      60.460  -0.409  29.879  0.00  0.00     0.018 A 
ATOM     12  C   UNL d   1      60.904   0.281  29.932  0.00  0.00     0.002 A 
ATOM     13  C   UNL d   1      61.133   0.682  29.248  0.00  0.00     0.000 A 
ATOM     14  C   UNL d   1      60.918   0.390  28.504  0.00  0.00     0.002 A 
ATOM     15  C   UNL d   1      60.473  -0.303  28.456  0.00  0.00     0.018 A 
ENDBRANCH   2  10
BRANCH   1  16
ATOM     16  C   UNL d   1      58.447  -0.809  29.180  0.00  0.00     0.228 C 
ATOM     17  O   UNL d   1      58.149  -0.439  28.509  0.00  0.00    -0.643 OA
ATOM     18  O   UNL d   1      58.222  -0.547  29.934  0.00  0.00    -0.643 OA
ENDBRANCH   1  16
TORSDOF 2
ENDMDL
MODEL 6
REMARK VINA RESULT:      -0.8      1.654      2.559
REMARK  2 active torsions:
REMARK  status: ('A' for Active; 'I' for Inactive)
REMARK    1  A    between atoms: C_5  and  C_1 
REMARK    2  A    between atoms: C_7  and  N_2 
ROOT
ATOM      1  C   UNL d   1      58.854  -1.317  29.260  0.00  0.00     0.129 A 
ATOM      2  N   UNL d   1      58.903  -0.550  29.582  0.00  0.00    -0.302 N 
ATOM      3  C   UNL d   1      59.556  -1.459  28.847  0.00  0.00     0.025 A 
ATOM      4  C   UNL d   1      59.631  -0.226  29.366  0.00  0.00     0.064 A 
ATOM      5  C   UNL d   1      60.037  -0.790  28.909  0.00  0.00     0.018 A 
ATOM      6  C   UNL d   1      59.984   0.509  29.522  0.00  0.00     0.018 A 
ATOM      7  C   UNL d   1      60.792  -0.615  28.613  0.00  0.00     0.002 A 
ATOM      8  C   UNL d   1      60.731   0.679  29.226  0.00  0.00     0.002 A 
ATOM      9  C   UNL d   1      61.133   0.119  28.774  0.00  0.00     0.000 A 
ENDROOT
BRANCH   2  10
ATOM     10  C   UNL d   1      58.324  -0.177  30.039  0.00  0.00     0.064 A 
ATOM     11  C   UNL d   1      58.314  -0.299  30.853  0.00  0.00     0.018 A 
ATOM     12  C   UNL d   1      57.738   0.072  31.308  0.00  0.00     0.002 A 
ATOM     13  C   UNL d   1      57.177   0.562  30.953  0.00  0.00     0.000 A 
ATOM     14  C   UNL d   1      57.191   0.682  30.133  0.00  0.00     0.002 A 
ATOM     15  C   UNL d   1      57.770   0.308  29.681  0.00  0.00     0.018 A 
ENDBRANCH   2  10
BRANCH   1  16
ATOM     16  C   UNL d   1      58.220  -1.838  29.341  0.00  0.00     0.228 C 
ATOM     17  O   UNL d   1      58.133  -2.277  30.031  0.00  0.00    -0.643 OA
ATOM     18  O   UNL d   1      57.672  -1.918  28.725  0.00  0.00    -0.643 OA
ENDBRANCH   1  16
TORSDOF 2
ENDMDL
MODEL 7
REMARK VINA RESULT:      -0.2      4.448      6.045
REMARK  2 active torsions:
REMARK  status: ('A' for Active; 'I' for Inactive)
REMARK    1  A    between atoms: C_5  and  C_1 
REMARK    2  A    between atoms: C_7  and  N_2 
ROOT
ATOM      1  C   UNL d   1      56.823   0.509  34.057  0.00  0.00     0.129 A 
ATOM      2  N   UNL d   1      56.323   0.301  33.424  0.00  0.00    -0.302 N 
ATOM      3  C   UNL d   1      56.342   0.682  34.707  0.00  0.00     0.025 A 
ATOM      4  C   UNL d   1      55.541   0.348  33.686  0.00  0.00     0.064 A 
ATOM      5  C   UNL d   1      55.553   0.584  34.483  0.00  0.00     0.018 A 
ATOM      6  C   UNL d   1      54.816   0.207  33.308  0.00  0.00     0.018 A 
ATOM      7  C   UNL d   1      54.840   0.678  34.896  0.00  0.00     0.002 A 
ATOM      8  C   UNL d   1      54.111   0.302  33.721  0.00  0.00     0.002 A 
ATOM      9  C   UNL d   1      54.123   0.536  34.511  0.00  0.00     0.000 A 
ENDROOT
BRANCH   2  10
ATOM     10  C   UNL d   1      56.565   0.086  32.663  0.00  0.00     0.064 A 
ATOM     11  C   UNL d   1      56.619  -0.712  32.469  0.00  0.00     0.018 A 
ATOM     12  C   UNL d   1      56.860  -0.928  31.713  0.00  0.00     0.002 A 
ATOM     13  C   UNL d   1      57.046  -0.350  31.155  0.00  0.00     0.000 A 
ATOM     14  C   UNL d   1      56.991   0.452  31.354  0.00  0.00     0.002 A 
ATOM     15  C   UNL d   1      56.749   0.664  32.113  0.00  0.00     0.018 A 
ENDBRANCH   2  10
BRANCH   1  16
ATOM     16  C   UNL d   1      57.646   0.535  34.037  0.00  0.00     0.228 C 
ATOM     17  O   UNL d   1      58.079   0.417  34.726  0.00  0.00    -0.643 OA
ATOM     18  O   UNL d   1      58.036   0.681  33.320  0.00  0.00    -0.643 OA
ENDBRANCH   1  16
TORSDOF 2
ENDMDL
