MODEL 1
REMARK VINA RESULT:      22.4      0.000      0.000
REMARK  2 active torsions:
REMARK  status: ('A' for Active; 'I' for Inactive)
REMARK    1  A    between atoms: C_7  and  C_4 
REMARK    2  A    between atoms: O_13  and  C_11 
ROOT
ATOM      1  N   UNL d   1      14.566  12.585  -2.782  0.00  0.00    -0.211 NA
ATOM      2  C   UNL d   1      14.853  12.517  -2.002  0.00  0.00     0.140 A 
ATOM      3  C   UNL d   1      14.348  12.272  -1.401  0.00  0.00     0.051 A 
ATOM      4  C   UNL d   1      13.774  12.404  -2.943  0.00  0.00     0.183 A 
ATOM      5  C   UNL d   1      13.561  12.094  -1.565  0.00  0.00     0.104 A 
ATOM      6  O   UNL d   1      13.272  12.159  -2.337  0.00  0.00    -0.289 OA
ATOM      7  S   UNL d   1      15.640  12.695  -1.833  0.00  0.00    -0.057 SA
ATOM      8  C   UNL d   1      14.627  12.204  -0.627  0.00  0.00     0.004 A 
ATOM      9  C   UNL d   1      13.053  11.849  -0.968  0.00  0.00     0.025 A 
ATOM     10  C   UNL d   1      14.123  11.957  -0.016  0.00  0.00     0.000 A 
ATOM     11  C   UNL d   1      13.336  11.781  -0.193  0.00  0.00     0.002 A 
ENDROOT
BRANCH   4  12
ATOM     12  C   UNL d   1      13.498  12.473  -3.713  0.00  0.00     0.043 A 
ATOM     13  C   UNL d   1      13.317  13.201  -4.032  0.00  0.00     0.028 A 
ATOM     14  C   UNL d   1      13.042  13.264  -4.801  0.00  0.00     0.094 A 
ATOM     15  C   UNL d   1      12.946  12.586  -5.262  0.00  0.00     0.024 A 
ATOM     16  C   UNL d   1      13.130  11.847  -4.940  0.00  0.00     0.002 A 
ATOM     17  C   UNL d   1      13.406  11.782  -4.168  0.00  0.00     0.004 A 
BRANCH  14  18
ATOM     18  O   UNL d   1      12.861  14.001  -5.119  0.00  0.00    -0.328 OA
ATOM     19  C   UNL d   1      13.096  14.690  -4.733  0.00  0.00     0.181 C 
ENDBRANCH  14  18
ENDBRANCH   4  12
TORSDOF 2
ENDMDL
