MODEL 1
REMARK VINA RESULT:      15.4      0.000      0.000
REMARK  3 active torsions:
REMARK  status: ('A' for Active; 'I' for Inactive)
REMARK       I    between atoms: N_2  and  C_1 
REMARK    1  A    between atoms: C_8  and  C_1 
REMARK    2  A    between atoms: C_6  and  N_2 
REMARK    3  A    between atoms: N_4  and  C_8 
ROOT
ATOM      1  N   UNL d   1      43.367 -14.726  44.955  0.00  0.00    -0.191 NA
ATOM      2  C   UNL d   1      44.107 -14.474  44.797  0.00  0.00     0.102 C 
ATOM      3  C   UNL d   1      45.506 -14.739  44.713  0.00  0.00     0.094 A 
ATOM      4  C   UNL d   1      44.865 -14.212  44.633  0.00  0.00     0.086 A 
ATOM      5  C   UNL d   1      45.007 -13.432  44.390  0.00  0.00     0.012 A 
ATOM      6  C   UNL d   1      46.264 -14.482  44.551  0.00  0.00     0.020 A 
ATOM      7  C   UNL d   1      45.779 -13.178  44.227  0.00  0.00     0.001 A 
ATOM      8  C   UNL d   1      46.403 -13.702  44.308  0.00  0.00     0.002 A 
ENDROOT
BRANCH   3   9
ATOM      9  N   UNL d   1      45.368 -15.514  44.954  0.00  0.00    -0.206 NA
ATOM     10  C   UNL d   1      45.890 -16.086  44.707  0.00  0.00     0.297 C 
ATOM     11  O   UNL d   1      46.537 -15.887  44.227  0.00  0.00    -0.264 OA
BRANCH  10  12
ATOM     12  C   UNL d   1      45.794 -16.886  44.925  0.00  0.00     0.144 C 
BRANCH  12  13
ATOM     13  N   UNL d   1      45.996 -17.496  44.428  0.00  0.00    -0.299 N 
ATOM     14  C   UNL d   1      45.807 -17.471  43.638  0.00  0.00     0.080 A 
ATOM     15  C   UNL d   1      46.015 -18.092  43.138  0.00  0.00     0.019 A 
ATOM     16  C   UNL d   1      46.413 -18.736  43.439  0.00  0.00     0.003 A 
ATOM     17  C   UNL d   1      46.601 -18.755  44.234  0.00  0.00     0.019 A 
ATOM     18  C   UNL d   1      46.644 -19.403  42.936  0.00  0.00     0.000 C 
ATOM     19  C   UNL d   1      46.391 -18.130  44.733  0.00  0.00     0.080 A 
ENDBRANCH  12  13
ENDBRANCH  10  12
ENDBRANCH   3   9
TORSDOF 3
ENDMDL
