MODEL 1
REMARK VINA RESULT:      -2.9      0.000      0.000
REMARK  0 active torsions:
REMARK  status: ('A' for Active; 'I' for Inactive)
ROOT
ATOM      1  N   UNL d   1      23.632  12.531  -1.063  0.00  0.00    -0.219 NA
ATOM      2  C   UNL d   1      24.379  12.600  -1.409  0.00  0.00     0.215 A 
ATOM      3  S   UNL d   1      24.768  13.231  -1.063  0.00  0.00    -0.045 SA
ATOM      4  C   UNL d   1      23.564  13.128  -0.498  0.00  0.00     0.090 A 
ATOM      5  C   UNL d   1      24.269  13.567  -0.494  0.00  0.00     0.050 A 
ATOM      6  N   UNL d   1      24.681  12.112  -2.006  0.00  0.00    -0.120 N 
ATOM      7  C   UNL d   1      22.910  13.270  -0.015  0.00  0.00     0.021 C 
ATOM      8  C   UNL d   1      24.442  14.211  -0.018  0.00  0.00     0.009 C 
ENDROOT
TORSDOF 0
ENDMDL
MODEL 2
REMARK VINA RESULT:      -1.6      1.238      2.014
REMARK  0 active torsions:
REMARK  status: ('A' for Active; 'I' for Inactive)
ROOT
ATOM      1  N   UNL d   1      23.446  13.355  -1.077  0.00  0.00    -0.219 NA
ATOM      2  C   UNL d   1      23.111  13.156  -0.349  0.00  0.00     0.215 A 
ATOM      3  S   UNL d   1      23.554  12.554  -0.015  0.00  0.00    -0.045 SA
ATOM      4  C   UNL d   1      24.103  12.869  -1.190  0.00  0.00     0.090 A 
ATOM      5  C   UNL d   1      24.175  12.369  -0.532  0.00  0.00     0.050 A 
ATOM      6  N   UNL d   1      22.440  13.507  -0.014  0.00  0.00    -0.120 N 
ATOM      7  C   UNL d   1      24.606  12.874  -1.844  0.00  0.00     0.021 C 
ATOM      8  C   UNL d   1      24.749  11.796  -0.412  0.00  0.00     0.009 C 
ENDROOT
TORSDOF 0
ENDMDL
