MODEL 1
REMARK VINA RESULT:      90.1      0.000      0.000
REMARK  9 active torsions:
REMARK  status: ('A' for Active; 'I' for Inactive)
REMARK    1  A    between atoms: C_9  and  N_1 
REMARK    2  A    between atoms: C_6  and  C_2 
REMARK    3  A    between atoms: S_11  and  C_3 
REMARK    4  A    between atoms: C_7  and  C_6 
REMARK    5  A    between atoms: C_20  and  C_9 
REMARK       I    between atoms: N_10  and  C_12 
REMARK    6  A    between atoms: C_13  and  N_10 
REMARK    7  A    between atoms: C_19  and  S_11 
REMARK    8  A    between atoms: C_12  and  C_19 
REMARK    9  A    between atoms: C_23  and  C_20 
ROOT
ATOM      1  N   UNL d   1      59.492  49.022  50.620  0.00  0.00    -0.268 N 
ATOM      2  C   UNL d   1      58.759  49.151  50.263  0.00  0.00     0.172 A 
ATOM      3  C   UNL d   1      59.879  48.424  50.206  0.00  0.00     0.201 A 
ATOM      4  N   UNL d   1      58.692  48.635  49.628  0.00  0.00    -0.128 NA
ATOM      5  N   UNL d   1      59.380  48.183  49.587  0.00  0.00    -0.121 NA
ENDROOT
BRANCH   3   6
ATOM      6  S   UNL d   1      60.622  48.119  50.371  0.00  0.00    -0.043 SA
BRANCH   6   7
ATOM      7  C   UNL d   1      61.172  48.013  49.765  0.00  0.00     0.101 C 
BRANCH   7   8
ATOM      8  C   UNL d   1      61.497  47.265  49.629  0.00  0.00     0.286 C 
ATOM      9  N   UNL d   1      61.170  46.608  50.008  0.00  0.00    -0.205 NA
ATOM     10  O   UNL d   1      62.138  47.174  49.124  0.00  0.00    -0.265 OA
BRANCH   9  11
ATOM     11  C   UNL d   1      61.487  45.873  49.877  0.00  0.00     0.112 A 
ATOM     12  C   UNL d   1      61.096  45.208  50.168  0.00  0.00     0.158 A 
ATOM     13  F   UNL d   1      60.387  45.286  50.591  0.00  0.00    -0.203 F 
ATOM     14  C   UNL d   1      61.404  44.454  50.044  0.00  0.00     0.031 A 
ATOM     15  C   UNL d   1      62.116  44.374  49.620  0.00  0.00     0.002 A 
ATOM     16  C   UNL d   1      62.505  45.042  49.330  0.00  0.00     0.002 A 
ATOM     17  C   UNL d   1      62.184  45.794  49.461  0.00  0.00     0.021 A 
ENDBRANCH   9  11
ENDBRANCH   7   8
ENDBRANCH   6   7
ENDBRANCH   3   6
BRANCH   1  18
ATOM     18  C   UNL d   1      59.785  49.422  51.280  0.00  0.00     0.084 C 
BRANCH  18  19
ATOM     19  C   UNL d   1      60.601  49.583  51.339  0.00  0.00     0.019 C 
BRANCH  19  20
ATOM     20  C   UNL d   1      60.965  49.622  52.083  0.00  0.00     0.002 A 
ATOM     21  C   UNL d   1      60.502  49.615  52.758  0.00  0.00     0.000 A 
ATOM     22  C   UNL d   1      60.867  49.654  53.496  0.00  0.00     0.000 A 
ATOM     23  C   UNL d   1      61.694  49.699  53.547  0.00  0.00     0.000 A 
ATOM     24  C   UNL d   1      62.155  49.706  52.860  0.00  0.00     0.000 A 
ATOM     25  C   UNL d   1      61.779  49.666  52.127  0.00  0.00     0.000 A 
ENDBRANCH  19  20
ENDBRANCH  18  19
ENDBRANCH   1  18
BRANCH   2  26
ATOM     26  C   UNL d   1      58.191  49.704  50.501  0.00  0.00     0.057 C 
BRANCH  26  27
ATOM     27  C   UNL d   1      57.391  49.534  50.423  0.00  0.00     0.067 A 
ATOM     28  N   UNL d   1      56.957  49.529  49.720  0.00  0.00    -0.303 N 
ATOM     29  C   UNL d   1      56.176  49.329  49.901  0.00  0.00     0.080 A 
ATOM     30  C   UNL d   1      57.256  49.694  48.971  0.00  0.00     0.100 C 
ATOM     31  C   UNL d   1      56.123  49.211  50.714  0.00  0.00     0.021 A 
ATOM     32  C   UNL d   1      56.869  49.336  51.038  0.00  0.00     0.019 A 
ENDBRANCH  26  27
ENDBRANCH   2  26
TORSDOF 9
ENDMDL
