MODEL 1
REMARK VINA RESULT:      48.6      0.000      0.000
REMARK  4 active torsions:
REMARK  status: ('A' for Active; 'I' for Inactive)
REMARK    1  A    between atoms: C_2  and  N_1 
REMARK       I    between atoms: C_3  and  N_1 
REMARK    2  A    between atoms: N_4  and  C_2 
REMARK    3  A    between atoms: C_7  and  C_3 
REMARK    4  A    between atoms: C_8  and  N_4 
ROOT
ATOM      1  C   UNL d   1     -49.269  27.766  34.111  0.00  0.00     0.179 C 
ATOM      2  S   UNL d   1     -49.629  28.482  33.906  0.00  0.00    -0.040 SA
ENDROOT
BRANCH   1   3
ATOM      3  N   UNL d   1     -49.672  27.052  34.010  0.00  0.00    -0.299 N 
ATOM      4  C   UNL d   1     -50.385  27.056  33.616  0.00  0.00     0.259 C 
ATOM      5  O   UNL d   1     -50.702  27.761  33.320  0.00  0.00    -0.267 OA
ATOM      6  H   UNL d   1     -49.359  26.358  34.302  0.00  0.00     0.171 HD
BRANCH   4   7
ATOM      7  C   UNL d   1     -50.797  26.336  33.511  0.00  0.00     0.056 A 
ATOM      8  C   UNL d   1     -51.606  26.342  33.410  0.00  0.00     0.005 A 
ATOM      9  C   UNL d   1     -52.019  25.635  33.306  0.00  0.00     0.000 A 
ATOM     10  C   UNL d   1     -51.603  24.922  33.306  0.00  0.00     0.000 A 
ATOM     11  C   UNL d   1     -50.793  24.916  33.407  0.00  0.00     0.000 A 
ATOM     12  C   UNL d   1     -50.381  25.623  33.510  0.00  0.00     0.005 A 
ENDBRANCH   4   7
ENDBRANCH   1   3
BRANCH   1  13
ATOM     13  N   UNL d   1     -48.503  27.757  34.418  0.00  0.00    -0.332 N 
ATOM     14  H   UNL d   1     -48.019  27.110  34.301  0.00  0.00     0.168 HD
BRANCH  13  15
ATOM     15  C   UNL d   1     -48.236  28.407  34.840  0.00  0.00     0.058 A 
ATOM     16  C   UNL d   1     -47.936  29.071  34.447  0.00  0.00     0.018 A 
ATOM     17  C   UNL d   1     -47.674  29.712  34.888  0.00  0.00     0.013 A 
ATOM     18  C   UNL d   1     -47.700  29.710  35.704  0.00  0.00     0.058 A 
ATOM     19  C   UNL d   1     -48.000  29.046  36.098  0.00  0.00     0.013 A 
ATOM     20 CL   UNL d   1     -47.439  30.348  36.140  0.00  0.00    -0.082 Cl
ATOM     21  C   UNL d   1     -48.268  28.393  35.670  0.00  0.00     0.018 A 
ENDBRANCH  13  15
ENDBRANCH   1  13
TORSDOF 4
ENDMDL
MODEL 2
REMARK VINA RESULT:      48.8      2.801      5.253
REMARK  4 active torsions:
REMARK  status: ('A' for Active; 'I' for Inactive)
REMARK    1  A    between atoms: C_2  and  N_1 
REMARK       I    between atoms: C_3  and  N_1 
REMARK    2  A    between atoms: N_4  and  C_2 
REMARK    3  A    between atoms: C_7  and  C_3 
REMARK    4  A    between atoms: C_8  and  N_4 
ROOT
ATOM      1  C   UNL d   1     -51.468  25.947  33.575  0.00  0.00     0.179 C 
ATOM      2  S   UNL d   1     -52.207  26.310  33.662  0.00  0.00    -0.040 SA
ENDROOT
BRANCH   1   3
ATOM      3  N   UNL d   1     -50.777  26.360  33.756  0.00  0.00    -0.299 N 
ATOM      4  C   UNL d   1     -50.665  26.622  34.520  0.00  0.00     0.259 C 
ATOM      5  O   UNL d   1     -51.232  26.478  35.105  0.00  0.00    -0.267 OA
ATOM      6  H   UNL d   1     -50.218  26.502  33.179  0.00  0.00     0.171 HD
BRANCH   4   7
ATOM      7  C   UNL d   1     -49.967  27.040  34.709  0.00  0.00     0.056 A 
ATOM      8  C   UNL d   1     -49.302  26.956  34.243  0.00  0.00     0.005 A 
ATOM      9  C   UNL d   1     -48.610  27.367  34.426  0.00  0.00     0.000 A 
ATOM     10  C   UNL d   1     -48.598  27.864  35.084  0.00  0.00     0.000 A 
ATOM     11  C   UNL d   1     -49.262  27.949  35.550  0.00  0.00     0.000 A 
ATOM     12  C   UNL d   1     -49.954  27.538  35.367  0.00  0.00     0.005 A 
ENDBRANCH   4   7
ENDBRANCH   1   3
BRANCH   1  13
ATOM     13  N   UNL d   1     -51.415  25.169  33.306  0.00  0.00    -0.332 N 
ATOM     14  H   UNL d   1     -50.717  24.889  32.989  0.00  0.00     0.168 HD
BRANCH  13  15
ATOM     15  C   UNL d   1     -52.072  24.682  33.362  0.00  0.00     0.058 A 
ATOM     16  C   UNL d   1     -52.831  25.005  33.435  0.00  0.00     0.018 A 
ATOM     17  C   UNL d   1     -53.476  24.500  33.490  0.00  0.00     0.013 A 
ATOM     18  C   UNL d   1     -53.388  23.689  33.473  0.00  0.00     0.058 A 
ATOM     19  C   UNL d   1     -52.629  23.365  33.400  0.00  0.00     0.013 A 
ATOM     20 CL   UNL d   1     -54.031  23.189  33.528  0.00  0.00    -0.082 Cl
ATOM     21  C   UNL d   1     -51.970  23.858  33.344  0.00  0.00     0.018 A 
ENDBRANCH  13  15
ENDBRANCH   1  13
TORSDOF 4
ENDMDL
MODEL 3
REMARK VINA RESULT:      49.2      2.028      4.736
REMARK  4 active torsions:
REMARK  status: ('A' for Active; 'I' for Inactive)
REMARK    1  A    between atoms: C_2  and  N_1 
REMARK       I    between atoms: C_3  and  N_1 
REMARK    2  A    between atoms: N_4  and  C_2 
REMARK    3  A    between atoms: C_7  and  C_3 
REMARK    4  A    between atoms: C_8  and  N_4 
ROOT
ATOM      1  C   UNL d   1     -49.416  27.370  34.343  0.00  0.00     0.179 C 
ATOM      2  S   UNL d   1     -49.544  26.851  34.975  0.00  0.00    -0.040 SA
ENDROOT
BRANCH   1   3
ATOM      3  N   UNL d   1     -48.856  27.974  34.407  0.00  0.00    -0.299 N 
ATOM      4  C   UNL d   1     -48.715  28.304  35.139  0.00  0.00     0.259 C 
ATOM      5  O   UNL d   1     -49.124  28.040  35.808  0.00  0.00    -0.267 OA
ATOM      6  H   UNL d   1     -48.453  28.234  33.747  0.00  0.00     0.171 HD
BRANCH   4   7
ATOM      7  C   UNL d   1     -48.150  28.915  35.209  0.00  0.00     0.056 A 
ATOM      8  C   UNL d   1     -47.355  28.744  35.144  0.00  0.00     0.005 A 
ATOM      9  C   UNL d   1     -46.793  29.344  35.213  0.00  0.00     0.000 A 
ATOM     10  C   UNL d   1     -47.043  30.119  35.348  0.00  0.00     0.000 A 
ATOM     11  C   UNL d   1     -47.838  30.289  35.413  0.00  0.00     0.000 A 
ATOM     12  C   UNL d   1     -48.401  29.689  35.344  0.00  0.00     0.005 A 
ENDBRANCH   4   7
ENDBRANCH   1   3
BRANCH   1  13
ATOM     13  N   UNL d   1     -49.845  27.290  33.643  0.00  0.00    -0.332 N 
ATOM     14  H   UNL d   1     -49.763  27.838  33.044  0.00  0.00     0.168 HD
BRANCH  13  15
ATOM     15  C   UNL d   1     -50.354  26.653  33.559  0.00  0.00     0.058 A 
ATOM     16  C   UNL d   1     -50.058  25.881  33.509  0.00  0.00     0.018 A 
ATOM     17  C   UNL d   1     -50.585  25.257  33.425  0.00  0.00     0.013 A 
ATOM     18  C   UNL d   1     -51.392  25.378  33.389  0.00  0.00     0.058 A 
ATOM     19  C   UNL d   1     -51.687  26.150  33.440  0.00  0.00     0.013 A 
ATOM     20 CL   UNL d   1     -51.913  24.756  33.306  0.00  0.00    -0.082 Cl
ATOM     21  C   UNL d   1     -51.173  26.789  33.525  0.00  0.00     0.018 A 
ENDBRANCH  13  15
ENDBRANCH   1  13
TORSDOF 4
ENDMDL
MODEL 4
REMARK VINA RESULT:      49.4      3.290      5.457
REMARK  4 active torsions:
REMARK  status: ('A' for Active; 'I' for Inactive)
REMARK    1  A    between atoms: C_2  and  N_1 
REMARK       I    between atoms: C_3  and  N_1 
REMARK    2  A    between atoms: N_4  and  C_2 
REMARK    3  A    between atoms: C_7  and  C_3 
REMARK    4  A    between atoms: C_8  and  N_4 
ROOT
ATOM      1  C   UNL d   1     -47.286  30.669  35.529  0.00  0.00     0.179 C 
ATOM      2  S   UNL d   1     -47.148  30.913  36.308  0.00  0.00    -0.040 SA
ENDROOT
BRANCH   1   3
ATOM      3  N   UNL d   1     -47.594  31.197  34.975  0.00  0.00    -0.299 N 
ATOM      4  C   UNL d   1     -47.315  31.963  34.965  0.00  0.00     0.259 C 
ATOM      5  O   UNL d   1     -46.734  32.210  35.501  0.00  0.00    -0.267 OA
ATOM      6  H   UNL d   1     -48.167  30.955  34.447  0.00  0.00     0.171 HD
BRANCH   4   7
ATOM      7  C   UNL d   1     -47.623  32.503  34.406  0.00  0.00     0.056 A 
ATOM      8  C   UNL d   1     -48.420  32.677  34.405  0.00  0.00     0.005 A 
ATOM      9  C   UNL d   1     -48.730  33.209  33.855  0.00  0.00     0.000 A 
ATOM     10  C   UNL d   1     -48.224  33.563  33.307  0.00  0.00     0.000 A 
ATOM     11  C   UNL d   1     -47.427  33.389  33.309  0.00  0.00     0.000 A 
ATOM     12  C   UNL d   1     -47.118  32.857  33.858  0.00  0.00     0.005 A 
ENDBRANCH   4   7
ENDBRANCH   1   3
BRANCH   1  13
ATOM     13  N   UNL d   1     -47.118  29.895  35.298  0.00  0.00    -0.332 N 
ATOM     14  H   UNL d   1     -46.397  29.712  34.962  0.00  0.00     0.168 HD
BRANCH  13  15
ATOM     15  C   UNL d   1     -47.685  29.313  35.411  0.00  0.00     0.058 A 
ATOM     16  C   UNL d   1     -48.047  29.216  36.149  0.00  0.00     0.018 A 
ATOM     17  C   UNL d   1     -48.613  28.628  36.242  0.00  0.00     0.013 A 
ATOM     18  C   UNL d   1     -48.827  28.138  35.625  0.00  0.00     0.058 A 
ATOM     19  C   UNL d   1     -48.464  28.235  34.887  0.00  0.00     0.013 A 
ATOM     20 CL   UNL d   1     -49.389  27.554  35.720  0.00  0.00    -0.082 Cl
ATOM     21  C   UNL d   1     -47.894  28.821  34.776  0.00  0.00     0.018 A 
ENDBRANCH  13  15
ENDBRANCH   1  13
TORSDOF 4
ENDMDL
