MODEL 1
REMARK VINA RESULT:      -8.2      0.000      0.000
REMARK  2 active torsions:
REMARK  status: ('A' for Active; 'I' for Inactive)
REMARK    1  A    between atoms: C_7  and  C_2 
REMARK    2  A    between atoms: C_5  and  C_7 
ROOT
ATOM      1  C   UNL d   1     -48.639  12.613  22.264  0.00  0.00     0.021 A 
ATOM      2  N   UNL d   1     -49.028  13.154  21.119  0.00  0.00    -0.244 NA
ATOM      3  C   UNL d   1     -48.374  12.884  21.538  0.00  0.00     0.099 A 
ATOM      4  C   UNL d   1     -49.450  12.713  22.296  0.00  0.00     0.019 A 
ATOM      5  C   UNL d   1     -49.692  13.048  21.587  0.00  0.00     0.081 A 
ATOM      6  C   UNL d   1     -50.008  12.540  22.885  0.00  0.00     0.002 A 
ATOM      7  C   UNL d   1     -50.492  13.214  21.459  0.00  0.00     0.019 A 
ATOM      8  C   UNL d   1     -50.807  12.704  22.763  0.00  0.00     0.000 A 
ATOM      9  C   UNL d   1     -51.051  13.042  22.049  0.00  0.00     0.002 A 
ENDROOT
BRANCH   1  10
ATOM     10  C   UNL d   1     -48.158  12.292  22.860  0.00  0.00     0.011 C 
BRANCH  10  11
ATOM     11  C   UNL d   1     -47.439  12.650  23.044  0.00  0.00     0.062 A 
ATOM     12  C   UNL d   1     -46.859  12.220  23.444  0.00  0.00     0.145 A 
ATOM     13  N   UNL d   1     -46.209  12.719  23.549  0.00  0.00    -0.191 NA
ATOM     14  S   UNL d   1     -46.919  11.427  23.697  0.00  0.00    -0.057 SA
ATOM     15  C   UNL d   1     -46.380  13.441  23.222  0.00  0.00     0.311 A 
ATOM     16  S   UNL d   1     -47.142  13.404  22.907  0.00  0.00    -0.023 SA
ATOM     17  O   UNL d   1     -45.868  14.099  23.211  0.00  0.00    -0.258 OA
ENDBRANCH  10  11
ENDBRANCH   1  10
TORSDOF 2
ENDMDL
MODEL 2
REMARK VINA RESULT:      -8.1      1.223      1.524
REMARK  2 active torsions:
REMARK  status: ('A' for Active; 'I' for Inactive)
REMARK    1  A    between atoms: C_7  and  C_2 
REMARK    2  A    between atoms: C_5  and  C_7 
ROOT
ATOM      1  C   UNL d   1     -48.626  12.608  22.874  0.00  0.00     0.021 A 
ATOM      2  N   UNL d   1     -49.333  11.524  22.593  0.00  0.00    -0.244 NA
ATOM      3  C   UNL d   1     -48.574  11.839  22.594  0.00  0.00     0.099 A 
ATOM      4  C   UNL d   1     -49.410  12.769  23.044  0.00  0.00     0.019 A 
ATOM      5  C   UNL d   1     -49.849  12.097  22.871  0.00  0.00     0.081 A 
ATOM      6  C   UNL d   1     -49.786  13.446  23.339  0.00  0.00     0.002 A 
ATOM      7  C   UNL d   1     -50.668  12.096  22.989  0.00  0.00     0.019 A 
ATOM      8  C   UNL d   1     -50.602  13.451  23.459  0.00  0.00     0.000 A 
ATOM      9  C   UNL d   1     -51.045  12.774  23.284  0.00  0.00     0.002 A 
ENDROOT
BRANCH   1  10
ATOM     10  C   UNL d   1     -47.985  13.129  22.964  0.00  0.00     0.011 C 
BRANCH  10  11
ATOM     11  C   UNL d   1     -47.235  12.831  23.134  0.00  0.00     0.062 A 
ATOM     12  C   UNL d   1     -46.576  13.321  23.065  0.00  0.00     0.145 A 
ATOM     13  N   UNL d   1     -45.912  12.874  23.269  0.00  0.00    -0.191 NA
ATOM     14  S   UNL d   1     -46.578  14.123  22.833  0.00  0.00    -0.057 SA
ATOM     15  C   UNL d   1     -46.153  12.123  23.460  0.00  0.00     0.311 A 
ATOM     16  S   UNL d   1     -46.974  12.091  23.378  0.00  0.00    -0.023 SA
ATOM     17  O   UNL d   1     -45.651  11.501  23.696  0.00  0.00    -0.258 OA
ENDBRANCH  10  11
ENDBRANCH   1  10
TORSDOF 2
ENDMDL
MODEL 3
REMARK VINA RESULT:      -7.6      2.236      3.834
REMARK  2 active torsions:
REMARK  status: ('A' for Active; 'I' for Inactive)
REMARK    1  A    between atoms: C_7  and  C_2 
REMARK    2  A    between atoms: C_5  and  C_7 
ROOT
ATOM      1  C   UNL d   1     -48.270  13.808  23.012  0.00  0.00     0.021 A 
ATOM      2  N   UNL d   1     -47.980  12.522  23.139  0.00  0.00    -0.244 NA
ATOM      3  C   UNL d   1     -48.594  13.067  23.146  0.00  0.00     0.099 A 
ATOM      4  C   UNL d   1     -47.461  13.723  22.923  0.00  0.00     0.019 A 
ATOM      5  C   UNL d   1     -47.280  12.926  23.001  0.00  0.00     0.081 A 
ATOM      6  C   UNL d   1     -46.858  14.273  22.778  0.00  0.00     0.002 A 
ATOM      7  C   UNL d   1     -46.496  12.671  22.936  0.00  0.00     0.019 A 
ATOM      8  C   UNL d   1     -46.074  14.025  22.713  0.00  0.00     0.000 A 
ATOM      9  C   UNL d   1     -45.892  13.222  22.792  0.00  0.00     0.002 A 
ENDROOT
BRANCH   1  10
ATOM     10  C   UNL d   1     -48.698  14.518  22.975  0.00  0.00     0.011 C 
BRANCH  10  11
ATOM     11  C   UNL d   1     -49.432  14.536  22.601  0.00  0.00     0.062 A 
ATOM     12  C   UNL d   1     -49.993  15.097  22.828  0.00  0.00     0.145 A 
ATOM     13  N   UNL d   1     -50.664  14.979  22.361  0.00  0.00    -0.191 NA
ATOM     14  S   UNL d   1     -49.899  15.677  23.421  0.00  0.00    -0.057 SA
ATOM     15  C   UNL d   1     -50.525  14.361  21.856  0.00  0.00     0.311 A 
ATOM     16  S   UNL d   1     -49.761  14.082  22.000  0.00  0.00    -0.023 SA
ATOM     17  O   UNL d   1     -51.064  14.066  21.293  0.00  0.00    -0.258 OA
ENDBRANCH  10  11
ENDBRANCH   1  10
TORSDOF 2
ENDMDL
