MODEL 1
REMARK VINA RESULT:      -3.2      0.000      0.000
REMARK  3 active torsions:
REMARK  status: ('A' for Active; 'I' for Inactive)
REMARK    1  A    between atoms: N_2  and  S_1 
REMARK    2  A    between atoms: C_3  and  S_1 
REMARK    3  A    between atoms: C_10  and  C_9 
ROOT
ATOM      1  C   UNL d   1      57.874  -0.050  29.895  0.00  0.00     0.104 A 
ATOM      2  C   UNL d   1      57.063  -0.040  31.341  0.00  0.00     0.000 A 
ATOM      3  C   UNL d   1      57.669  -0.761  30.259  0.00  0.00     0.013 A 
ATOM      4  C   UNL d   1      57.674   0.664  30.251  0.00  0.00     0.013 A 
ATOM      5  C   UNL d   1      57.267   0.670  30.978  0.00  0.00     0.001 A 
ATOM      6  C   UNL d   1      57.262  -0.755  30.985  0.00  0.00     0.001 A 
ENDROOT
BRANCH   1   7
ATOM      7  S   UNL d   1      58.277  -0.061  29.175  0.00  0.00     0.271 S 
ATOM      8  O   UNL d   1      57.564  -0.078  28.770  0.00  0.00    -0.200 OA
ATOM      9  O   UNL d   1      58.674  -0.071  28.461  0.00  0.00    -0.200 OA
BRANCH   7  10
ATOM     10  N   UNL d   1      58.987  -0.044  29.578  0.00  0.00    -0.226 N 
ATOM     11  C   UNL d   1      59.450  -0.723  29.628  0.00  0.00     0.111 A 
ATOM     12  C   UNL d   1      60.166  -0.694  30.038  0.00  0.00     0.100 A 
ATOM     13  N   UNL d   1      60.416   0.002  30.394  0.00  0.00    -0.299 N 
ATOM     14  C   UNL d   1      59.957   0.682  30.347  0.00  0.00     0.100 A 
ATOM     15  C   UNL d   1      61.133   0.019  30.801  0.00  0.00     0.100 C 
ATOM     16  C   UNL d   1      59.236   0.665  29.937  0.00  0.00     0.111 A 
ENDBRANCH   7  10
ENDBRANCH   1   7
BRANCH   2  17
ATOM     17  C   UNL d   1      56.664  -0.039  32.053  0.00  0.00     0.000 A 
ATOM     18  C   UNL d   1      56.690   0.628  32.547  0.00  0.00     0.000 A 
ATOM     19  C   UNL d   1      56.285   0.623  33.265  0.00  0.00     0.000 A 
ATOM     20  C   UNL d   1      55.856  -0.041  33.492  0.00  0.00     0.000 A 
ATOM     21  C   UNL d   1      55.827  -0.712  32.999  0.00  0.00     0.000 A 
ATOM     22  C   UNL d   1      55.451  -0.045  34.211  0.00  0.00     0.000 C 
ATOM     23  C   UNL d   1      56.233  -0.704  32.281  0.00  0.00     0.000 A 
ENDBRANCH   2  17
TORSDOF 3
ENDMDL
MODEL 2
REMARK VINA RESULT:      -2.4      9.402     10.163
REMARK  3 active torsions:
REMARK  status: ('A' for Active; 'I' for Inactive)
REMARK    1  A    between atoms: N_2  and  S_1 
REMARK    2  A    between atoms: C_3  and  S_1 
REMARK    3  A    between atoms: C_10  and  C_9 
ROOT
ATOM      1  C   UNL d   1      60.180  -9.231  34.632  0.00  0.00     0.104 A 
ATOM      2  C   UNL d   1      59.226  -9.430  33.291  0.00  0.00     0.000 A 
ATOM      3  C   UNL d   1      60.452  -8.991  33.892  0.00  0.00     0.013 A 
ATOM      4  C   UNL d   1      59.433  -9.569  34.703  0.00  0.00     0.013 A 
ATOM      5  C   UNL d   1      58.953  -9.669  34.029  0.00  0.00     0.001 A 
ATOM      6  C   UNL d   1      59.973  -9.091  33.218  0.00  0.00     0.001 A 
ENDROOT
BRANCH   1   7
ATOM      7  S   UNL d   1      60.658  -9.130  35.297  0.00  0.00     0.271 S 
ATOM      8  O   UNL d   1      61.065  -9.818  35.114  0.00  0.00    -0.200 OA
ATOM      9  O   UNL d   1      61.133  -9.033  35.954  0.00  0.00    -0.200 OA
BRANCH   7  10
ATOM     10  N   UNL d   1      60.252  -8.445  35.478  0.00  0.00    -0.226 N 
ATOM     11  C   UNL d   1      59.522  -8.485  35.859  0.00  0.00     0.111 A 
ATOM     12  C   UNL d   1      59.122  -7.786  36.037  0.00  0.00     0.100 A 
ATOM     13  N   UNL d   1      59.443  -7.057  35.840  0.00  0.00    -0.299 N 
ATOM     14  C   UNL d   1      60.170  -7.012  35.460  0.00  0.00     0.100 A 
ATOM     15  C   UNL d   1      59.033  -6.365  36.023  0.00  0.00     0.100 C 
ATOM     16  C   UNL d   1      60.583  -7.709  35.275  0.00  0.00     0.111 A 
ENDBRANCH   7  10
ENDBRANCH   1   7
BRANCH   2  17
ATOM     17  C   UNL d   1      58.759  -9.526  32.627  0.00  0.00     0.000 A 
ATOM     18  C   UNL d   1      57.932  -9.526  32.694  0.00  0.00     0.000 A 
ATOM     19  C   UNL d   1      57.465  -9.623  32.021  0.00  0.00     0.000 A 
ATOM     20  C   UNL d   1      57.819  -9.720  31.285  0.00  0.00     0.000 A 
ATOM     21  C   UNL d   1      58.650  -9.720  31.213  0.00  0.00     0.000 A 
ATOM     22  C   UNL d   1      57.352  -9.817  30.611  0.00  0.00     0.000 C 
ATOM     23  C   UNL d   1      59.114  -9.623  31.889  0.00  0.00     0.000 A 
ENDBRANCH   2  17
TORSDOF 3
ENDMDL
