MODEL 1
REMARK VINA RESULT:      32.5      0.000      0.000
REMARK  6 active torsions:
REMARK  status: ('A' for Active; 'I' for Inactive)
REMARK       I    between atoms: C_5  and  N_1 
REMARK    1  A    between atoms: C_10  and  C_5 
REMARK    2  A    between atoms: C_7  and  C_13 
REMARK       I    between atoms: N_8  and  C_7 
REMARK    3  A    between atoms: C_12  and  N_8 
REMARK    4  A    between atoms: C_13  and  C_10 
REMARK    5  A    between atoms: O_20  and  C_14 
REMARK    6  A    between atoms: C_22  and  O_20 
ROOT
ATOM      1  C   UNL d   1      13.212  12.599  -4.301  0.00  0.00     0.279 C 
ATOM      2  N   UNL d   1      13.045  13.311  -4.663  0.00  0.00    -0.208 NA
ATOM      3  O   UNL d   1      12.874  11.889  -4.589  0.00  0.00    -0.265 OA
ENDROOT
BRANCH   1   4
ATOM      4  C   UNL d   1      13.708  12.579  -3.661  0.00  0.00     0.068 C 
BRANCH   4   5
ATOM      5  C   UNL d   1      13.747  11.910  -3.186  0.00  0.00     0.068 C 
BRANCH   5   6
ATOM      6  C   UNL d   1      14.295  11.869  -2.570  0.00  0.00     0.281 C 
ATOM      7  N   UNL d   1      14.027  11.841  -1.781  0.00  0.00    -0.195 N 
ATOM      8  N   UNL d   1      13.282  11.846  -1.446  0.00  0.00    -0.163 NA
ATOM      9  C   UNL d   1      14.578  11.800  -1.171  0.00  0.00     0.088 A 
ATOM     10  C   UNL d   1      13.370  11.807  -0.609  0.00  0.00     0.103 A 
ATOM     11  C   UNL d   1      12.771  11.797  -0.038  0.00  0.00     0.022 C 
ATOM     12  C   UNL d   1      14.167  11.779  -0.458  0.00  0.00     0.040 A 
ATOM     13  C   UNL d   1      15.407  11.781  -1.248  0.00  0.00     0.021 C 
ATOM     14  O   UNL d   1      15.106  11.855  -2.737  0.00  0.00    -0.265 OA
ENDBRANCH   5   6
ENDBRANCH   4   5
ENDBRANCH   1   4
BRANCH   2  15
ATOM     15  C   UNL d   1      13.380  14.010  -4.377  0.00  0.00     0.085 A 
ATOM     16  C   UNL d   1      12.931  14.524  -3.899  0.00  0.00     0.021 A 
ATOM     17  C   UNL d   1      13.266  15.224  -3.612  0.00  0.00     0.026 A 
ATOM     18  C   UNL d   1      14.034  15.406  -3.800  0.00  0.00     0.100 A 
ATOM     19  C   UNL d   1      14.487  14.897  -4.277  0.00  0.00     0.026 A 
ATOM     20  C   UNL d   1      14.161  14.201  -4.565  0.00  0.00     0.021 A 
BRANCH  18  21
ATOM     21  O   UNL d   1      14.356  16.112  -3.505  0.00  0.00    -0.305 OA
BRANCH  21  22
ATOM     22  C   UNL d   1      14.598  16.165  -2.727  0.00  0.00     0.123 C 
ATOM     23  C   UNL d   1      14.942  16.854  -2.446  0.00  0.00     0.029 C 
ENDBRANCH  21  22
ENDBRANCH  18  21
ENDBRANCH   2  15
TORSDOF 6
ENDMDL
MODEL 2
REMARK VINA RESULT:      34.8      1.289      3.880
REMARK  6 active torsions:
REMARK  status: ('A' for Active; 'I' for Inactive)
REMARK       I    between atoms: C_5  and  N_1 
REMARK    1  A    between atoms: C_10  and  C_5 
REMARK    2  A    between atoms: C_7  and  C_13 
REMARK       I    between atoms: N_8  and  C_7 
REMARK    3  A    between atoms: C_12  and  N_8 
REMARK    4  A    between atoms: C_13  and  C_10 
REMARK    5  A    between atoms: O_20  and  C_14 
REMARK    6  A    between atoms: C_22  and  O_20 
ROOT
ATOM      1  C   UNL d   1      13.212  12.458  -3.922  0.00  0.00     0.279 C 
ATOM      2  N   UNL d   1      13.297  11.781  -3.474  0.00  0.00    -0.208 NA
ATOM      3  O   UNL d   1      12.892  12.415  -4.694  0.00  0.00    -0.265 OA
ENDROOT
BRANCH   1   4
ATOM      4  C   UNL d   1      13.438  13.173  -3.616  0.00  0.00     0.068 C 
BRANCH   4   5
ATOM      5  C   UNL d   1      13.032  13.858  -3.819  0.00  0.00     0.068 C 
BRANCH   5   6
ATOM      6  C   UNL d   1      13.423  14.475  -4.203  0.00  0.00     0.281 C 
ATOM      7  N   UNL d   1      13.860  15.028  -3.758  0.00  0.00    -0.195 N 
ATOM      8  N   UNL d   1      14.003  15.108  -2.957  0.00  0.00    -0.163 NA
ATOM      9  C   UNL d   1      14.248  15.641  -4.146  0.00  0.00     0.088 A 
ATOM     10  C   UNL d   1      14.492  15.785  -2.844  0.00  0.00     0.103 A 
ATOM     11  C   UNL d   1      14.781  16.086  -2.130  0.00  0.00     0.022 C 
ATOM     12  C   UNL d   1      14.631  16.099  -3.579  0.00  0.00     0.040 A 
ATOM     13  C   UNL d   1      14.259  15.784  -4.966  0.00  0.00     0.021 C 
ATOM     14  O   UNL d   1      13.381  14.543  -5.028  0.00  0.00    -0.265 OA
ENDBRANCH   5   6
ENDBRANCH   4   5
ENDBRANCH   1   4
BRANCH   2  15
ATOM     15  C   UNL d   1      13.613  11.825  -2.711  0.00  0.00     0.085 A 
ATOM     16  C   UNL d   1      14.434  11.914  -2.603  0.00  0.00     0.021 A 
ATOM     17  C   UNL d   1      14.750  11.959  -1.840  0.00  0.00     0.026 A 
ATOM     18  C   UNL d   1      14.255  11.914  -1.199  0.00  0.00     0.100 A 
ATOM     19  C   UNL d   1      13.434  11.825  -1.300  0.00  0.00     0.026 A 
ATOM     20  C   UNL d   1      13.113  11.780  -2.055  0.00  0.00     0.021 A 
BRANCH  18  21
ATOM     21  O   UNL d   1      14.588  11.960  -0.439  0.00  0.00    -0.305 OA
BRANCH  21  22
ATOM     22  C   UNL d   1      15.172  12.507  -0.274  0.00  0.00     0.123 C 
ATOM     23  C   UNL d   1      14.973  13.259  -0.014  0.00  0.00     0.029 C 
ENDBRANCH  21  22
ENDBRANCH  18  21
ENDBRANCH   2  15
TORSDOF 6
ENDMDL
