MODEL 1
REMARK VINA RESULT:      -2.2      0.000      0.000
REMARK  6 active torsions:
REMARK  status: ('A' for Active; 'I' for Inactive)
REMARK    1  A    between atoms: N_2  and  S_1 
REMARK    2  A    between atoms: C_7  and  S_1 
REMARK    3  A    between atoms: C_3  and  N_2 
REMARK    4  A    between atoms: C_4  and  C_3 
REMARK    5  A    between atoms: N_5  and  C_4 
REMARK    6  A    between atoms: C_6  and  C_4 
ROOT
ATOM      1  C   UNL d   1      58.526  -0.002  29.814  0.00  0.00     0.110 C 
ATOM      2  C   UNL d   1      58.242   0.461  29.193  0.00  0.00     0.023 C 
ENDROOT
BRANCH   1   3
ATOM      3  N   UNL d   1      58.093  -0.071  30.505  0.00  0.00    -0.157 NA
BRANCH   3   4
ATOM      4  S   UNL d   1      57.339   0.252  30.564  0.00  0.00     0.285 S 
ATOM      5  O   UNL d   1      56.743   0.674  30.178  0.00  0.00    -0.198 OA
ATOM      6  O   UNL d   1      57.448   0.505  29.781  0.00  0.00    -0.198 OA
BRANCH   4   7
ATOM      7  C   UNL d   1      57.167   0.032  31.336  0.00  0.00     0.105 A 
ATOM      8  C   UNL d   1      56.783  -0.693  31.482  0.00  0.00     0.013 A 
ATOM      9  C   UNL d   1      56.612  -0.910  32.262  0.00  0.00     0.007 A 
ATOM     10  C   UNL d   1      56.819  -0.417  32.888  0.00  0.00     0.035 A 
ATOM     11  C   UNL d   1      57.199   0.300  32.743  0.00  0.00     0.007 A 
ATOM     12 BR   UNL d   1      56.644  -0.642  33.670  0.00  0.00    -0.049 Br
ATOM     13  C   UNL d   1      57.374   0.525  31.961  0.00  0.00     0.013 A 
ENDBRANCH   4   7
ENDBRANCH   3   4
ENDBRANCH   1   3
BRANCH   1  14
ATOM     14  C   UNL d   1      59.245  -0.394  29.738  0.00  0.00     0.089 C 
BRANCH  14  15
ATOM     15  N   UNL d   1      59.268  -1.159  29.441  0.00  0.00    -0.300 N 
ATOM     16  C   UNL d   1      58.854  -1.350  28.754  0.00  0.00     0.100 A 
ATOM     17  C   UNL d   1      58.879  -2.122  28.456  0.00  0.00     0.100 A 
ATOM     18  N   UNL d   1      59.314  -2.702  28.841  0.00  0.00    -0.299 N 
ATOM     19  C   UNL d   1      59.731  -2.511  29.532  0.00  0.00     0.100 A 
ATOM     20  C   UNL d   1      59.336  -3.475  28.539  0.00  0.00     0.100 C 
ATOM     21  C   UNL d   1      59.707  -1.747  29.829  0.00  0.00     0.100 A 
ENDBRANCH  14  15
BRANCH  14  22
ATOM     22  C   UNL d   1      59.943  -0.018  29.961  0.00  0.00     0.047 A 
ATOM     23  S   UNL d   1      60.454   0.401  29.461  0.00  0.00    -0.085 SA
ATOM     24  C   UNL d   1      61.080   0.682  29.921  0.00  0.00     0.035 A 
ATOM     25  C   UNL d   1      60.967   0.446  30.696  0.00  0.00     0.007 A 
ATOM     26  C   UNL d   1      60.260   0.009  30.724  0.00  0.00     0.009 A 
ENDBRANCH  14  22
ENDBRANCH   1  14
TORSDOF 6
ENDMDL
