MODEL 1
REMARK VINA RESULT:      81.3      0.000      0.000
REMARK  5 active torsions:
REMARK  status: ('A' for Active; 'I' for Inactive)
REMARK    1  A    between atoms: N_6  and  S_1 
REMARK    2  A    between atoms: C_7  and  S_1 
REMARK    3  A    between atoms: C_9  and  C_2 
REMARK       I    between atoms: N_16  and  C_9 
REMARK    4  A    between atoms: C_26  and  N_16 
REMARK    5  A    between atoms: C_18  and  C_26 
ROOT
ATOM      1  C   UNL d   1     -49.067  27.683  35.119  0.00  0.00     0.158 A 
ATOM      2  C   UNL d   1     -49.753  27.261  35.313  0.00  0.00     0.029 A 
ATOM      3  O   UNL d   1     -48.812  27.425  34.385  0.00  0.00    -0.302 OA
ATOM      4  C   UNL d   1     -49.899  26.756  34.691  0.00  0.00     0.026 A 
ATOM      5  C   UNL d   1     -50.550  25.745  33.900  0.00  0.00     0.104 A 
ATOM      6  C   UNL d   1     -49.323  26.848  34.110  0.00  0.00     0.100 A 
ATOM      7  C   UNL d   1     -50.518  26.199  34.585  0.00  0.00     0.015 A 
ATOM      8  C   UNL d   1     -49.963  25.844  33.315  0.00  0.00     0.015 A 
ATOM      9  C   UNL d   1     -49.357  26.396  33.429  0.00  0.00     0.025 A 
ATOM     10  C   UNL d   1     -50.190  27.347  36.006  0.00  0.00     0.002 C 
ENDROOT
BRANCH   1  11
ATOM     11  C   UNL d   1     -48.771  28.245  35.643  0.00  0.00     0.302 C 
ATOM     12  N   UNL d   1     -48.215  28.797  35.380  0.00  0.00    -0.203 NA
ATOM     13  O   UNL d   1     -49.018  28.269  36.425  0.00  0.00    -0.263 OA
BRANCH  12  14
ATOM     14  C   UNL d   1     -47.911  29.366  35.898  0.00  0.00     0.129 C 
BRANCH  14  15
ATOM     15  C   UNL d   1     -47.636  30.099  35.610  0.00  0.00     0.144 A 
ATOM     16  O   UNL d   1     -48.155  30.606  35.195  0.00  0.00    -0.301 OA
ATOM     17  C   UNL d   1     -47.881  31.325  34.914  0.00  0.00     0.123 A 
ATOM     18  C   UNL d   1     -48.385  31.836  34.501  0.00  0.00     0.027 A 
ATOM     19  C   UNL d   1     -47.101  31.553  35.035  0.00  0.00     0.123 A 
ATOM     20  C   UNL d   1     -48.120  32.560  34.215  0.00  0.00     0.002 A 
ATOM     21  C   UNL d   1     -47.330  32.775  34.345  0.00  0.00     0.002 A 
ATOM     22  C   UNL d   1     -46.821  32.278  34.752  0.00  0.00     0.027 A 
ATOM     23  O   UNL d   1     -46.593  31.037  35.451  0.00  0.00    -0.301 OA
ATOM     24  C   UNL d   1     -46.851  30.319  35.736  0.00  0.00     0.149 A 
ENDBRANCH  14  15
ENDBRANCH  12  14
ENDBRANCH   1  11
BRANCH   5  25
ATOM     25  S   UNL d   1     -51.162  25.195  33.796  0.00  0.00     0.272 S 
ATOM     26  O   UNL d   1     -50.696  24.609  34.153  0.00  0.00    -0.200 OA
ATOM     27  O   UNL d   1     -51.637  25.786  33.435  0.00  0.00    -0.200 OA
BRANCH  25  28
ATOM     28  N   UNL d   1     -51.782  24.637  33.692  0.00  0.00    -0.225 N 
ATOM     29  C   UNL d   1     -51.590  23.872  33.466  0.00  0.00     0.118 A 
ATOM     30  C   UNL d   1     -52.190  23.312  33.360  0.00  0.00     0.142 A 
ATOM     31  O   UNL d   1     -53.000  23.537  33.487  0.00  0.00    -0.300 OA
ATOM     32  C   UNL d   1     -53.172  24.312  33.714  0.00  0.00     0.142 A 
ATOM     33  C   UNL d   1     -52.564  24.858  33.815  0.00  0.00     0.118 A 
ENDBRANCH  25  28
ENDBRANCH   5  25
TORSDOF 5
ENDMDL
