MODEL 1
REMARK VINA RESULT:      26.7      0.000      0.000
REMARK  1 active torsions:
REMARK  status: ('A' for Active; 'I' for Inactive)
REMARK    1  A    between atoms: C_10  and  N_2 
ROOT
ATOM      1  C   UNL d   1      14.147  12.749  -1.656  0.00  0.00     0.166 A 
ATOM      2  N   UNL d   1      14.425  12.745  -0.873  0.00  0.00    -0.291 N 
ATOM      3  C   UNL d   1      14.307  13.500  -1.954  0.00  0.00     0.117 A 
ATOM      4  C   UNL d   1      14.743  13.474  -0.706  0.00  0.00     0.067 A 
ATOM      5  N   UNL d   1      13.774  12.167  -2.122  0.00  0.00    -0.225 NA
ATOM      6  C   UNL d   1      14.669  13.945  -1.380  0.00  0.00     0.037 A 
ATOM      7  N   UNL d   1      14.081  13.655  -2.738  0.00  0.00    -0.241 NA
ATOM      8  C   UNL d   1      13.561  12.336  -2.885  0.00  0.00     0.101 A 
ATOM      9  C   UNL d   1      13.720  13.092  -3.191  0.00  0.00     0.099 A 
ATOM     10  C   UNL d   1      15.097  13.782  -0.021  0.00  0.00     0.018 A 
ATOM     11  C   UNL d   1      14.949  14.724  -1.368  0.00  0.00     0.003 A 
ATOM     12  C   UNL d   1      13.507  13.268  -3.961  0.00  0.00     0.021 A 
ATOM     13  C   UNL d   1      13.200  11.780  -3.343  0.00  0.00     0.021 A 
ATOM     14  C   UNL d   1      15.376  14.564  -0.014  0.00  0.00     0.002 A 
ATOM     15  C   UNL d   1      15.303  15.035  -0.688  0.00  0.00     0.000 A 
ATOM     16  C   UNL d   1      12.984  11.970  -4.137  0.00  0.00     0.002 A 
ATOM     17  C   UNL d   1      13.132  12.703  -4.452  0.00  0.00     0.002 A 
ENDROOT
BRANCH   2  18
ATOM     18  C   UNL d   1      14.384  12.117  -0.364  0.00  0.00     0.066 C 
ATOM     19  C   UNL d   1      15.106  11.779  -0.080  0.00  0.00     0.019 C 
ATOM     20  C   UNL d   1      13.652  11.824  -0.137  0.00  0.00     0.019 C 
ENDBRANCH   2  18
TORSDOF 1
ENDMDL
