MODEL 1
REMARK VINA RESULT:      -5.7      0.000      0.000
REMARK  2 active torsions:
REMARK  status: ('A' for Active; 'I' for Inactive)
REMARK    1  A    between atoms: C_3  and  C_1 
REMARK       I    between atoms: N_7  and  C_3 
REMARK    2  A    between atoms: C_11  and  N_7 
ROOT
ATOM      1  C   UNL d   1      57.139  -0.476  31.454  0.00  0.00     0.121 A 
ATOM      2  C   UNL d   1      56.796  -1.215  31.574  0.00  0.00     0.305 A 
ATOM      3  C   UNL d   1      56.937   0.157  31.942  0.00  0.00     0.012 A 
ATOM      4  O   UNL d   1      56.252  -1.315  32.181  0.00  0.00    -0.273 OA
ATOM      5  C   UNL d   1      56.390   0.050  32.550  0.00  0.00     0.023 A 
ATOM      6  C   UNL d   1      56.047  -0.688  32.670  0.00  0.00     0.103 A 
ATOM      7  O   UNL d   1      57.006  -1.844  31.079  0.00  0.00    -0.259 OA
ATOM      8  C   UNL d   1      56.192   0.681  33.032  0.00  0.00     0.002 A 
ATOM      9  C   UNL d   1      55.507  -0.792  33.271  0.00  0.00     0.025 A 
ATOM     10  C   UNL d   1      55.641   0.576  33.646  0.00  0.00     0.000 A 
ATOM     11  C   UNL d   1      55.298  -0.162  33.766  0.00  0.00     0.002 A 
ENDROOT
BRANCH   1  12
ATOM     12  C   UNL d   1      57.690  -0.372  30.840  0.00  0.00     0.284 C 
ATOM     13  N   UNL d   1      57.852   0.380  30.561  0.00  0.00    -0.208 NA
ATOM     14  O   UNL d   1      58.077  -1.030  30.510  0.00  0.00    -0.265 OA
BRANCH  13  15
ATOM     15  C   UNL d   1      58.399   0.479  29.951  0.00  0.00     0.085 A 
ATOM     16  C   UNL d   1      58.141   0.518  29.162  0.00  0.00     0.019 A 
ATOM     17  C   UNL d   1      58.696   0.618  28.555  0.00  0.00     0.002 A 
ATOM     18  C   UNL d   1      59.503   0.680  28.724  0.00  0.00     0.000 A 
ATOM     19  C   UNL d   1      59.761   0.641  29.513  0.00  0.00     0.002 A 
ATOM     20  C   UNL d   1      59.223   0.543  30.120  0.00  0.00     0.019 A 
ENDBRANCH  13  15
ENDBRANCH   1  12
TORSDOF 2
ENDMDL
MODEL 2
REMARK VINA RESULT:      -5.0      1.115      4.392
REMARK  2 active torsions:
REMARK  status: ('A' for Active; 'I' for Inactive)
REMARK    1  A    between atoms: C_3  and  C_1 
REMARK       I    between atoms: N_7  and  C_3 
REMARK    2  A    between atoms: C_11  and  N_7 
ROOT
ATOM      1  C   UNL d   1      58.273   0.427  30.168  0.00  0.00     0.121 A 
ATOM      2  C   UNL d   1      58.138   0.598  29.374  0.00  0.00     0.305 A 
ATOM      3  C   UNL d   1      59.045   0.342  30.447  0.00  0.00     0.012 A 
ATOM      4  O   UNL d   1      58.776   0.682  28.864  0.00  0.00    -0.273 OA
ATOM      5  C   UNL d   1      59.681   0.428  29.929  0.00  0.00     0.023 A 
ATOM      6  C   UNL d   1      59.546   0.598  29.135  0.00  0.00     0.103 A 
ATOM      7  O   UNL d   1      57.360   0.682  29.105  0.00  0.00    -0.259 OA
ATOM      8  C   UNL d   1      60.444   0.342  30.209  0.00  0.00     0.002 A 
ATOM      9  C   UNL d   1      60.175   0.682  28.626  0.00  0.00     0.025 A 
ATOM     10  C   UNL d   1      61.089   0.428  29.690  0.00  0.00     0.000 A 
ATOM     11  C   UNL d   1      60.954   0.598  28.896  0.00  0.00     0.002 A 
ENDROOT
BRANCH   1  12
ATOM     12  C   UNL d   1      57.629   0.342  30.687  0.00  0.00     0.284 C 
ATOM     13  N   UNL d   1      57.719  -0.078  31.384  0.00  0.00    -0.208 NA
ATOM     14  O   UNL d   1      56.894   0.682  30.500  0.00  0.00    -0.265 OA
BRANCH  13  15
ATOM     15  C   UNL d   1      57.078  -0.161  31.896  0.00  0.00     0.085 A 
ATOM     16  C   UNL d   1      56.689  -0.892  31.961  0.00  0.00     0.019 A 
ATOM     17  C   UNL d   1      56.045  -0.968  32.479  0.00  0.00     0.002 A 
ATOM     18  C   UNL d   1      55.787  -0.326  32.930  0.00  0.00     0.000 A 
ATOM     19  C   UNL d   1      56.176   0.406  32.865  0.00  0.00     0.002 A 
ATOM     20  C   UNL d   1      56.811   0.492  32.358  0.00  0.00     0.019 A 
ENDBRANCH  13  15
ENDBRANCH   1  12
TORSDOF 2
ENDMDL
MODEL 3
REMARK VINA RESULT:      -5.0      1.761      2.108
REMARK  2 active torsions:
REMARK  status: ('A' for Active; 'I' for Inactive)
REMARK    1  A    between atoms: C_3  and  C_1 
REMARK       I    between atoms: N_7  and  C_3 
REMARK    2  A    between atoms: C_11  and  N_7 
ROOT
ATOM      1  C   UNL d   1      57.466  -0.608  30.945  0.00  0.00     0.121 A 
ATOM      2  C   UNL d   1      57.535   0.197  31.106  0.00  0.00     0.305 A 
ATOM      3  C   UNL d   1      56.998  -1.086  31.427  0.00  0.00     0.012 A 
ATOM      4  O   UNL d   1      57.136   0.517  31.748  0.00  0.00    -0.273 OA
ATOM      5  C   UNL d   1      56.600  -0.758  32.071  0.00  0.00     0.023 A 
ATOM      6  C   UNL d   1      56.669   0.046  32.231  0.00  0.00     0.103 A 
ATOM      7  O   UNL d   1      58.007   0.668  30.616  0.00  0.00    -0.259 OA
ATOM      8  C   UNL d   1      56.137  -1.236  32.546  0.00  0.00     0.002 A 
ATOM      9  C   UNL d   1      56.275   0.367  32.867  0.00  0.00     0.025 A 
ATOM     10  C   UNL d   1      55.734  -0.909  33.196  0.00  0.00     0.000 A 
ATOM     11  C   UNL d   1      55.803  -0.105  33.357  0.00  0.00     0.002 A 
ENDROOT
BRANCH   1  12
ATOM     12  C   UNL d   1      57.869  -0.935  30.296  0.00  0.00     0.284 C 
ATOM     13  N   UNL d   1      58.370  -1.572  30.406  0.00  0.00    -0.208 NA
ATOM     14  O   UNL d   1      57.764  -0.616  29.536  0.00  0.00    -0.265 OA
BRANCH  13  15
ATOM     15  C   UNL d   1      58.768  -1.894  29.759  0.00  0.00     0.085 A 
ATOM     16  C   UNL d   1      59.512  -1.597  29.538  0.00  0.00     0.019 A 
ATOM     17  C   UNL d   1      59.907  -1.926  28.887  0.00  0.00     0.002 A 
ATOM     18  C   UNL d   1      59.569  -2.545  28.455  0.00  0.00     0.000 A 
ATOM     19  C   UNL d   1      58.826  -2.842  28.676  0.00  0.00     0.002 A 
ATOM     20  C   UNL d   1      58.428  -2.526  29.316  0.00  0.00     0.019 A 
ENDBRANCH  13  15
ENDBRANCH   1  12
TORSDOF 2
ENDMDL
MODEL 4
REMARK VINA RESULT:      -5.0      1.158      4.322
REMARK  2 active torsions:
REMARK  status: ('A' for Active; 'I' for Inactive)
REMARK    1  A    between atoms: C_3  and  C_1 
REMARK       I    between atoms: N_7  and  C_3 
REMARK    2  A    between atoms: C_11  and  N_7 
ROOT
ATOM      1  C   UNL d   1      58.053   0.428  31.258  0.00  0.00     0.121 A 
ATOM      2  C   UNL d   1      58.844   0.595  31.413  0.00  0.00     0.305 A 
ATOM      3  C   UNL d   1      57.794   0.341  30.480  0.00  0.00     0.012 A 
ATOM      4  O   UNL d   1      59.371   0.673  30.788  0.00  0.00    -0.273 OA
ATOM      5  C   UNL d   1      58.328   0.421  29.857  0.00  0.00     0.023 A 
ATOM      6  C   UNL d   1      59.119   0.587  30.011  0.00  0.00     0.103 A 
ATOM      7  O   UNL d   1      59.094   0.681  32.197  0.00  0.00    -0.259 OA
ATOM      8  C   UNL d   1      58.067   0.333  29.087  0.00  0.00     0.002 A 
ATOM      9  C   UNL d   1      59.645   0.665  29.395  0.00  0.00     0.025 A 
ATOM     10  C   UNL d   1      58.604   0.413  28.456  0.00  0.00     0.000 A 
ATOM     11  C   UNL d   1      59.395   0.580  28.610  0.00  0.00     0.002 A 
ENDROOT
BRANCH   1  12
ATOM     12  C   UNL d   1      57.517   0.349  31.889  0.00  0.00     0.284 C 
ATOM     13  N   UNL d   1      56.757   0.083  31.747  0.00  0.00    -0.208 NA
ATOM     14  O   UNL d   1      57.753   0.539  32.663  0.00  0.00    -0.265 OA
BRANCH  13  15
ATOM     15  C   UNL d   1      56.228   0.005  32.375  0.00  0.00     0.085 A 
ATOM     16  C   UNL d   1      56.067  -0.746  32.693  0.00  0.00     0.019 A 
ATOM     17  C   UNL d   1      55.533  -0.817  33.325  0.00  0.00     0.002 A 
ATOM     18  C   UNL d   1      55.162  -0.150  33.642  0.00  0.00     0.000 A 
ATOM     19  C   UNL d   1      55.323   0.600  33.324  0.00  0.00     0.002 A 
ATOM     20  C   UNL d   1      55.846   0.682  32.702  0.00  0.00     0.019 A 
ENDBRANCH  13  15
ENDBRANCH   1  12
TORSDOF 2
ENDMDL
MODEL 5
REMARK VINA RESULT:      -4.9      1.290      1.566
REMARK  2 active torsions:
REMARK  status: ('A' for Active; 'I' for Inactive)
REMARK    1  A    between atoms: C_3  and  C_1 
REMARK       I    between atoms: N_7  and  C_3 
REMARK    2  A    between atoms: C_11  and  N_7 
ROOT
ATOM      1  C   UNL d   1      57.552   0.361  31.939  0.00  0.00     0.121 A 
ATOM      2  C   UNL d   1      57.958   0.552  32.629  0.00  0.00     0.305 A 
ATOM      3  C   UNL d   1      56.736   0.238  31.960  0.00  0.00     0.012 A 
ATOM      4  O   UNL d   1      57.547   0.617  33.336  0.00  0.00    -0.273 OA
ATOM      5  C   UNL d   1      56.329   0.306  32.674  0.00  0.00     0.023 A 
ATOM      6  C   UNL d   1      56.735   0.496  33.364  0.00  0.00     0.103 A 
ATOM      7  O   UNL d   1      58.776   0.673  32.596  0.00  0.00    -0.259 OA
ATOM      8  C   UNL d   1      55.520   0.183  32.692  0.00  0.00     0.002 A 
ATOM      9  C   UNL d   1      56.331   0.563  34.067  0.00  0.00     0.025 A 
ATOM     10  C   UNL d   1      55.106   0.251  33.410  0.00  0.00     0.000 A 
ATOM     11  C   UNL d   1      55.513   0.441  34.100  0.00  0.00     0.002 A 
ENDROOT
BRANCH   1  12
ATOM     12  C   UNL d   1      57.966   0.294  31.221  0.00  0.00     0.284 C 
ATOM     13  N   UNL d   1      57.654  -0.153  30.611  0.00  0.00    -0.208 NA
ATOM     14  O   UNL d   1      58.696   0.679  31.122  0.00  0.00    -0.265 OA
BRANCH  13  15
ATOM     15  C   UNL d   1      58.068  -0.218  29.900  0.00  0.00     0.085 A 
ATOM     16  C   UNL d   1      58.482  -0.916  29.721  0.00  0.00     0.019 A 
ATOM     17  C   UNL d   1      58.896  -0.974  29.005  0.00  0.00     0.002 A 
ATOM     18  C   UNL d   1      58.901  -0.346  28.467  0.00  0.00     0.000 A 
ATOM     19  C   UNL d   1      58.487   0.352  28.645  0.00  0.00     0.002 A 
ATOM     20  C   UNL d   1      58.076   0.420  29.348  0.00  0.00     0.019 A 
ENDBRANCH  13  15
ENDBRANCH   1  12
TORSDOF 2
ENDMDL
MODEL 6
REMARK VINA RESULT:      -4.9      1.285      4.445
REMARK  2 active torsions:
REMARK  status: ('A' for Active; 'I' for Inactive)
REMARK    1  A    between atoms: C_3  and  C_1 
REMARK       I    between atoms: N_7  and  C_3 
REMARK    2  A    between atoms: C_11  and  N_7 
ROOT
ATOM      1  C   UNL d   1      56.391  -0.410  32.324  0.00  0.00     0.121 A 
ATOM      2  C   UNL d   1      56.543  -1.190  32.114  0.00  0.00     0.305 A 
ATOM      3  C   UNL d   1      56.734   0.208  31.898  0.00  0.00     0.012 A 
ATOM      4  O   UNL d   1      57.038  -1.349  31.478  0.00  0.00    -0.273 OA
ATOM      5  C   UNL d   1      57.230   0.041  31.261  0.00  0.00     0.023 A 
ATOM      6  C   UNL d   1      57.382  -0.740  31.050  0.00  0.00     0.103 A 
ATOM      7  O   UNL d   1      56.194  -1.803  32.548  0.00  0.00    -0.259 OA
ATOM      8  C   UNL d   1      57.569   0.656  30.841  0.00  0.00     0.002 A 
ATOM      9  C   UNL d   1      57.872  -0.901  30.420  0.00  0.00     0.025 A 
ATOM     10  C   UNL d   1      58.070   0.492  30.197  0.00  0.00     0.000 A 
ATOM     11  C   UNL d   1      58.222  -0.289  29.986  0.00  0.00     0.002 A 
ENDROOT
BRANCH   1  12
ATOM     12  C   UNL d   1      55.890  -0.246  32.968  0.00  0.00     0.284 C 
ATOM     13  N   UNL d   1      56.167   0.198  33.597  0.00  0.00    -0.208 NA
ATOM     14  O   UNL d   1      55.110  -0.531  32.972  0.00  0.00    -0.265 OA
BRANCH  13  15
ATOM     15  C   UNL d   1      55.667   0.358  34.234  0.00  0.00     0.085 A 
ATOM     16  C   UNL d   1      55.981   0.439  34.999  0.00  0.00     0.019 A 
ATOM     17  C   UNL d   1      55.472   0.600  35.635  0.00  0.00     0.002 A 
ATOM     18  C   UNL d   1      54.659   0.682  35.516  0.00  0.00     0.000 A 
ATOM     19  C   UNL d   1      54.345   0.602  34.750  0.00  0.00     0.002 A 
ATOM     20  C   UNL d   1      54.836   0.442  34.117  0.00  0.00     0.019 A 
ENDBRANCH  13  15
ENDBRANCH   1  12
TORSDOF 2
ENDMDL
