MODEL 1
REMARK VINA RESULT:      -3.9      0.000      0.000
REMARK  5 active torsions:
REMARK  status: ('A' for Active; 'I' for Inactive)
REMARK    1  A    between atoms: C_10  and  N_4 
REMARK    2  A    between atoms: C_12  and  C_10 
REMARK    3  A    between atoms: N_13  and  C_12 
REMARK    4  A    between atoms: C_19  and  N_13 
REMARK    5  A    between atoms: C_20  and  N_13 
ROOT
ATOM      1  C   UNL d   1      58.348  -1.738  29.892  0.00  0.00     0.102 A 
ATOM      2  N   UNL d   1      57.751  -1.760  30.452  0.00  0.00    -0.163 NA
ATOM      3  C   UNL d   1      58.694  -1.024  29.669  0.00  0.00     0.024 A 
ATOM      4  N   UNL d   1      57.532  -0.710  30.814  0.00  0.00    -0.192 N 
ATOM      5  C   UNL d   1      57.968  -0.099  30.491  0.00  0.00     0.280 A 
ATOM      6  C   UNL d   1      58.551  -0.256  29.918  0.00  0.00     0.059 A 
ATOM      7  C   UNL d   1      59.267  -1.179  29.105  0.00  0.00     0.002 A 
ATOM      8  C   UNL d   1      58.714  -2.337  29.458  0.00  0.00     0.019 A 
ATOM      9  C   UNL d   1      59.283  -1.991  28.971  0.00  0.00     0.002 A 
ATOM     10  O   UNL d   1      57.828   0.682  30.739  0.00  0.00    -0.265 OA
ATOM     11  C   UNL d   1      58.993   0.367  29.591  0.00  0.00     0.005 A 
ATOM     12  C   UNL d   1      59.707  -0.568  28.779  0.00  0.00     0.000 A 
ATOM     13  C   UNL d   1      58.604  -3.154  29.442  0.00  0.00     0.002 A 
ATOM     14  C   UNL d   1      59.738  -2.466  28.471  0.00  0.00     0.000 A 
ATOM     15  C   UNL d   1      59.566   0.212  29.027  0.00  0.00     0.000 A 
ATOM     16  C   UNL d   1      59.058  -3.628  28.942  0.00  0.00     0.000 A 
ATOM     17  C   UNL d   1      59.628  -3.283  28.455  0.00  0.00     0.000 A 
ENDROOT
BRANCH   4  18
ATOM     18  C   UNL d   1      57.007  -0.373  31.360  0.00  0.00     0.123 C 
BRANCH  18  19
ATOM     19  C   UNL d   1      56.544  -0.861  31.846  0.00  0.00     0.101 C 
BRANCH  19  20
ATOM     20  N   UNL d   1      56.175  -0.546  32.518  0.00  0.00    -0.301 N 
BRANCH  20  21
ATOM     21  C   UNL d   1      55.850   0.206  32.500  0.00  0.00     0.080 C 
ATOM     22  C   UNL d   1      55.510   0.532  33.177  0.00  0.00     0.021 C 
ENDBRANCH  20  21
BRANCH  20  23
ATOM     23  C   UNL d   1      56.136  -1.000  33.209  0.00  0.00     0.080 C 
ATOM     24  C   UNL d   1      55.825  -1.761  33.182  0.00  0.00     0.021 C 
ENDBRANCH  20  23
ENDBRANCH  19  20
ENDBRANCH  18  19
ENDBRANCH   4  18
TORSDOF 5
ENDMDL
MODEL 2
REMARK VINA RESULT:      -2.4      1.022      2.170
REMARK  5 active torsions:
REMARK  status: ('A' for Active; 'I' for Inactive)
REMARK    1  A    between atoms: C_10  and  N_4 
REMARK    2  A    between atoms: C_12  and  C_10 
REMARK    3  A    between atoms: N_13  and  C_12 
REMARK    4  A    between atoms: C_19  and  N_13 
REMARK    5  A    between atoms: C_20  and  N_13 
ROOT
ATOM      1  C   UNL d   1      59.104  -0.203  29.906  0.00  0.00     0.102 A 
ATOM      2  N   UNL d   1      58.676   0.237  30.446  0.00  0.00    -0.163 NA
ATOM      3  C   UNL d   1      58.884  -0.975  29.718  0.00  0.00     0.024 A 
ATOM      4  N   UNL d   1      57.811  -0.379  30.837  0.00  0.00    -0.192 N 
ATOM      5  C   UNL d   1      57.727  -1.139  30.550  0.00  0.00     0.280 A 
ATOM      6  C   UNL d   1      58.264  -1.438  29.989  0.00  0.00     0.059 A 
ATOM      7  C   UNL d   1      59.413  -1.269  29.167  0.00  0.00     0.002 A 
ATOM      8  C   UNL d   1      59.777  -0.023  29.462  0.00  0.00     0.019 A 
ATOM      9  C   UNL d   1      59.968  -0.683  29.005  0.00  0.00     0.002 A 
ATOM     10  O   UNL d   1      57.100  -1.614  30.819  0.00  0.00    -0.265 OA
ATOM     11  C   UNL d   1      58.176  -2.211  29.698  0.00  0.00     0.005 A 
ATOM     12  C   UNL d   1      59.332  -2.031  28.875  0.00  0.00     0.000 A 
ATOM     13  C   UNL d   1      60.242   0.657  29.415  0.00  0.00     0.002 A 
ATOM     14  C   UNL d   1      60.624  -0.657  28.502  0.00  0.00     0.000 A 
ATOM     15  C   UNL d   1      58.705  -2.505  29.146  0.00  0.00     0.000 A 
ATOM     16  C   UNL d   1      60.896   0.682  28.913  0.00  0.00     0.000 A 
ATOM     17  C   UNL d   1      61.089   0.023  28.455  0.00  0.00     0.000 A 
ENDROOT
BRANCH   4  18
ATOM     18  C   UNL d   1      57.196  -0.253  31.378  0.00  0.00     0.123 C 
BRANCH  18  19
ATOM     19  C   UNL d   1      57.206   0.416  31.870  0.00  0.00     0.101 C 
BRANCH  19  20
ATOM     20  N   UNL d   1      56.799   0.406  32.592  0.00  0.00    -0.301 N 
BRANCH  20  21
ATOM     21  C   UNL d   1      56.030   0.125  32.632  0.00  0.00     0.080 C 
ATOM     22  C   UNL d   1      55.417   0.617  32.882  0.00  0.00     0.021 C 
ENDBRANCH  20  21
BRANCH  20  23
ATOM     23  C   UNL d   1      57.177   0.682  33.274  0.00  0.00     0.080 C 
ATOM     24  C   UNL d   1      57.141   0.241  33.968  0.00  0.00     0.021 C 
ENDBRANCH  20  23
ENDBRANCH  19  20
ENDBRANCH  18  19
ENDBRANCH   4  18
TORSDOF 5
ENDMDL
MODEL 3
REMARK VINA RESULT:      -2.3      1.571      5.258
REMARK  5 active torsions:
REMARK  status: ('A' for Active; 'I' for Inactive)
REMARK    1  A    between atoms: C_10  and  N_4 
REMARK    2  A    between atoms: C_12  and  C_10 
REMARK    3  A    between atoms: N_13  and  C_12 
REMARK    4  A    between atoms: C_19  and  N_13 
REMARK    5  A    between atoms: C_20  and  N_13 
ROOT
ATOM      1  C   UNL d   1      56.184   0.524  33.063  0.00  0.00     0.102 A 
ATOM      2  N   UNL d   1      56.316   0.470  32.257  0.00  0.00    -0.163 NA
ATOM      3  C   UNL d   1      56.814   0.573  33.593  0.00  0.00     0.024 A 
ATOM      4  N   UNL d   1      57.429   0.477  32.053  0.00  0.00    -0.192 N 
ATOM      5  C   UNL d   1      57.932   0.531  32.695  0.00  0.00     0.280 A 
ATOM      6  C   UNL d   1      57.624   0.579  33.466  0.00  0.00     0.059 A 
ATOM      7  C   UNL d   1      56.510   0.620  34.352  0.00  0.00     0.002 A 
ATOM      8  C   UNL d   1      55.487   0.542  33.505  0.00  0.00     0.019 A 
ATOM      9  C   UNL d   1      55.689   0.601  34.302  0.00  0.00     0.002 A 
ATOM     10  O   UNL d   1      58.754   0.538  32.574  0.00  0.00    -0.265 OA
ATOM     11  C   UNL d   1      58.137   0.635  34.118  0.00  0.00     0.005 A 
ATOM     12  C   UNL d   1      57.012   0.675  34.999  0.00  0.00     0.000 A 
ATOM     13  C   UNL d   1      54.693   0.511  33.284  0.00  0.00     0.002 A 
ATOM     14  C   UNL d   1      55.093   0.630  34.875  0.00  0.00     0.000 A 
ATOM     15  C   UNL d   1      57.834   0.682  34.877  0.00  0.00     0.000 A 
ATOM     16  C   UNL d   1      54.099   0.540  33.856  0.00  0.00     0.000 A 
ATOM     17  C   UNL d   1      54.299   0.600  34.654  0.00  0.00     0.000 A 
ENDROOT
BRANCH   4  18
ATOM     18  C   UNL d   1      57.903   0.439  31.374  0.00  0.00     0.123 C 
BRANCH  18  19
ATOM     19  C   UNL d   1      57.662  -0.019  30.725  0.00  0.00     0.101 C 
BRANCH  19  20
ATOM     20  N   UNL d   1      58.070   0.036  30.005  0.00  0.00    -0.301 N 
BRANCH  20  21
ATOM     21  C   UNL d   1      57.853   0.594  29.445  0.00  0.00     0.080 C 
ATOM     22  C   UNL d   1      58.103   0.522  28.663  0.00  0.00     0.021 C 
ENDBRANCH  20  21
BRANCH  20  23
ATOM     23  C   UNL d   1      58.700  -0.479  29.857  0.00  0.00     0.080 C 
ATOM     24  C   UNL d   1      58.549  -1.255  29.629  0.00  0.00     0.021 C 
ENDBRANCH  20  23
ENDBRANCH  19  20
ENDBRANCH  18  19
ENDBRANCH   4  18
TORSDOF 5
ENDMDL
MODEL 4
REMARK VINA RESULT:      -0.9      2.166      2.789
REMARK  5 active torsions:
REMARK  status: ('A' for Active; 'I' for Inactive)
REMARK    1  A    between atoms: C_10  and  N_4 
REMARK    2  A    between atoms: C_12  and  C_10 
REMARK    3  A    between atoms: N_13  and  C_12 
REMARK    4  A    between atoms: C_19  and  N_13 
REMARK    5  A    between atoms: C_20  and  N_13 
ROOT
ATOM      1  C   UNL d   1      58.816   0.611  31.645  0.00  0.00     0.102 A 
ATOM      2  N   UNL d   1      58.416   0.680  32.356  0.00  0.00    -0.163 NA
ATOM      3  C   UNL d   1      58.407   0.527  30.935  0.00  0.00     0.024 A 
ATOM      4  N   UNL d   1      57.301   0.640  32.169  0.00  0.00    -0.192 N 
ATOM      5  C   UNL d   1      57.048   0.552  31.396  0.00  0.00     0.280 A 
ATOM      6  C   UNL d   1      57.602   0.496  30.778  0.00  0.00     0.059 A 
ATOM      7  C   UNL d   1      58.952   0.472  30.326  0.00  0.00     0.002 A 
ATOM      8  C   UNL d   1      59.623   0.607  31.468  0.00  0.00     0.019 A 
ATOM      9  C   UNL d   1      59.706   0.520  30.652  0.00  0.00     0.002 A 
ATOM     10  O   UNL d   1      56.235   0.519  31.230  0.00  0.00    -0.265 OA
ATOM     11  C   UNL d   1      57.344   0.406  29.993  0.00  0.00     0.005 A 
ATOM     12  C   UNL d   1      58.703   0.384  29.550  0.00  0.00     0.000 A 
ATOM     13  C   UNL d   1      60.293   0.670  31.944  0.00  0.00     0.002 A 
ATOM     14  C   UNL d   1      60.462   0.498  30.318  0.00  0.00     0.000 A 
ATOM     15  C   UNL d   1      57.889   0.351  29.385  0.00  0.00     0.000 A 
ATOM     16  C   UNL d   1      61.047   0.648  31.610  0.00  0.00     0.000 A 
ATOM     17  C   UNL d   1      61.132   0.562  30.794  0.00  0.00     0.000 A 
ENDROOT
BRANCH   4  18
ATOM     18  C   UNL d   1      56.622   0.678  32.644  0.00  0.00     0.123 C 
BRANCH  18  19
ATOM     19  C   UNL d   1      56.691   0.636  33.470  0.00  0.00     0.101 C 
BRANCH  19  20
ATOM     20  N   UNL d   1      56.019   0.502  33.936  0.00  0.00    -0.301 N 
BRANCH  20  21
ATOM     21  C   UNL d   1      55.322   0.241  33.594  0.00  0.00     0.080 C 
ATOM     22  C   UNL d   1      54.672   0.044  34.063  0.00  0.00     0.021 C 
ENDBRANCH  20  21
BRANCH  20  23
ATOM     23  C   UNL d   1      56.058   0.635  34.751  0.00  0.00     0.080 C 
ATOM     24  C   UNL d   1      56.766   0.514  35.152  0.00  0.00     0.021 C 
ENDBRANCH  20  23
ENDBRANCH  19  20
ENDBRANCH  18  19
ENDBRANCH   4  18
TORSDOF 5
ENDMDL
