MODEL 1
REMARK VINA RESULT:      90.4      0.000      0.000
REMARK  3 active torsions:
REMARK  status: ('A' for Active; 'I' for Inactive)
REMARK    1  A    between atoms: C_5  and  C_1 
REMARK    2  A    between atoms: N_8  and  C_5 
REMARK    3  A    between atoms: C_10  and  C_5 
ROOT
ATOM      1  C   UNL d   1      60.317  48.573  51.028  0.00  0.00     0.067 C 
ENDROOT
BRANCH   1   2
ATOM      2  C   UNL d   1      60.607  47.834  50.791  0.00  0.00     0.057 A 
ATOM      3  C   UNL d   1      61.219  47.798  50.243  0.00  0.00     0.214 A 
ATOM      4  C   UNL d   1      61.507  47.061  50.009  0.00  0.00     0.121 A 
ATOM      5  O   UNL d   1      61.547  48.480  49.925  0.00  0.00    -0.285 OA
ATOM      6  N   UNL d   1      62.121  47.023  49.458  0.00  0.00    -0.241 NA
ATOM      7  C   UNL d   1      61.182  46.362  50.324  0.00  0.00     0.032 A 
ATOM      8  C   UNL d   1      62.404  46.291  49.228  0.00  0.00     0.099 A 
ATOM      9  C   UNL d   1      62.079  45.592  49.544  0.00  0.00     0.021 A 
ATOM     10  C   UNL d   1      61.477  45.639  50.083  0.00  0.00     0.004 A 
ATOM     11  C   UNL d   1      60.570  46.403  50.873  0.00  0.00     0.059 A 
ATOM     12  C   UNL d   1      60.282  47.135  51.107  0.00  0.00     0.016 A 
ATOM     13 CL   UNL d   1      60.258  45.711  51.176  0.00  0.00    -0.082 Cl
ENDBRANCH   1   2
BRANCH   1  14
ATOM     14  N   UNL d   1      60.728  49.022  51.578  0.00  0.00    -0.304 N 
ATOM     15  C   UNL d   1      61.506  49.247  51.427  0.00  0.00     0.080 A 
ATOM     16  C   UNL d   1      61.925  49.694  51.967  0.00  0.00     0.021 A 
ATOM     17  C   UNL d   1      60.777  49.702  52.838  0.00  0.00     0.021 A 
ATOM     18  C   UNL d   1      60.363  49.251  52.285  0.00  0.00     0.080 A 
ENDBRANCH   1  14
BRANCH   1  19
ATOM     19  C   UNL d   1      59.601  48.862  50.704  0.00  0.00     0.016 A 
ATOM     20  C   UNL d   1      59.605  49.284  50.007  0.00  0.00     0.002 A 
ATOM     21  C   UNL d   1      58.907  49.570  49.687  0.00  0.00     0.011 A 
ATOM     22  C   UNL d   1      58.186  49.426  50.078  0.00  0.00     0.058 A 
ATOM     23  C   UNL d   1      58.181  48.995  50.789  0.00  0.00     0.011 A 
ATOM     24 CL   UNL d   1      57.484  49.705  49.768  0.00  0.00    -0.082 Cl
ATOM     25  C   UNL d   1      58.897  48.714  51.099  0.00  0.00     0.002 A 
ENDBRANCH   1  19
TORSDOF 3
ENDMDL
