MODEL 1
REMARK VINA RESULT:      42.8      0.000      0.000
REMARK  5 active torsions:
REMARK  status: ('A' for Active; 'I' for Inactive)
REMARK    1  A    between atoms: C_12  and  N_3 
REMARK    2  A    between atoms: C_10  and  N_7 
REMARK    3  A    between atoms: C_11  and  C_10 
REMARK    4  A    between atoms: C_14  and  C_11 
REMARK    5  A    between atoms: C_19  and  C_12 
ROOT
ATOM      1  C   UNL d   1      13.870  12.695  -2.122  0.00  0.00     0.191 A 
ATOM      2  C   UNL d   1      14.631  12.451  -1.883  0.00  0.00     0.196 A 
ATOM      3  N   UNL d   1      13.678  12.271  -2.810  0.00  0.00    -0.191 N 
ATOM      4  N   UNL d   1      13.469  13.257  -1.685  0.00  0.00    -0.204 NA
ATOM      5  N   UNL d   1      14.892  11.883  -2.430  0.00  0.00    -0.122 NA
ATOM      6  N   UNL d   1      14.309  11.781  -2.985  0.00  0.00    -0.058 NA
ATOM      7  N   UNL d   1      14.569  13.346  -0.770  0.00  0.00    -0.251 N 
ATOM      8  C   UNL d   1      14.970  12.778  -1.215  0.00  0.00     0.289 A 
ATOM      9  C   UNL d   1      13.807  13.589  -1.009  0.00  0.00     0.187 A 
ATOM     10  O   UNL d   1      15.731  12.534  -0.976  0.00  0.00    -0.265 OA
ENDROOT
BRANCH   7  11
ATOM     11  C   UNL d   1      14.907  13.682  -0.089  0.00  0.00     0.127 C 
BRANCH  11  12
ATOM     12  C   UNL d   1      15.577  14.173  -0.148  0.00  0.00     0.213 C 
ATOM     13  O   UNL d   1      16.329  13.860  -0.014  0.00  0.00    -0.285 OA
BRANCH  12  14
ATOM     14  C   UNL d   1      15.482  14.966  -0.340  0.00  0.00     0.041 A 
ATOM     15  C   UNL d   1      14.855  15.398  -0.014  0.00  0.00     0.004 A 
ATOM     16  C   UNL d   1      14.764  16.184  -0.206  0.00  0.00     0.011 A 
ATOM     17  C   UNL d   1      15.292  16.552  -0.723  0.00  0.00     0.058 A 
ATOM     18  C   UNL d   1      15.920  16.120  -1.049  0.00  0.00     0.011 A 
ATOM     19 CL   UNL d   1      15.199  17.357  -0.919  0.00  0.00    -0.082 Cl
ATOM     20  C   UNL d   1      16.010  15.334  -0.856  0.00  0.00     0.004 A 
ENDBRANCH  12  14
ENDBRANCH  11  12
ENDBRANCH   7  11
BRANCH   3  21
ATOM     21  C   UNL d   1      12.967  12.332  -3.248  0.00  0.00     0.104 C 
BRANCH  21  22
ATOM     22  C   UNL d   1      12.997  12.430  -4.075  0.00  0.00     0.019 A 
ATOM     23  C   UNL d   1      13.120  11.781  -4.569  0.00  0.00     0.002 A 
ATOM     24  C   UNL d   1      13.147  11.897  -5.372  0.00  0.00     0.000 A 
ATOM     25  C   UNL d   1      13.054  12.635  -5.703  0.00  0.00     0.000 A 
ATOM     26  C   UNL d   1      12.928  13.302  -5.194  0.00  0.00     0.000 A 
ATOM     27  C   UNL d   1      12.901  13.187  -4.383  0.00  0.00     0.002 A 
ENDBRANCH  21  22
ENDBRANCH   3  21
TORSDOF 5
ENDMDL
