MODEL 1
REMARK VINA RESULT:     114.5      0.000      0.000
REMARK  3 active torsions:
REMARK  status: ('A' for Active; 'I' for Inactive)
REMARK    1  A    between atoms: N_10  and  C_3 
REMARK    2  A    between atoms: C_13  and  C_5 
REMARK    3  A    between atoms: C_12  and  C_9 
ROOT
ATOM      1  N   UNL d   1      60.015  49.349  52.453  0.00  0.00    -0.196 N 
ATOM      2  C   UNL d   1      59.988  49.294  51.635  0.00  0.00     0.167 A 
ATOM      3  C   UNL d   1      59.325  49.485  52.884  0.00  0.00     0.152 A 
ATOM      4  N   UNL d   1      60.794  49.246  52.690  0.00  0.00    -0.163 NA
ATOM      5  C   UNL d   1      60.751  49.157  51.363  0.00  0.00     0.055 A 
ATOM      6  N   UNL d   1      59.271  49.374  51.235  0.00  0.00    -0.231 NA
ATOM      7  C   UNL d   1      58.607  49.566  52.484  0.00  0.00     0.052 A 
ATOM      8  C   UNL d   1      61.250  49.127  52.009  0.00  0.00     0.104 A 
ATOM      9  C   UNL d   1      58.580  49.511  51.666  0.00  0.00     0.063 A 
ATOM     10  C   UNL d   1      62.061  49.001  51.978  0.00  0.00     0.023 C 
ENDROOT
BRANCH   3  11
ATOM     11  N   UNL d   1      59.352  49.541  53.702  0.00  0.00    -0.286 N 
ATOM     12  C   UNL d   1      58.653  49.604  54.138  0.00  0.00     0.101 A 
ATOM     13  C   UNL d   1      58.680  49.659  54.961  0.00  0.00     0.100 A 
ATOM     14  N   UNL d   1      59.405  49.652  55.351  0.00  0.00    -0.299 N 
ATOM     15  C   UNL d   1      60.103  49.588  54.919  0.00  0.00     0.100 A 
ATOM     16  C   UNL d   1      59.432  49.707  56.174  0.00  0.00     0.100 C 
ATOM     17  C   UNL d   1      60.076  49.533  54.097  0.00  0.00     0.101 A 
ENDBRANCH   3  11
BRANCH   9  18
ATOM     18  C   UNL d   1      57.841  49.596  51.270  0.00  0.00     0.036 C 
ATOM     19  C   UNL d   1      57.110  49.680  50.879  0.00  0.00     0.006 C 
ATOM     20  C   UNL d   1      57.442  49.487  51.994  0.00  0.00     0.006 C 
ATOM     21  C   UNL d   1      58.244  49.705  50.547  0.00  0.00     0.006 C 
ENDBRANCH   9  18
BRANCH   5  22
ATOM     22  C   UNL d   1      61.059  49.055  50.604  0.00  0.00     0.004 A 
ATOM     23  C   UNL d   1      61.172  49.706  50.103  0.00  0.00     0.000 A 
ATOM     24  C   UNL d   1      61.480  49.600  49.347  0.00  0.00     0.000 A 
ATOM     25  C   UNL d   1      61.681  48.842  49.079  0.00  0.00     0.000 A 
ATOM     26  C   UNL d   1      61.567  48.187  49.583  0.00  0.00     0.000 A 
ATOM     27  C   UNL d   1      61.258  48.299  50.339  0.00  0.00     0.000 A 
ENDBRANCH   5  22
TORSDOF 3
ENDMDL
