MODEL 1
REMARK VINA RESULT:      51.4      0.000      0.000
REMARK  5 active torsions:
REMARK  status: ('A' for Active; 'I' for Inactive)
REMARK    1  A    between atoms: C_2  and  N_1 
REMARK    2  A    between atoms: C_5  and  C_18 
REMARK       I    between atoms: N_9  and  C_5 
REMARK    3  A    between atoms: O_15  and  C_7 
REMARK    4  A    between atoms: C_13  and  N_9 
REMARK    5  A    between atoms: C_18  and  O_15 
ROOT
ATOM      1  C   UNL d   1     -49.202  28.032  34.063  0.00  0.00     0.304 C 
ATOM      2  N   UNL d   1     -49.661  27.891  33.392  0.00  0.00    -0.206 NA
ATOM      3  O   UNL d   1     -49.253  27.525  34.711  0.00  0.00    -0.263 OA
ENDROOT
BRANCH   1   4
ATOM      4  C   UNL d   1     -48.692  28.681  34.085  0.00  0.00     0.185 C 
BRANCH   4   5
ATOM      5  O   UNL d   1     -48.487  29.019  34.808  0.00  0.00    -0.298 OA
BRANCH   5   6
ATOM      6  C   UNL d   1     -48.216  29.798  34.837  0.00  0.00     0.122 A 
ATOM      7  C   UNL d   1     -47.713  30.037  35.459  0.00  0.00     0.149 A 
ATOM      8  C   UNL d   1     -47.442  30.816  35.488  0.00  0.00     0.026 A 
ATOM      9  C   UNL d   1     -47.675  31.355  34.896  0.00  0.00     0.002 A 
ATOM     10  C   UNL d   1     -48.172  31.114  34.284  0.00  0.00     0.002 A 
ATOM     11  C   UNL d   1     -48.443  30.336  34.255  0.00  0.00     0.026 A 
BRANCH   7  12
ATOM     12  N   UNL d   1     -47.491  29.501  36.035  0.00  0.00    -0.112 N 
ATOM     13  O   UNL d   1     -47.739  29.612  36.813  0.00  0.00    -0.532 OA
ATOM     14  O   UNL d   1     -47.021  28.851  35.840  0.00  0.00    -0.532 OA
ENDBRANCH   7  12
ENDBRANCH   5   6
ENDBRANCH   4   5
ENDBRANCH   1   4
BRANCH   2  15
ATOM     15  C   UNL d   1     -50.170  27.242  33.369  0.00  0.00     0.087 A 
ATOM     16  C   UNL d   1     -49.863  26.476  33.367  0.00  0.00     0.045 A 
ATOM     17  C   UNL d   1     -50.372  25.828  33.345  0.00  0.00     0.121 A 
ATOM     18  O   UNL d   1     -50.229  25.016  33.337  0.00  0.00    -0.299 OA
ATOM     19  C   UNL d   1     -51.189  25.945  33.325  0.00  0.00     0.119 A 
ATOM     20  C   UNL d   1     -50.955  24.626  33.313  0.00  0.00     0.304 A 
ATOM     21  O   UNL d   1     -51.550  25.204  33.306  0.00  0.00    -0.300 OA
ATOM     22  C   UNL d   1     -51.489  26.706  33.328  0.00  0.00     0.028 A 
ATOM     23  C   UNL d   1     -50.980  27.355  33.350  0.00  0.00     0.021 A 
ENDBRANCH   2  15
TORSDOF 5
ENDMDL
MODEL 2
REMARK VINA RESULT:      53.5      1.189      5.154
REMARK  5 active torsions:
REMARK  status: ('A' for Active; 'I' for Inactive)
REMARK    1  A    between atoms: C_2  and  N_1 
REMARK    2  A    between atoms: C_5  and  C_18 
REMARK       I    between atoms: N_9  and  C_5 
REMARK    3  A    between atoms: O_15  and  C_7 
REMARK    4  A    between atoms: C_13  and  N_9 
REMARK    5  A    between atoms: C_18  and  O_15 
ROOT
ATOM      1  C   UNL d   1     -49.253  27.600  33.922  0.00  0.00     0.304 C 
ATOM      2  N   UNL d   1     -49.457  28.051  34.583  0.00  0.00    -0.206 NA
ATOM      3  O   UNL d   1     -48.466  27.556  33.680  0.00  0.00    -0.263 OA
ENDROOT
BRANCH   1   4
ATOM      4  C   UNL d   1     -49.837  27.195  33.503  0.00  0.00     0.185 C 
BRANCH   4   5
ATOM      5  O   UNL d   1     -49.808  26.372  33.449  0.00  0.00    -0.298 OA
BRANCH   5   6
ATOM      6  C   UNL d   1     -50.508  25.938  33.402  0.00  0.00     0.122 A 
ATOM      7  C   UNL d   1     -50.475  25.106  33.352  0.00  0.00     0.149 A 
ATOM      8  C   UNL d   1     -51.174  24.671  33.306  0.00  0.00     0.026 A 
ATOM      9  C   UNL d   1     -51.907  25.068  33.309  0.00  0.00     0.002 A 
ATOM     10  C   UNL d   1     -51.936  25.891  33.358  0.00  0.00     0.002 A 
ATOM     11  C   UNL d   1     -51.236  26.325  33.405  0.00  0.00     0.026 A 
BRANCH   7  12
ATOM     12  N   UNL d   1     -49.751  24.725  33.349  0.00  0.00    -0.112 N 
ATOM     13  O   UNL d   1     -49.723  23.901  33.385  0.00  0.00    -0.532 OA
ATOM     14  O   UNL d   1     -49.051  25.160  33.312  0.00  0.00    -0.532 OA
ENDBRANCH   7  12
ENDBRANCH   5   6
ENDBRANCH   4   5
ENDBRANCH   1   4
BRANCH   2  15
ATOM     15  C   UNL d   1     -48.874  28.457  35.001  0.00  0.00     0.087 A 
ATOM     16  C   UNL d   1     -48.558  29.156  34.695  0.00  0.00     0.045 A 
ATOM     17  C   UNL d   1     -47.974  29.562  35.114  0.00  0.00     0.121 A 
ATOM     18  O   UNL d   1     -47.564  30.258  34.951  0.00  0.00    -0.299 OA
ATOM     19  C   UNL d   1     -47.706  29.269  35.838  0.00  0.00     0.119 A 
ATOM     20  C   UNL d   1     -47.040  30.401  35.572  0.00  0.00     0.304 A 
ATOM     21  O   UNL d   1     -47.130  29.787  36.122  0.00  0.00    -0.300 OA
ATOM     22  C   UNL d   1     -48.023  28.577  36.137  0.00  0.00     0.028 A 
ATOM     23  C   UNL d   1     -48.606  28.171  35.718  0.00  0.00     0.021 A 
ENDBRANCH   2  15
TORSDOF 5
ENDMDL
MODEL 3
REMARK VINA RESULT:      54.2      0.935      1.372
REMARK  5 active torsions:
REMARK  status: ('A' for Active; 'I' for Inactive)
REMARK    1  A    between atoms: C_2  and  N_1 
REMARK    2  A    between atoms: C_5  and  C_18 
REMARK       I    between atoms: N_9  and  C_5 
REMARK    3  A    between atoms: O_15  and  C_7 
REMARK    4  A    between atoms: C_13  and  N_9 
REMARK    5  A    between atoms: C_18  and  O_15 
ROOT
ATOM      1  C   UNL d   1     -49.113  27.652  34.285  0.00  0.00     0.304 C 
ATOM      2  N   UNL d   1     -49.364  27.385  33.545  0.00  0.00    -0.206 NA
ATOM      3  O   UNL d   1     -49.471  27.363  34.969  0.00  0.00    -0.263 OA
ENDROOT
BRANCH   1   4
ATOM      4  C   UNL d   1     -48.506  28.208  34.339  0.00  0.00     0.185 C 
BRANCH   4   5
ATOM      5  O   UNL d   1     -48.635  28.922  34.730  0.00  0.00    -0.298 OA
BRANCH   5   6
ATOM      6  C   UNL d   1     -48.010  29.300  35.116  0.00  0.00     0.122 A 
ATOM      7  C   UNL d   1     -47.891  30.118  35.004  0.00  0.00     0.149 A 
ATOM      8  C   UNL d   1     -47.266  30.495  35.390  0.00  0.00     0.026 A 
ATOM      9  C   UNL d   1     -46.762  30.054  35.886  0.00  0.00     0.002 A 
ATOM     10  C   UNL d   1     -46.884  29.246  35.993  0.00  0.00     0.002 A 
ATOM     11  C   UNL d   1     -47.508  28.869  35.608  0.00  0.00     0.026 A 
BRANCH   7  12
ATOM     12  N   UNL d   1     -48.391  30.542  34.515  0.00  0.00    -0.112 N 
ATOM     13  O   UNL d   1     -48.082  30.936  33.859  0.00  0.00    -0.532 OA
ATOM     14  O   UNL d   1     -49.199  30.576  34.675  0.00  0.00    -0.532 OA
ENDBRANCH   7  12
ENDBRANCH   5   6
ENDBRANCH   4   5
ENDBRANCH   1   4
BRANCH   2  15
ATOM     15  C   UNL d   1     -49.971  26.830  33.490  0.00  0.00     0.087 A 
ATOM     16  C   UNL d   1     -49.793  26.024  33.476  0.00  0.00     0.045 A 
ATOM     17  C   UNL d   1     -50.400  25.469  33.422  0.00  0.00     0.121 A 
ATOM     18  O   UNL d   1     -50.392  24.645  33.397  0.00  0.00    -0.299 OA
ATOM     19  C   UNL d   1     -51.186  25.719  33.381  0.00  0.00     0.119 A 
ATOM     20  C   UNL d   1     -51.171  24.379  33.341  0.00  0.00     0.304 A 
ATOM     21  O   UNL d   1     -51.662  25.047  33.331  0.00  0.00    -0.300 OA
ATOM     22  C   UNL d   1     -51.358  26.518  33.395  0.00  0.00     0.028 A 
ATOM     23  C   UNL d   1     -50.750  27.074  33.450  0.00  0.00     0.021 A 
ENDBRANCH   2  15
TORSDOF 5
ENDMDL
