MODEL 1
REMARK VINA RESULT:      18.9      0.000      0.000
REMARK  3 active torsions:
REMARK  status: ('A' for Active; 'I' for Inactive)
REMARK       I    between atoms: N_2  and  C_1 
REMARK    1  A    between atoms: C_4  and  C_1 
REMARK    2  A    between atoms: C_3  and  N_2 
REMARK    3  A    between atoms: C_5  and  C_6 
ROOT
ATOM      1  C   UNL d   1      45.901 -13.424  44.450  0.00  0.00     0.058 A 
ATOM      2  C   UNL d   1      45.586 -15.008  44.434  0.00  0.00    -0.023 A 
ATOM      3  C   UNL d   1      46.320 -13.891  43.962  0.00  0.00     0.004 A 
ATOM      4  C   UNL d   1      45.308 -13.700  44.955  0.00  0.00     0.004 A 
ATOM      5  C   UNL d   1      45.156 -14.510  44.937  0.00  0.00    -0.004 A 
ATOM      6  C   UNL d   1      46.160 -14.699  43.954  0.00  0.00    -0.004 A 
ENDROOT
BRANCH   1   7
ATOM      7  C   UNL d   1      46.073 -12.604  44.449  0.00  0.00     0.279 C 
ATOM      8  N   UNL d   1      45.674 -12.081  43.947  0.00  0.00    -0.207 NA
ATOM      9  O   UNL d   1      46.643 -12.306  44.950  0.00  0.00    -0.265 OA
BRANCH   8  10
ATOM     10  C   UNL d   1      45.101 -12.377  43.442  0.00  0.00     0.095 A 
ATOM     11  C   UNL d   1      45.241 -12.440  42.659  0.00  0.00     0.075 A 
ATOM     12 CL   UNL d   1      45.975 -12.206  42.329  0.00  0.00    -0.081 Cl
ATOM     13  C   UNL d   1      44.662 -12.742  42.136  0.00  0.00     0.013 A 
ATOM     14  C   UNL d   1      43.927 -12.977  42.466  0.00  0.00     0.001 A 
ATOM     15  C   UNL d   1      43.798 -12.907  43.269  0.00  0.00     0.002 A 
ATOM     16  C   UNL d   1      44.361 -12.617  43.754  0.00  0.00     0.020 A 
ENDBRANCH   8  10
ENDBRANCH   1   7
BRANCH   2  17
ATOM     17  C   UNL d   1      45.426 -15.814  44.425  0.00  0.00     0.019 C 
ATOM     18  C   UNL d   1      46.089 -15.941  43.952  0.00  0.00     0.004 C 
ATOM     19  C   UNL d   1      44.765 -15.687  44.897  0.00  0.00     0.004 C 
ATOM     20  C   UNL d   1      45.265 -16.623  44.417  0.00  0.00     0.004 C 
ENDBRANCH   2  17
TORSDOF 3
ENDMDL
