MODEL 1
REMARK VINA RESULT:      -8.4      0.000      0.000
REMARK  6 active torsions:
REMARK  status: ('A' for Active; 'I' for Inactive)
REMARK    1  A    between atoms: C_11  and  N_2 
REMARK    2  A    between atoms: O_15  and  C_9 
REMARK    3  A    between atoms: C_10  and  O_14 
REMARK    4  A    between atoms: C_16  and  C_11 
REMARK    5  A    between atoms: O_14  and  C_17 
REMARK    6  A    between atoms: C_17  and  C_16 
ROOT
ATOM      1  C   UNL d   1      52.044  34.256  53.070  0.00  0.00     0.087 C 
ENDROOT
BRANCH   1   2
ATOM      2  N   UNL d   1      52.645  34.228  53.638  0.00  0.00    -0.251 N 
ATOM      3  C   UNL d   1      52.923  34.837  54.126  0.00  0.00     0.378 A 
ATOM      4  O   UNL d   1      53.533  34.524  54.598  0.00  0.00    -0.258 OA
ATOM      5  O   UNL d   1      52.646  35.613  54.142  0.00  0.00    -0.237 OA
ATOM      6  C   UNL d   1      53.630  33.727  54.401  0.00  0.00     0.121 A 
ATOM      7  C   UNL d   1      54.144  33.134  54.679  0.00  0.00     0.026 A 
ATOM      8  C   UNL d   1      53.081  33.543  53.807  0.00  0.00     0.092 A 
ATOM      9  C   UNL d   1      54.108  32.372  54.368  0.00  0.00     0.002 A 
ATOM     10  C   UNL d   1      53.558  32.192  53.774  0.00  0.00     0.002 A 
ATOM     11  C   UNL d   1      53.048  32.775  53.496  0.00  0.00     0.020 A 
ATOM     12  C   UNL d   1      53.522  31.432  53.463  0.00  0.00     0.000 C 
ENDBRANCH   1   2
BRANCH   1  13
ATOM     13  C   UNL d   1      51.267  34.406  53.291  0.00  0.00     0.046 C 
BRANCH  13  14
ATOM     14  C   UNL d   1      50.662  34.408  52.728  0.00  0.00     0.124 C 
BRANCH  14  15
ATOM     15  O   UNL d   1      49.925  34.705  52.915  0.00  0.00    -0.303 OA
BRANCH  15  16
ATOM     16  C   UNL d   1      49.393  34.765  52.292  0.00  0.00     0.122 A 
ATOM     17  C   UNL d   1      48.701  35.214  52.382  0.00  0.00     0.117 A 
ATOM     18  C   UNL d   1      48.166  35.274  51.755  0.00  0.00     0.026 A 
ATOM     19  C   UNL d   1      48.329  34.887  51.045  0.00  0.00     0.002 A 
ATOM     20  C   UNL d   1      49.018  34.443  50.962  0.00  0.00     0.002 A 
ATOM     21  C   UNL d   1      49.550  34.382  51.585  0.00  0.00     0.027 A 
BRANCH  17  22
ATOM     22  O   UNL d   1      48.548  35.597  53.095  0.00  0.00    -0.326 OA
ATOM     23  C   UNL d   1      47.902  36.085  53.225  0.00  0.00     0.181 C 
ENDBRANCH  17  22
ENDBRANCH  15  16
ENDBRANCH  14  15
ENDBRANCH  13  14
ENDBRANCH   1  13
TORSDOF 6
ENDMDL
MODEL 2
REMARK VINA RESULT:      -7.9      2.572      4.938
REMARK  6 active torsions:
REMARK  status: ('A' for Active; 'I' for Inactive)
REMARK    1  A    between atoms: C_11  and  N_2 
REMARK    2  A    between atoms: O_15  and  C_9 
REMARK    3  A    between atoms: C_10  and  O_14 
REMARK    4  A    between atoms: C_16  and  C_11 
REMARK    5  A    between atoms: O_14  and  C_17 
REMARK    6  A    between atoms: C_17  and  C_16 
ROOT
ATOM      1  C   UNL d   1      54.297  32.990  53.995  0.00  0.00     0.087 C 
ENDROOT
BRANCH   1   2
ATOM      2  N   UNL d   1      54.091  33.702  54.365  0.00  0.00    -0.251 N 
ATOM      3  C   UNL d   1      54.443  34.064  55.021  0.00  0.00     0.378 A 
ATOM      4  O   UNL d   1      54.029  34.770  55.172  0.00  0.00    -0.258 OA
ATOM      5  O   UNL d   1      55.088  33.778  55.448  0.00  0.00    -0.237 OA
ATOM      6  C   UNL d   1      53.426  34.842  54.612  0.00  0.00     0.121 A 
ATOM      7  C   UNL d   1      52.840  35.419  54.482  0.00  0.00     0.026 A 
ATOM      8  C   UNL d   1      53.463  34.181  54.112  0.00  0.00     0.092 A 
ATOM      9  C   UNL d   1      52.303  35.336  53.863  0.00  0.00     0.002 A 
ATOM     10  C   UNL d   1      52.344  34.674  53.365  0.00  0.00     0.002 A 
ATOM     11  C   UNL d   1      52.921  34.100  53.489  0.00  0.00     0.020 A 
ATOM     12  C   UNL d   1      51.808  34.590  52.747  0.00  0.00     0.000 C 
ENDBRANCH   1   2
BRANCH   1  13
ATOM     13  C   UNL d   1      54.117  32.270  54.347  0.00  0.00     0.046 C 
BRANCH  13  14
ATOM     14  C   UNL d   1      53.949  31.606  53.884  0.00  0.00     0.124 C 
BRANCH  14  15
ATOM     15  O   UNL d   1      53.748  30.898  54.236  0.00  0.00    -0.303 OA
BRANCH  15  16
ATOM     16  C   UNL d   1      53.350  30.360  53.759  0.00  0.00     0.122 A 
ATOM     17  C   UNL d   1      53.174  29.602  54.048  0.00  0.00     0.117 A 
ATOM     18  C   UNL d   1      52.773  29.062  53.568  0.00  0.00     0.026 A 
ATOM     19  C   UNL d   1      52.553  29.284  52.805  0.00  0.00     0.002 A 
ATOM     20  C   UNL d   1      52.730  30.038  52.524  0.00  0.00     0.002 A 
ATOM     21  C   UNL d   1      53.129  30.576  53.001  0.00  0.00     0.027 A 
BRANCH  17  22
ATOM     22  O   UNL d   1      53.399  29.391  54.812  0.00  0.00    -0.326 OA
ATOM     23  C   UNL d   1      53.393  28.621  55.096  0.00  0.00     0.181 C 
ENDBRANCH  17  22
ENDBRANCH  15  16
ENDBRANCH  14  15
ENDBRANCH  13  14
ENDBRANCH   1  13
TORSDOF 6
ENDMDL
MODEL 3
REMARK VINA RESULT:      -7.9      1.094      1.597
REMARK  6 active torsions:
REMARK  status: ('A' for Active; 'I' for Inactive)
REMARK    1  A    between atoms: C_11  and  N_2 
REMARK    2  A    between atoms: O_15  and  C_9 
REMARK    3  A    between atoms: C_10  and  O_14 
REMARK    4  A    between atoms: C_16  and  C_11 
REMARK    5  A    between atoms: O_14  and  C_17 
REMARK    6  A    between atoms: C_17  and  C_16 
ROOT
ATOM      1  C   UNL d   1      52.077  33.703  52.875  0.00  0.00     0.087 C 
ENDROOT
BRANCH   1   2
ATOM      2  N   UNL d   1      52.564  33.120  53.203  0.00  0.00    -0.251 N 
ATOM      3  C   UNL d   1      52.626  32.320  52.996  0.00  0.00     0.378 A 
ATOM      4  O   UNL d   1      53.195  31.972  53.494  0.00  0.00    -0.258 OA
ATOM      5  O   UNL d   1      52.199  31.937  52.403  0.00  0.00    -0.237 OA
ATOM      6  C   UNL d   1      53.482  32.555  54.005  0.00  0.00     0.121 A 
ATOM      7  C   UNL d   1      54.049  32.543  54.615  0.00  0.00     0.026 A 
ATOM      8  C   UNL d   1      53.093  33.265  53.826  0.00  0.00     0.092 A 
ATOM      9  C   UNL d   1      54.221  33.229  55.037  0.00  0.00     0.002 A 
ATOM     10  C   UNL d   1      53.830  33.937  54.855  0.00  0.00     0.002 A 
ATOM     11  C   UNL d   1      53.269  33.954  54.253  0.00  0.00     0.020 A 
ATOM     12  C   UNL d   1      54.002  34.622  55.276  0.00  0.00     0.000 C 
ENDBRANCH   1   2
BRANCH   1  13
ATOM     13  C   UNL d   1      51.265  33.686  52.998  0.00  0.00     0.046 C 
BRANCH  13  14
ATOM     14  C   UNL d   1      50.758  34.130  52.519  0.00  0.00     0.124 C 
BRANCH  14  15
ATOM     15  O   UNL d   1      50.087  34.471  52.833  0.00  0.00    -0.303 OA
BRANCH  15  16
ATOM     16  C   UNL d   1      49.494  34.659  52.296  0.00  0.00     0.122 A 
ATOM     17  C   UNL d   1      48.876  35.164  52.523  0.00  0.00     0.117 A 
ATOM     18  C   UNL d   1      48.280  35.353  51.984  0.00  0.00     0.026 A 
ATOM     19  C   UNL d   1      48.308  35.035  51.223  0.00  0.00     0.002 A 
ATOM     20  C   UNL d   1      48.924  34.534  51.003  0.00  0.00     0.002 A 
ATOM     21  C   UNL d   1      49.517  34.347  51.540  0.00  0.00     0.027 A 
BRANCH  17  22
ATOM     22  O   UNL d   1      48.858  35.476  53.286  0.00  0.00    -0.326 OA
ATOM     23  C   UNL d   1      48.272  35.978  53.563  0.00  0.00     0.181 C 
ENDBRANCH  17  22
ENDBRANCH  15  16
ENDBRANCH  14  15
ENDBRANCH  13  14
ENDBRANCH   1  13
TORSDOF 6
ENDMDL
MODEL 4
REMARK VINA RESULT:      -7.3      1.450      5.416
REMARK  6 active torsions:
REMARK  status: ('A' for Active; 'I' for Inactive)
REMARK    1  A    between atoms: C_11  and  N_2 
REMARK    2  A    between atoms: O_15  and  C_9 
REMARK    3  A    between atoms: C_10  and  O_14 
REMARK    4  A    between atoms: C_16  and  C_11 
REMARK    5  A    between atoms: O_14  and  C_17 
REMARK    6  A    between atoms: C_17  and  C_16 
ROOT
ATOM      1  C   UNL d   1      49.469  34.554  52.644  0.00  0.00     0.087 C 
ENDROOT
BRANCH   1   2
ATOM      2  N   UNL d   1      48.869  34.925  52.211  0.00  0.00    -0.251 N 
ATOM      3  C   UNL d   1      48.662  34.816  51.417  0.00  0.00     0.378 A 
ATOM      4  O   UNL d   1      48.021  35.320  51.250  0.00  0.00    -0.258 OA
ATOM      5  O   UNL d   1      49.025  34.300  50.885  0.00  0.00    -0.237 OA
ATOM      6  C   UNL d   1      47.835  35.738  51.939  0.00  0.00     0.121 A 
ATOM      7  C   UNL d   1      47.257  36.312  52.114  0.00  0.00     0.026 A 
ATOM      8  C   UNL d   1      48.359  35.494  52.534  0.00  0.00     0.092 A 
ATOM      9  C   UNL d   1      47.207  36.634  52.870  0.00  0.00     0.002 A 
ATOM     10  C   UNL d   1      47.732  36.388  53.462  0.00  0.00     0.002 A 
ATOM     11  C   UNL d   1      48.305  35.820  53.294  0.00  0.00     0.020 A 
ATOM     12  C   UNL d   1      47.682  36.709  54.217  0.00  0.00     0.000 C 
ENDBRANCH   1   2
BRANCH   1  13
ATOM     13  C   UNL d   1      50.229  34.495  52.338  0.00  0.00     0.046 C 
BRANCH  13  14
ATOM     14  C   UNL d   1      50.877  34.387  52.839  0.00  0.00     0.124 C 
BRANCH  14  15
ATOM     15  O   UNL d   1      51.457  33.843  52.653  0.00  0.00    -0.303 OA
BRANCH  15  16
ATOM     16  C   UNL d   1      52.134  33.867  53.118  0.00  0.00     0.122 A 
ATOM     17  C   UNL d   1      52.598  33.184  53.209  0.00  0.00     0.117 A 
ATOM     18  C   UNL d   1      53.278  33.209  53.676  0.00  0.00     0.026 A 
ATOM     19  C   UNL d   1      53.489  33.914  54.048  0.00  0.00     0.002 A 
ATOM     20  C   UNL d   1      53.025  34.588  53.954  0.00  0.00     0.002 A 
ATOM     21  C   UNL d   1      52.348  34.565  53.489  0.00  0.00     0.027 A 
BRANCH  17  22
ATOM     22  O   UNL d   1      52.378  32.485  52.833  0.00  0.00    -0.326 OA
ATOM     23  C   UNL d   1      52.771  31.771  52.924  0.00  0.00     0.181 C 
ENDBRANCH  17  22
ENDBRANCH  15  16
ENDBRANCH  14  15
ENDBRANCH  13  14
ENDBRANCH   1  13
TORSDOF 6
ENDMDL
MODEL 5
REMARK VINA RESULT:      -5.9      2.347      4.559
REMARK  6 active torsions:
REMARK  status: ('A' for Active; 'I' for Inactive)
REMARK    1  A    between atoms: C_11  and  N_2 
REMARK    2  A    between atoms: O_15  and  C_9 
REMARK    3  A    between atoms: C_10  and  O_14 
REMARK    4  A    between atoms: C_16  and  C_11 
REMARK    5  A    between atoms: O_14  and  C_17 
REMARK    6  A    between atoms: C_17  and  C_16 
ROOT
ATOM      1  C   UNL d   1      52.912  33.183  52.739  0.00  0.00     0.087 C 
ENDROOT
BRANCH   1   2
ATOM      2  N   UNL d   1      52.687  33.875  53.134  0.00  0.00    -0.251 N 
ATOM      3  C   UNL d   1      52.073  34.398  52.951  0.00  0.00     0.378 A 
ATOM      4  O   UNL d   1      52.079  35.006  53.520  0.00  0.00    -0.258 OA
ATOM      5  O   UNL d   1      51.548  34.331  52.318  0.00  0.00    -0.237 OA
ATOM      6  C   UNL d   1      52.694  34.856  54.051  0.00  0.00     0.121 A 
ATOM      7  C   UNL d   1      52.970  35.259  54.726  0.00  0.00     0.026 A 
ATOM      8  C   UNL d   1      53.071  34.156  53.813  0.00  0.00     0.092 A 
ATOM      9  C   UNL d   1      53.611  34.967  55.152  0.00  0.00     0.002 A 
ATOM     10  C   UNL d   1      53.985  34.267  54.911  0.00  0.00     0.002 A 
ATOM     11  C   UNL d   1      53.716  33.865  54.245  0.00  0.00     0.020 A 
ATOM     12  C   UNL d   1      54.625  33.975  55.337  0.00  0.00     0.000 C 
ENDBRANCH   1   2
BRANCH   1  13
ATOM     13  C   UNL d   1      52.481  32.490  52.831  0.00  0.00     0.046 C 
BRANCH  13  14
ATOM     14  C   UNL d   1      52.854  31.754  52.789  0.00  0.00     0.124 C 
BRANCH  14  15
ATOM     15  O   UNL d   1      52.420  31.066  52.859  0.00  0.00    -0.303 OA
BRANCH  15  16
ATOM     16  C   UNL d   1      52.791  30.445  53.249  0.00  0.00     0.122 A 
ATOM     17  C   UNL d   1      52.336  29.837  53.584  0.00  0.00     0.117 A 
ATOM     18  C   UNL d   1      52.709  29.213  53.976  0.00  0.00     0.026 A 
ATOM     19  C   UNL d   1      53.532  29.202  54.027  0.00  0.00     0.002 A 
ATOM     20  C   UNL d   1      53.978  29.807  53.692  0.00  0.00     0.002 A 
ATOM     21  C   UNL d   1      53.607  30.429  53.303  0.00  0.00     0.027 A 
BRANCH  17  22
ATOM     22  O   UNL d   1      51.514  29.859  53.527  0.00  0.00    -0.326 OA
ATOM     23  C   UNL d   1      51.013  29.328  53.902  0.00  0.00     0.181 C 
ENDBRANCH  17  22
ENDBRANCH  15  16
ENDBRANCH  14  15
ENDBRANCH  13  14
ENDBRANCH   1  13
TORSDOF 6
ENDMDL
