MODEL 1
REMARK VINA RESULT:      -2.0      0.000      0.000
REMARK  5 active torsions:
REMARK  status: ('A' for Active; 'I' for Inactive)
REMARK    1  A    between atoms: N_2  and  S_1 
REMARK    2  A    between atoms: C_4  and  S_1 
REMARK    3  A    between atoms: C_3  and  N_2 
REMARK       I    between atoms: C_6  and  N_2 
REMARK    4  A    between atoms: O_13  and  C_7 
REMARK    5  A    between atoms: C_14  and  O_13 
ROOT
ATOM      1  C   UNL d   1      31.722  17.524 -24.332  0.00  0.00     0.078 A 
ATOM      2  C   UNL d   1      32.232  17.474 -23.669  0.00  0.00     0.019 A 
ATOM      3  C   UNL d   1      32.717  18.776 -23.940  0.00  0.00     0.103 A 
ATOM      4  C   UNL d   1      32.719  18.112 -23.493  0.00  0.00     0.024 A 
ATOM      5  C   UNL d   1      31.743  18.212 -24.768  0.00  0.00     0.020 A 
ATOM      6  C   UNL d   1      32.228  18.858 -24.599  0.00  0.00     0.026 A 
ATOM      7  C   UNL d   1      32.249  16.804 -23.199  0.00  0.00     0.002 A 
ATOM      8  C   UNL d   1      33.223  18.083 -22.851  0.00  0.00     0.002 A 
ATOM      9  C   UNL d   1      32.750  16.767 -22.555  0.00  0.00     0.000 A 
ATOM     10  C   UNL d   1      33.241  17.412 -22.380  0.00  0.00     0.000 A 
ENDROOT
BRANCH   1  11
ATOM     11  N   UNL d   1      31.234  16.890 -24.513  0.00  0.00    -0.198 N 
ATOM     12  C   UNL d   1      31.542  16.200 -24.838  0.00  0.00     0.274 C 
ATOM     13  O   UNL d   1      32.340  16.143 -24.984  0.00  0.00    -0.266 OA
ATOM     14  C   UNL d   1      31.254  15.454 -25.094  0.00  0.00     0.067 C 
BRANCH  11  15
ATOM     15  S   UNL d   1      30.403  16.961 -24.355  0.00  0.00     0.279 S 
ATOM     16  O   UNL d   1      30.547  16.585 -23.620  0.00  0.00    -0.199 OA
ATOM     17  O   UNL d   1      30.319  17.326 -25.090  0.00  0.00    -0.199 OA
BRANCH  15  18
ATOM     18  C   UNL d   1      29.608  17.024 -24.193  0.00  0.00     0.133 A 
ATOM     19  S   UNL d   1      29.081  16.405 -24.027  0.00  0.00    -0.074 SA
ATOM     20  C   UNL d   1      28.318  16.674 -23.890  0.00  0.00     0.036 A 
ATOM     21  C   UNL d   1      28.344  17.508 -23.969  0.00  0.00     0.008 A 
ATOM     22  C   UNL d   1      29.115  17.743 -24.153  0.00  0.00     0.020 A 
ENDBRANCH  15  18
ENDBRANCH  11  15
ENDBRANCH   1  11
BRANCH   3  23
ATOM     23  O   UNL d   1      33.241  19.441 -23.736  0.00  0.00    -0.273 OA
BRANCH  23  24
ATOM     24  C   UNL d   1      33.202  20.182 -24.148  0.00  0.00     0.300 C 
ATOM     25  O   UNL d   1      33.176  20.213 -24.978  0.00  0.00    -0.259 OA
ATOM     26  C   UNL d   1      33.186  20.997 -23.665  0.00  0.00     0.074 C 
ENDBRANCH  23  24
ENDBRANCH   3  23
TORSDOF 5
ENDMDL
MODEL 2
REMARK VINA RESULT:      -1.4      1.484      3.687
REMARK  5 active torsions:
REMARK  status: ('A' for Active; 'I' for Inactive)
REMARK    1  A    between atoms: N_2  and  S_1 
REMARK    2  A    between atoms: C_4  and  S_1 
REMARK    3  A    between atoms: C_3  and  N_2 
REMARK       I    between atoms: C_6  and  N_2 
REMARK    4  A    between atoms: O_13  and  C_7 
REMARK    5  A    between atoms: C_14  and  O_13 
ROOT
ATOM      1  C   UNL d   1      31.138  16.775 -24.357  0.00  0.00     0.078 A 
ATOM      2  C   UNL d   1      30.755  16.326 -23.763  0.00  0.00     0.019 A 
ATOM      3  C   UNL d   1      29.495  16.658 -24.317  0.00  0.00     0.103 A 
ATOM      4  C   UNL d   1      29.934  16.282 -23.764  0.00  0.00     0.024 A 
ATOM      5  C   UNL d   1      30.664  17.146 -24.907  0.00  0.00     0.020 A 
ATOM      6  C   UNL d   1      29.840  17.108 -24.917  0.00  0.00     0.026 A 
ATOM      7  C   UNL d   1      31.185  15.933 -23.187  0.00  0.00     0.002 A 
ATOM      8  C   UNL d   1      29.542  15.849 -23.192  0.00  0.00     0.002 A 
ATOM      9  C   UNL d   1      30.800  15.499 -22.612  0.00  0.00     0.000 A 
ATOM     10  C   UNL d   1      29.972  15.457 -22.616  0.00  0.00     0.000 A 
ENDROOT
BRANCH   1  11
ATOM     11  N   UNL d   1      31.956  16.821 -24.361  0.00  0.00    -0.198 N 
ATOM     12  C   UNL d   1      32.410  16.233 -24.715  0.00  0.00     0.274 C 
ATOM     13  O   UNL d   1      32.045  15.598 -25.066  0.00  0.00    -0.266 OA
ATOM     14  C   UNL d   1      33.225  16.070 -24.840  0.00  0.00     0.067 C 
BRANCH  11  15
ATOM     15  S   UNL d   1      32.326  17.491 -23.991  0.00  0.00     0.279 S 
ATOM     16  O   UNL d   1      32.069  17.947 -24.646  0.00  0.00    -0.199 OA
ATOM     17  O   UNL d   1      32.552  16.994 -23.374  0.00  0.00    -0.199 OA
BRANCH  15  18
ATOM     18  C   UNL d   1      32.676  18.139 -23.647  0.00  0.00     0.133 A 
ATOM     19  S   UNL d   1      32.897  18.846 -24.021  0.00  0.00    -0.074 SA
ATOM     20  C   UNL d   1      33.237  19.381 -23.500  0.00  0.00     0.036 A 
ATOM     21  C   UNL d   1      33.240  19.010 -22.749  0.00  0.00     0.008 A 
ATOM     22  C   UNL d   1      32.905  18.256 -22.813  0.00  0.00     0.020 A 
ENDBRANCH  15  18
ENDBRANCH  11  15
ENDBRANCH   1  11
BRANCH   3  23
ATOM     23  O   UNL d   1      28.627  16.599 -24.301  0.00  0.00    -0.273 OA
BRANCH  23  24
ATOM     24  C   UNL d   1      28.140  17.253 -24.066  0.00  0.00     0.300 C 
ATOM     25  O   UNL d   1      28.119  17.956 -24.509  0.00  0.00    -0.259 OA
ATOM     26  C   UNL d   1      27.605  17.195 -23.286  0.00  0.00     0.074 C 
ENDBRANCH  23  24
ENDBRANCH   3  23
TORSDOF 5
ENDMDL
MODEL 3
REMARK VINA RESULT:      -0.9      1.755      3.917
REMARK  5 active torsions:
REMARK  status: ('A' for Active; 'I' for Inactive)
REMARK    1  A    between atoms: N_2  and  S_1 
REMARK    2  A    between atoms: C_4  and  S_1 
REMARK    3  A    between atoms: C_3  and  N_2 
REMARK       I    between atoms: C_6  and  N_2 
REMARK    4  A    between atoms: O_13  and  C_7 
REMARK    5  A    between atoms: C_14  and  O_13 
ROOT
ATOM      1  C   UNL d   1      31.886  18.150 -23.662  0.00  0.00     0.078 A 
ATOM      2  C   UNL d   1      32.174  17.370 -23.760  0.00  0.00     0.019 A 
ATOM      3  C   UNL d   1      30.860  16.862 -23.619  0.00  0.00     0.103 A 
ATOM      4  C   UNL d   1      31.643  16.743 -23.735  0.00  0.00     0.024 A 
ATOM      5  C   UNL d   1      31.085  18.240 -23.546  0.00  0.00     0.020 A 
ATOM      6  C   UNL d   1      30.543  17.618 -23.518  0.00  0.00     0.026 A 
ATOM      7  C   UNL d   1      32.971  17.225 -23.880  0.00  0.00     0.002 A 
ATOM      8  C   UNL d   1      31.903  15.974 -23.828  0.00  0.00     0.002 A 
ATOM      9  C   UNL d   1      33.240  16.460 -23.975  0.00  0.00     0.000 A 
ATOM     10  C   UNL d   1      32.701  15.830 -23.948  0.00  0.00     0.000 A 
ENDROOT
BRANCH   1  11
ATOM     11  N   UNL d   1      32.412  18.779 -23.687  0.00  0.00    -0.198 N 
ATOM     12  C   UNL d   1      32.713  19.049 -24.403  0.00  0.00     0.274 C 
ATOM     13  O   UNL d   1      32.487  18.689 -25.097  0.00  0.00    -0.266 OA
ATOM     14  C   UNL d   1      33.239  19.647 -24.668  0.00  0.00     0.067 C 
BRANCH  11  15
ATOM     15  S   UNL d   1      32.640  19.145 -22.955  0.00  0.00     0.279 S 
ATOM     16  O   UNL d   1      32.031  19.706 -23.090  0.00  0.00    -0.199 OA
ATOM     17  O   UNL d   1      33.222  18.568 -22.875  0.00  0.00    -0.199 OA
BRANCH  15  18
ATOM     18  C   UNL d   1      32.849  19.505 -22.257  0.00  0.00     0.133 A 
ATOM     19  S   UNL d   1      32.888  20.320 -22.106  0.00  0.00    -0.074 SA
ATOM     20  C   UNL d   1      33.120  20.484 -21.336  0.00  0.00     0.036 A 
ATOM     21  C   UNL d   1      33.239  19.744 -20.963  0.00  0.00     0.008 A 
ATOM     22  C   UNL d   1      33.081  19.135 -21.501  0.00  0.00     0.020 A 
ENDBRANCH  15  18
ENDBRANCH  11  15
ENDBRANCH   1  11
BRANCH   3  23
ATOM     23  O   UNL d   1      30.313  16.186 -23.595  0.00  0.00    -0.273 OA
BRANCH  23  24
ATOM     24  C   UNL d   1      29.494  16.266 -23.801  0.00  0.00     0.300 C 
ATOM     25  O   UNL d   1      29.263  16.539 -24.552  0.00  0.00    -0.259 OA
ATOM     26  C   UNL d   1      28.819  16.045 -23.174  0.00  0.00     0.074 C 
ENDBRANCH  23  24
ENDBRANCH   3  23
TORSDOF 5
ENDMDL
MODEL 4
REMARK VINA RESULT:      -0.3      1.090      1.345
REMARK  5 active torsions:
REMARK  status: ('A' for Active; 'I' for Inactive)
REMARK    1  A    between atoms: N_2  and  S_1 
REMARK    2  A    between atoms: C_4  and  S_1 
REMARK    3  A    between atoms: C_3  and  N_2 
REMARK       I    between atoms: C_6  and  N_2 
REMARK    4  A    between atoms: O_13  and  C_7 
REMARK    5  A    between atoms: C_14  and  O_13 
ROOT
ATOM      1  C   UNL d   1      30.754  17.018 -24.186  0.00  0.00     0.078 A 
ATOM      2  C   UNL d   1      31.287  16.657 -23.650  0.00  0.00     0.019 A 
ATOM      3  C   UNL d   1      32.213  17.708 -23.858  0.00  0.00     0.103 A 
ATOM      4  C   UNL d   1      32.010  17.020 -23.503  0.00  0.00     0.024 A 
ATOM      5  C   UNL d   1      30.989  17.717 -24.532  0.00  0.00     0.020 A 
ATOM      6  C   UNL d   1      31.711  18.090 -24.391  0.00  0.00     0.026 A 
ATOM      7  C   UNL d   1      31.100  15.954 -23.276  0.00  0.00     0.002 A 
ATOM      8  C   UNL d   1      32.544  16.685 -22.984  0.00  0.00     0.002 A 
ATOM      9  C   UNL d   1      31.628  15.612 -22.756  0.00  0.00     0.000 A 
ATOM     10  C   UNL d   1      32.356  15.981 -22.609  0.00  0.00     0.000 A 
ENDROOT
BRANCH   1  11
ATOM     11  N   UNL d   1      30.032  16.659 -24.337  0.00  0.00    -0.198 N 
ATOM     12  C   UNL d   1      29.988  15.975 -24.792  0.00  0.00     0.274 C 
ATOM     13  O   UNL d   1      30.667  15.649 -25.097  0.00  0.00    -0.266 OA
ATOM     14  C   UNL d   1      29.392  15.453 -25.069  0.00  0.00     0.067 C 
BRANCH  11  15
ATOM     15  S   UNL d   1      29.330  17.010 -24.012  0.00  0.00     0.279 S 
ATOM     16  O   UNL d   1      29.410  16.481 -23.366  0.00  0.00    -0.199 OA
ATOM     17  O   UNL d   1      29.301  17.504 -24.671  0.00  0.00    -0.199 OA
BRANCH  15  18
ATOM     18  C   UNL d   1      28.659  17.337 -23.691  0.00  0.00     0.133 A 
ATOM     19  S   UNL d   1      28.132  16.979 -23.160  0.00  0.00    -0.074 SA
ATOM     20  C   UNL d   1      27.512  17.476 -22.952  0.00  0.00     0.036 A 
ATOM     21  C   UNL d   1      27.637  18.194 -23.365  0.00  0.00     0.008 A 
ATOM     22  C   UNL d   1      28.325  18.134 -23.820  0.00  0.00     0.020 A 
ENDBRANCH  15  18
ENDBRANCH  11  15
ENDBRANCH   1  11
BRANCH   3  23
ATOM     23  O   UNL d   1      32.983  18.077 -23.689  0.00  0.00    -0.273 OA
BRANCH  23  24
ATOM     24  C   UNL d   1      33.132  18.896 -23.855  0.00  0.00     0.300 C 
ATOM     25  O   UNL d   1      33.213  19.168 -24.636  0.00  0.00    -0.259 OA
ATOM     26  C   UNL d   1      33.210  19.521 -23.148  0.00  0.00     0.074 C 
ENDBRANCH  23  24
ENDBRANCH   3  23
TORSDOF 5
ENDMDL
