MODEL 1
REMARK VINA RESULT:      65.1      0.000      0.000
REMARK  5 active torsions:
REMARK  status: ('A' for Active; 'I' for Inactive)
REMARK    1  A    between atoms: N_6  and  S_1 
REMARK    2  A    between atoms: C_11  and  S_1 
REMARK    3  A    between atoms: C_2  and  N_5 
REMARK    4  A    between atoms: C_9  and  C_4 
REMARK       I    between atoms: N_5  and  C_7 
REMARK    5  A    between atoms: C_7  and  C_15 
ROOT
ATOM      1  C   UNL d   1      14.129  13.754  -2.719  0.00  0.00     0.104 A 
ATOM      2  C   UNL d   1      13.894  14.797  -3.977  0.00  0.00     0.058 A 
ATOM      3  C   UNL d   1      13.867  13.470  -3.450  0.00  0.00     0.013 A 
ATOM      4  C   UNL d   1      14.276  14.584  -2.617  0.00  0.00     0.013 A 
ATOM      5  C   UNL d   1      13.746  13.962  -4.076  0.00  0.00     0.005 A 
ATOM      6  C   UNL d   1      14.154  15.083  -3.252  0.00  0.00     0.005 A 
ENDROOT
BRANCH   2   7
ATOM      7  C   UNL d   1      13.773  15.335  -4.623  0.00  0.00     0.281 C 
ATOM      8  N   UNL d   1      14.112  16.089  -4.600  0.00  0.00    -0.183 NA
ATOM      9  O   UNL d   1      13.319  15.120  -5.284  0.00  0.00    -0.265 OA
BRANCH   8  10
ATOM     10  C   UNL d   1      13.989  16.608  -5.234  0.00  0.00     0.197 A 
ATOM     11  N   UNL d   1      14.054  17.447  -5.122  0.00  0.00    -0.220 NA
ATOM     12  C   UNL d   1      13.905  17.806  -5.837  0.00  0.00     0.096 A 
ATOM     13  C   UNL d   1      13.751  17.225  -6.388  0.00  0.00     0.058 A 
ATOM     14  S   UNL d   1      13.801  16.482  -6.024  0.00  0.00    -0.046 SA
BRANCH  12  15
ATOM     15  C   UNL d   1      13.899  18.590  -6.018  0.00  0.00     0.048 A 
ATOM     16  S   UNL d   1      13.305  19.101  -6.281  0.00  0.00    -0.085 SA
ATOM     17  C   UNL d   1      13.637  19.842  -6.370  0.00  0.00     0.035 A 
ATOM     18  C   UNL d   1      14.408  19.814  -6.175  0.00  0.00     0.007 A 
ATOM     19  C   UNL d   1      14.586  19.031  -5.951  0.00  0.00     0.009 A 
ENDBRANCH  12  15
ENDBRANCH   8  10
ENDBRANCH   2   7
BRANCH   1  20
ATOM     20  S   UNL d   1      14.256  13.245  -2.065  0.00  0.00     0.271 S 
ATOM     21  O   UNL d   1      14.659  13.884  -1.653  0.00  0.00    -0.200 OA
ATOM     22  O   UNL d   1      13.868  12.621  -2.453  0.00  0.00    -0.200 OA
BRANCH  20  23
ATOM     23  N   UNL d   1      14.394  12.744  -1.392  0.00  0.00    -0.229 N 
ATOM     24  C   UNL d   1      13.778  12.286  -1.082  0.00  0.00     0.092 A 
ATOM     25  C   UNL d   1      13.916  11.798  -0.424  0.00  0.00     0.020 A 
ATOM     26  C   UNL d   1      14.671  11.779  -0.091  0.00  0.00     0.003 A 
ATOM     27  C   UNL d   1      15.278  12.234  -0.402  0.00  0.00     0.020 A 
ATOM     28  C   UNL d   1      15.155  12.709  -1.036  0.00  0.00     0.092 A 
ENDBRANCH  20  23
ENDBRANCH   1  20
TORSDOF 5
ENDMDL
