MODEL 1
REMARK VINA RESULT:      -3.2      0.000      0.000
REMARK  2 active torsions:
REMARK  status: ('A' for Active; 'I' for Inactive)
REMARK       I    between atoms: C_7  and  N_1 
REMARK    1  A    between atoms: C_6  and  C_3 
REMARK    2  A    between atoms: C_8  and  C_4 
ROOT
ATOM      1  N   UNL d   1      31.896  16.471 -24.541  0.00  0.00    -0.195 N 
ATOM      2  N   UNL d   1      31.253  15.990 -24.425  0.00  0.00    -0.163 NA
ATOM      3  C   UNL d   1      31.702  17.232 -24.291  0.00  0.00     0.091 A 
ATOM      4  C   UNL d   1      30.652  16.455 -24.100  0.00  0.00     0.104 A 
ATOM      5  C   UNL d   1      30.935  17.216 -24.020  0.00  0.00     0.040 A 
ATOM      6  C   UNL d   1      32.649  16.238 -24.866  0.00  0.00     0.281 C 
ATOM      7  O   UNL d   1      33.241  16.774 -24.951  0.00  0.00    -0.265 OA
ATOM      8  C   UNL d   1      32.754  15.453 -25.090  0.00  0.00     0.068 C 
ENDROOT
BRANCH   3   9
ATOM      9  C   UNL d   1      32.204  17.891 -24.314  0.00  0.00     0.057 A 
ATOM     10  C   UNL d   1      32.510  18.187 -23.629  0.00  0.00     0.197 A 
ATOM     11  O   UNL d   1      32.332  17.846 -22.916  0.00  0.00    -0.286 OA
ATOM     12  C   UNL d   1      33.015  18.847 -23.646  0.00  0.00     0.042 A 
ATOM     13  C   UNL d   1      33.209  19.209 -24.363  0.00  0.00     0.003 A 
ATOM     14  C   UNL d   1      32.887  18.893 -25.048  0.00  0.00     0.000 A 
ATOM     15  C   UNL d   1      32.400  18.254 -25.028  0.00  0.00     0.005 A 
ENDBRANCH   3   9
BRANCH   4  16
ATOM     16  C   UNL d   1      29.898  16.194 -23.892  0.00  0.00     0.039 A 
ATOM     17  C   UNL d   1      29.252  16.374 -24.372  0.00  0.00     0.101 A 
ATOM     18  N   UNL d   1      28.497  16.114 -24.164  0.00  0.00    -0.242 NA
ATOM     19  C   UNL d   1      28.389  15.673 -23.474  0.00  0.00     0.099 A 
ATOM     20  C   UNL d   1      29.035  15.493 -22.994  0.00  0.00     0.021 A 
ATOM     21  C   UNL d   1      29.790  15.754 -23.203  0.00  0.00     0.005 A 
ENDBRANCH   4  16
TORSDOF 2
ENDMDL
MODEL 2
REMARK VINA RESULT:      -3.0      0.941      1.296
REMARK  2 active torsions:
REMARK  status: ('A' for Active; 'I' for Inactive)
REMARK       I    between atoms: C_7  and  N_1 
REMARK    1  A    between atoms: C_6  and  C_3 
REMARK    2  A    between atoms: C_8  and  C_4 
ROOT
ATOM      1  N   UNL d   1      31.862  16.446 -23.435  0.00  0.00    -0.195 N 
ATOM      2  N   UNL d   1      31.225  15.943 -23.465  0.00  0.00    -0.163 NA
ATOM      3  C   UNL d   1      31.608  17.202 -23.644  0.00  0.00     0.091 A 
ATOM      4  C   UNL d   1      30.569  16.389 -23.694  0.00  0.00     0.104 A 
ATOM      5  C   UNL d   1      30.811  17.161 -23.802  0.00  0.00     0.040 A 
ATOM      6  C   UNL d   1      32.662  16.236 -23.225  0.00  0.00     0.281 C 
ATOM      7  O   UNL d   1      33.241  16.791 -23.218  0.00  0.00    -0.265 OA
ATOM      8  C   UNL d   1      32.824  15.453 -23.030  0.00  0.00     0.068 C 
ENDROOT
BRANCH   3   9
ATOM      9  C   UNL d   1      32.086  17.878 -23.683  0.00  0.00     0.057 A 
ATOM     10  C   UNL d   1      32.321  18.163 -24.399  0.00  0.00     0.197 A 
ATOM     11  O   UNL d   1      32.094  17.794 -25.085  0.00  0.00    -0.286 OA
ATOM     12  C   UNL d   1      32.800  18.840 -24.445  0.00  0.00     0.042 A 
ATOM     13  C   UNL d   1      33.043  19.230 -23.759  0.00  0.00     0.003 A 
ATOM     14  C   UNL d   1      32.793  18.924 -23.039  0.00  0.00     0.000 A 
ATOM     15  C   UNL d   1      32.330  18.269 -22.999  0.00  0.00     0.005 A 
ENDBRANCH   3   9
BRANCH   4  16
ATOM     16  C   UNL d   1      29.802  16.104 -23.796  0.00  0.00     0.039 A 
ATOM     17  C   UNL d   1      29.284  16.072 -23.154  0.00  0.00     0.101 A 
ATOM     18  N   UNL d   1      28.517  15.787 -23.256  0.00  0.00    -0.242 NA
ATOM     19  C   UNL d   1      28.267  15.534 -24.001  0.00  0.00     0.099 A 
ATOM     20  C   UNL d   1      28.784  15.566 -24.643  0.00  0.00     0.021 A 
ATOM     21  C   UNL d   1      29.552  15.852 -24.540  0.00  0.00     0.005 A 
ENDBRANCH   4  16
TORSDOF 2
ENDMDL
MODEL 3
REMARK VINA RESULT:      -2.8      1.331      3.687
REMARK  2 active torsions:
REMARK  status: ('A' for Active; 'I' for Inactive)
REMARK       I    between atoms: C_7  and  N_1 
REMARK    1  A    between atoms: C_6  and  C_3 
REMARK    2  A    between atoms: C_8  and  C_4 
ROOT
ATOM      1  N   UNL d   1      31.908  16.725 -24.414  0.00  0.00    -0.195 N 
ATOM      2  N   UNL d   1      32.480  17.291 -24.305  0.00  0.00    -0.163 NA
ATOM      3  C   UNL d   1      31.197  17.008 -24.107  0.00  0.00     0.091 A 
ATOM      4  C   UNL d   1      32.121  17.933 -23.927  0.00  0.00     0.104 A 
ATOM      5  C   UNL d   1      31.335  17.752 -23.809  0.00  0.00     0.040 A 
ATOM      6  C   UNL d   1      32.016  15.963 -24.782  0.00  0.00     0.281 C 
ATOM      7  O   UNL d   1      31.401  15.453 -24.854  0.00  0.00    -0.265 OA
ATOM      8  C   UNL d   1      32.765  15.764 -25.060  0.00  0.00     0.068 C 
ENDROOT
BRANCH   3   9
ATOM      9  C   UNL d   1      30.475  16.600 -24.107  0.00  0.00     0.057 A 
ATOM     10  C   UNL d   1      29.881  16.837 -24.597  0.00  0.00     0.197 A 
ATOM     11  O   UNL d   1      29.980  17.471 -25.091  0.00  0.00    -0.286 OA
ATOM     12  C   UNL d   1      29.155  16.432 -24.601  0.00  0.00     0.042 A 
ATOM     13  C   UNL d   1      29.033  15.783 -24.105  0.00  0.00     0.003 A 
ATOM     14  C   UNL d   1      29.650  15.558 -23.614  0.00  0.00     0.000 A 
ATOM     15  C   UNL d   1      30.351  15.952 -23.612  0.00  0.00     0.005 A 
ENDBRANCH   3   9
BRANCH   4  16
ATOM     16  C   UNL d   1      32.494  18.635 -23.707  0.00  0.00     0.039 A 
ATOM     17  C   UNL d   1      32.837  19.118 -24.282  0.00  0.00     0.101 A 
ATOM     18  N   UNL d   1      33.211  19.820 -24.063  0.00  0.00    -0.242 NA
ATOM     19  C   UNL d   1      33.241  20.039 -23.267  0.00  0.00     0.099 A 
ATOM     20  C   UNL d   1      32.898  19.556 -22.693  0.00  0.00     0.021 A 
ATOM     21  C   UNL d   1      32.525  18.854 -22.913  0.00  0.00     0.005 A 
ENDBRANCH   4  16
TORSDOF 2
ENDMDL
MODEL 4
REMARK VINA RESULT:      -1.8      4.239      5.942
REMARK  2 active torsions:
REMARK  status: ('A' for Active; 'I' for Inactive)
REMARK       I    between atoms: C_7  and  N_1 
REMARK    1  A    between atoms: C_6  and  C_3 
REMARK    2  A    between atoms: C_8  and  C_4 
ROOT
ATOM      1  N   UNL d   1      32.853  22.139 -22.190  0.00  0.00    -0.195 N 
ATOM      2  N   UNL d   1      32.966  21.533 -22.719  0.00  0.00    -0.163 NA
ATOM      3  C   UNL d   1      32.773  21.816 -21.436  0.00  0.00     0.091 A 
ATOM      4  C   UNL d   1      32.956  20.827 -22.290  0.00  0.00     0.104 A 
ATOM      5  C   UNL d   1      32.837  21.008 -21.504  0.00  0.00     0.040 A 
ATOM      6  C   UNL d   1      32.822  22.971 -22.374  0.00  0.00     0.281 C 
ATOM      7  O   UNL d   1      32.707  23.513 -21.794  0.00  0.00    -0.265 OA
ATOM      8  C   UNL d   1      32.913  23.202 -23.159  0.00  0.00     0.068 C 
ENDROOT
BRANCH   3   9
ATOM      9  C   UNL d   1      32.650  22.245 -20.737  0.00  0.00     0.057 A 
ATOM     10  C   UNL d   1      31.947  22.183 -20.347  0.00  0.00     0.197 A 
ATOM     11  O   UNL d   1      31.359  21.703 -20.630  0.00  0.00    -0.286 OA
ATOM     12  C   UNL d   1      31.817  22.610 -19.647  0.00  0.00     0.042 A 
ATOM     13  C   UNL d   1      32.405  23.105 -19.341  0.00  0.00     0.003 A 
ATOM     14  C   UNL d   1      33.112  23.155 -19.753  0.00  0.00     0.000 A 
ATOM     15  C   UNL d   1      33.234  22.739 -20.431  0.00  0.00     0.005 A 
ENDBRANCH   3   9
BRANCH   4  16
ATOM     16  C   UNL d   1      33.049  20.069 -22.604  0.00  0.00     0.039 A 
ATOM     17  C   UNL d   1      33.146  19.968 -23.417  0.00  0.00     0.101 A 
ATOM     18  N   UNL d   1      33.240  19.211 -23.730  0.00  0.00    -0.242 NA
ATOM     19  C   UNL d   1      33.236  18.554 -23.230  0.00  0.00     0.099 A 
ATOM     20  C   UNL d   1      33.140  18.656 -22.417  0.00  0.00     0.021 A 
ATOM     21  C   UNL d   1      33.046  19.414 -22.103  0.00  0.00     0.005 A 
ENDBRANCH   4  16
TORSDOF 2
ENDMDL
MODEL 5
REMARK VINA RESULT:      -1.5      1.511      3.945
REMARK  2 active torsions:
REMARK  status: ('A' for Active; 'I' for Inactive)
REMARK       I    between atoms: C_7  and  N_1 
REMARK    1  A    between atoms: C_6  and  C_3 
REMARK    2  A    between atoms: C_8  and  C_4 
ROOT
ATOM      1  N   UNL d   1      30.771  16.343 -23.335  0.00  0.00    -0.195 N 
ATOM      2  N   UNL d   1      31.501  16.680 -23.451  0.00  0.00    -0.163 NA
ATOM      3  C   UNL d   1      30.238  16.686 -23.862  0.00  0.00     0.091 A 
ATOM      4  C   UNL d   1      31.422  17.237 -24.056  0.00  0.00     0.104 A 
ATOM      5  C   UNL d   1      30.644  17.236 -24.303  0.00  0.00     0.040 A 
ATOM      6  C   UNL d   1      30.579  15.737 -22.766  0.00  0.00     0.281 C 
ATOM      7  O   UNL d   1      29.831  15.453 -22.710  0.00  0.00    -0.265 OA
ATOM      8  C   UNL d   1      31.179  15.453 -22.279  0.00  0.00     0.068 C 
ENDROOT
BRANCH   3   9
ATOM      9  C   UNL d   1      29.433  16.499 -23.924  0.00  0.00     0.057 A 
ATOM     10  C   UNL d   1      29.173  16.043 -24.537  0.00  0.00     0.197 A 
ATOM     11  O   UNL d   1      29.692  15.766 -25.094  0.00  0.00    -0.286 OA
ATOM     12  C   UNL d   1      28.368  15.852 -24.605  0.00  0.00     0.042 A 
ATOM     13  C   UNL d   1      27.823  16.125 -24.048  0.00  0.00     0.003 A 
ATOM     14  C   UNL d   1      28.106  16.587 -23.432  0.00  0.00     0.000 A 
ATOM     15  C   UNL d   1      28.887  16.770 -23.369  0.00  0.00     0.005 A 
ENDBRANCH   3   9
BRANCH   4  16
ATOM     16  C   UNL d   1      32.024  17.713 -24.358  0.00  0.00     0.039 A 
ATOM     17  C   UNL d   1      32.014  18.527 -24.224  0.00  0.00     0.101 A 
ATOM     18  N   UNL d   1      32.617  19.002 -24.525  0.00  0.00    -0.242 NA
ATOM     19  C   UNL d   1      33.231  18.663 -24.961  0.00  0.00     0.099 A 
ATOM     20  C   UNL d   1      33.241  17.849 -25.095  0.00  0.00     0.021 A 
ATOM     21  C   UNL d   1      32.637  17.373 -24.793  0.00  0.00     0.005 A 
ENDBRANCH   4  16
TORSDOF 2
ENDMDL
MODEL 6
REMARK VINA RESULT:      -1.1      2.117      3.868
REMARK  2 active torsions:
REMARK  status: ('A' for Active; 'I' for Inactive)
REMARK       I    between atoms: C_7  and  N_1 
REMARK    1  A    between atoms: C_6  and  C_3 
REMARK    2  A    between atoms: C_8  and  C_4 
ROOT
ATOM      1  N   UNL d   1      31.930  18.242 -24.131  0.00  0.00    -0.195 N 
ATOM      2  N   UNL d   1      31.939  18.983 -23.799  0.00  0.00    -0.163 NA
ATOM      3  C   UNL d   1      32.554  17.806 -23.815  0.00  0.00     0.091 A 
ATOM      4  C   UNL d   1      32.574  19.008 -23.271  0.00  0.00     0.104 A 
ATOM      5  C   UNL d   1      32.947  18.283 -23.286  0.00  0.00     0.040 A 
ATOM      6  C   UNL d   1      31.373  17.954 -24.710  0.00  0.00     0.281 C 
ATOM      7  O   UNL d   1      31.429  17.206 -24.993  0.00  0.00    -0.265 OA
ATOM      8  C   UNL d   1      30.779  18.463 -24.969  0.00  0.00     0.068 C 
ENDROOT
BRANCH   3   9
ATOM      9  C   UNL d   1      32.741  17.022 -24.008  0.00  0.00     0.057 A 
ATOM     10  C   UNL d   1      32.612  16.435 -23.470  0.00  0.00     0.197 A 
ATOM     11  O   UNL d   1      32.300  16.603 -22.742  0.00  0.00    -0.286 OA
ATOM     12  C   UNL d   1      32.797  15.647 -23.657  0.00  0.00     0.042 A 
ATOM     13  C   UNL d   1      33.116  15.454 -24.394  0.00  0.00     0.003 A 
ATOM     14  C   UNL d   1      33.241  16.065 -24.927  0.00  0.00     0.000 A 
ATOM     15  C   UNL d   1      33.060  16.826 -24.742  0.00  0.00     0.005 A 
ENDBRANCH   3   9
BRANCH   4  16
ATOM     16  C   UNL d   1      32.793  19.656 -22.809  0.00  0.00     0.039 A 
ATOM     17  C   UNL d   1      33.022  20.362 -23.169  0.00  0.00     0.101 A 
ATOM     18  N   UNL d   1      33.241  21.009 -22.707  0.00  0.00    -0.242 NA
ATOM     19  C   UNL d   1      33.230  20.950 -21.883  0.00  0.00     0.099 A 
ATOM     20  C   UNL d   1      33.001  20.244 -21.523  0.00  0.00     0.021 A 
ATOM     21  C   UNL d   1      32.782  19.596 -21.986  0.00  0.00     0.005 A 
ENDBRANCH   4  16
TORSDOF 2
ENDMDL
MODEL 7
REMARK VINA RESULT:      -0.3      5.714      7.283
REMARK  2 active torsions:
REMARK  status: ('A' for Active; 'I' for Inactive)
REMARK       I    between atoms: C_7  and  N_1 
REMARK    1  A    between atoms: C_6  and  C_3 
REMARK    2  A    between atoms: C_8  and  C_4 
ROOT
ATOM      1  N   UNL d   1      32.735  21.639 -20.609  0.00  0.00    -0.195 N 
ATOM      2  N   UNL d   1      32.781  21.640 -19.798  0.00  0.00    -0.163 NA
ATOM      3  C   UNL d   1      32.751  22.420 -20.873  0.00  0.00     0.091 A 
ATOM      4  C   UNL d   1      32.825  22.428 -19.555  0.00  0.00     0.104 A 
ATOM      5  C   UNL d   1      32.806  22.901 -20.220  0.00  0.00     0.040 A 
ATOM      6  C   UNL d   1      32.681  20.952 -21.111  0.00  0.00     0.281 C 
ATOM      7  O   UNL d   1      32.639  21.030 -21.909  0.00  0.00    -0.265 OA
ATOM      8  C   UNL d   1      32.672  20.208 -20.758  0.00  0.00     0.068 C 
ENDROOT
BRANCH   3   9
ATOM      9  C   UNL d   1      32.716  22.663 -21.665  0.00  0.00     0.057 A 
ATOM     10  C   UNL d   1      32.172  23.212 -21.892  0.00  0.00     0.197 A 
ATOM     11  O   UNL d   1      31.657  23.532 -21.354  0.00  0.00    -0.286 OA
ATOM     12  C   UNL d   1      32.132  23.460 -22.684  0.00  0.00     0.042 A 
ATOM     13  C   UNL d   1      32.648  23.147 -23.249  0.00  0.00     0.003 A 
ATOM     14  C   UNL d   1      33.194  22.588 -22.997  0.00  0.00     0.000 A 
ATOM     15  C   UNL d   1      33.229  22.352 -22.230  0.00  0.00     0.005 A 
ENDBRANCH   3   9
BRANCH   4  16
ATOM     16  C   UNL d   1      32.878  22.692 -18.775  0.00  0.00     0.039 A 
ATOM     17  C   UNL d   1      33.187  23.439 -18.612  0.00  0.00     0.101 A 
ATOM     18  N   UNL d   1      33.241  23.702 -17.832  0.00  0.00    -0.242 NA
ATOM     19  C   UNL d   1      32.985  23.217 -17.215  0.00  0.00     0.099 A 
ATOM     20  C   UNL d   1      32.676  22.469 -17.378  0.00  0.00     0.021 A 
ATOM     21  C   UNL d   1      32.623  22.206 -18.159  0.00  0.00     0.005 A 
ENDBRANCH   4  16
TORSDOF 2
ENDMDL
