MODEL 1
REMARK VINA RESULT:       6.0      0.000      0.000
REMARK  8 active torsions:
REMARK  status: ('A' for Active; 'I' for Inactive)
REMARK    1  A    between atoms: C_7  and  C_1 
REMARK    2  A    between atoms: N_5  and  C_2 
REMARK       I    between atoms: C_8  and  N_5 
REMARK    3  A    between atoms: N_9  and  C_7 
REMARK    4  A    between atoms: C_12  and  C_7 
REMARK    5  A    between atoms: C_10  and  C_8 
REMARK    6  A    between atoms: C_11  and  C_14 
REMARK    7  A    between atoms: O_25  and  C_11 
REMARK    8  A    between atoms: C_31  and  O_25 
ROOT
ATOM      1  C   UNL d   1      58.097  -0.254  30.562  0.00  0.00     0.068 C 
ENDROOT
BRANCH   1   2
ATOM      2  C   UNL d   1      58.907  -0.434  30.611  0.00  0.00     0.041 A 
ATOM      3  C   UNL d   1      59.355  -1.023  30.255  0.00  0.00     0.115 A 
ATOM      4  S   UNL d   1      60.134  -0.931  30.510  0.00  0.00    -0.068 SA
ATOM      5  C   UNL d   1      60.158  -0.286  31.020  0.00  0.00     0.031 A 
ATOM      6  C   UNL d   1      59.387   0.032  31.088  0.00  0.00     0.009 A 
ATOM      7  C   UNL d   1      60.847  -0.002  31.404  0.00  0.00     0.007 C 
ATOM      8  C   UNL d   1      59.162   0.682  31.544  0.00  0.00     0.001 C 
BRANCH   3   9
ATOM      9  N   UNL d   1      59.082  -1.621  29.723  0.00  0.00    -0.200 NA
ATOM     10  C   UNL d   1      59.325  -2.420  29.830  0.00  0.00     0.302 C 
ATOM     11  O   UNL d   1      59.819  -2.602  30.444  0.00  0.00    -0.263 OA
BRANCH  10  12
ATOM     12  C   UNL d   1      59.048  -2.999  29.298  0.00  0.00     0.158 A 
ATOM     13  O   UNL d   1      59.427  -3.664  28.983  0.00  0.00    -0.300 OA
ATOM     14  C   UNL d   1      58.879  -4.038  28.483  0.00  0.00     0.123 A 
ATOM     15  C   UNL d   1      58.164  -3.577  28.510  0.00  0.00     0.029 A 
ATOM     16  C   UNL d   1      58.297  -2.945  29.018  0.00  0.00     0.032 A 
ENDBRANCH  10  12
ENDBRANCH   3   9
ENDBRANCH   1   2
BRANCH   1  17
ATOM     17  N   UNL d   1      57.578  -0.382  31.215  0.00  0.00    -0.304 N 
ATOM     18  C   UNL d   1      57.298   0.242  31.681  0.00  0.00     0.080 A 
ATOM     19  C   UNL d   1      56.794   0.084  32.308  0.00  0.00     0.024 A 
ATOM     20  C   UNL d   1      56.570  -0.678  32.474  0.00  0.00     0.067 A 
ATOM     21  C   UNL d   1      56.831  -1.317  32.030  0.00  0.00     0.024 A 
ATOM     22  C   UNL d   1      57.341  -1.173  31.391  0.00  0.00     0.080 A 
BRANCH  20  23
ATOM     23  C   UNL d   1      56.071  -0.789  33.102  0.00  0.00     0.300 C 
ATOM     24  O   UNL d   1      55.589  -1.452  33.163  0.00  0.00    -0.259 OA
BRANCH  23  25
ATOM     25  O   UNL d   1      56.019  -0.235  33.724  0.00  0.00    -0.271 OA
BRANCH  25  26
ATOM     26  C   UNL d   1      55.296  -0.481  34.238  0.00  0.00     0.126 C 
ATOM     27  C   UNL d   1      54.957   0.129  34.564  0.00  0.00     0.029 C 
ENDBRANCH  25  26
ENDBRANCH  23  25
ENDBRANCH  20  23
ENDBRANCH   1  17
BRANCH   1  28
ATOM     28  C   UNL d   1      57.759   0.063  29.860  0.00  0.00     0.035 A 
ATOM     29  C   UNL d   1      56.992   0.361  29.877  0.00  0.00     0.100 A 
ATOM     30  N   UNL d   1      56.660   0.670  29.195  0.00  0.00    -0.242 NA
ATOM     31  C   UNL d   1      57.125   0.681  28.455  0.00  0.00     0.099 A 
ATOM     32  C   UNL d   1      57.904   0.366  28.486  0.00  0.00     0.021 A 
ATOM     33  C   UNL d   1      58.216   0.065  29.167  0.00  0.00     0.005 A 
ENDBRANCH   1  28
TORSDOF 8
ENDMDL
