MODEL 1
REMARK VINA RESULT:      72.2      0.000      0.000
REMARK  3 active torsions:
REMARK  status: ('A' for Active; 'I' for Inactive)
REMARK    1  A    between atoms: C_9  and  N_1 
REMARK       I    between atoms: C_8  and  N_2 
REMARK    2  A    between atoms: C_3  and  C_9 
REMARK    3  A    between atoms: C_13  and  C_8 
ROOT
ATOM      1  N   UNL d   1     -50.762  25.369  33.344  0.00  0.00    -0.194 N 
ATOM      2  C   UNL d   1     -50.325  26.632  33.324  0.00  0.00     0.055 A 
ATOM      3  N   UNL d   1     -51.428  25.878  33.353  0.00  0.00    -0.163 NA
ATOM      4  C   UNL d   1     -50.094  25.841  33.326  0.00  0.00     0.089 A 
ATOM      5  C   UNL d   1     -50.791  24.547  33.352  0.00  0.00     0.286 C 
ATOM      6  C   UNL d   1     -51.146  26.656  33.341  0.00  0.00     0.104 A 
ATOM      7  O   UNL d   1     -50.077  24.119  33.340  0.00  0.00    -0.265 OA
ATOM      8  C   UNL d   1     -49.316  25.559  33.312  0.00  0.00     0.021 C 
ATOM      9  C   UNL d   1     -51.618  27.337  33.345  0.00  0.00     0.023 C 
ENDROOT
BRANCH   2  10
ATOM     10  C   UNL d   1     -49.812  27.289  33.307  0.00  0.00     0.089 C 
BRANCH  10  11
ATOM     11  N   UNL d   1     -49.497  27.588  34.011  0.00  0.00    -0.240 N 
ATOM     12  C   UNL d   1     -48.760  27.933  34.097  0.00  0.00     0.267 A 
ATOM     13  C   UNL d   1     -48.682  28.149  34.892  0.00  0.00     0.061 A 
ATOM     14  O   UNL d   1     -48.200  28.042  33.501  0.00  0.00    -0.267 OA
ATOM     15  C   UNL d   1     -48.065  28.514  35.296  0.00  0.00     0.005 A 
ATOM     16  C   UNL d   1     -49.365  27.940  35.290  0.00  0.00     0.061 A 
ATOM     17  C   UNL d   1     -48.134  28.668  36.102  0.00  0.00     0.000 A 
ATOM     18  C   UNL d   1     -48.822  28.458  36.505  0.00  0.00     0.000 A 
ATOM     19  C   UNL d   1     -49.440  28.093  36.100  0.00  0.00     0.005 A 
ATOM     20  C   UNL d   1     -49.880  27.589  34.748  0.00  0.00     0.267 A 
ATOM     21  O   UNL d   1     -50.636  27.295  34.913  0.00  0.00    -0.267 OA
ENDBRANCH  10  11
ENDBRANCH   2  10
BRANCH   5  22
ATOM     22  C   UNL d   1     -51.518  24.160  33.370  0.00  0.00     0.087 A 
ATOM     23  S   UNL d   1     -51.633  23.345  33.306  0.00  0.00    -0.082 SA
ATOM     24  C   UNL d   1     -52.444  23.202  33.353  0.00  0.00     0.036 A 
ATOM     25  C   UNL d   1     -52.827  23.917  33.444  0.00  0.00     0.008 A 
ATOM     26  C   UNL d   1     -52.253  24.516  33.455  0.00  0.00     0.012 A 
ENDBRANCH   5  22
TORSDOF 3
ENDMDL
