MODEL 1
REMARK VINA RESULT:      -2.0      0.000      0.000
REMARK  9 active torsions:
REMARK  status: ('A' for Active; 'I' for Inactive)
REMARK       I    between atoms: C_5  and  N_1 
REMARK    1  A    between atoms: C_6  and  N_1 
REMARK    2  A    between atoms: C_7  and  C_3 
REMARK    3  A    between atoms: C_8  and  C_4 
REMARK    4  A    between atoms: C_17  and  C_5 
REMARK    5  A    between atoms: N_9  and  C_6 
REMARK    6  A    between atoms: N_14  and  N_9 
REMARK       I    between atoms: C_10  and  N_14 
REMARK    7  A    between atoms: C_20  and  C_10 
REMARK    8  A    between atoms: C_16  and  C_21 
REMARK    9  A    between atoms: C_21  and  C_20 
ROOT
ATOM      1  C   UNL d   1      32.470  18.894 -23.191  0.00  0.00     0.064 C 
ENDROOT
BRANCH   1   2
ATOM      2  C   UNL d   1      32.976  19.104 -22.581  0.00  0.00     0.297 C 
ATOM      3  N   UNL d   1      33.214  19.883 -22.481  0.00  0.00    -0.103 NA
ATOM      4  O   UNL d   1      33.241  18.514 -22.068  0.00  0.00    -0.264 OA
BRANCH   3   5
ATOM      5  N   UNL d   1      32.954  20.474 -22.988  0.00  0.00    -0.114 NA
BRANCH   5   6
ATOM      6  C   UNL d   1      33.130  21.250 -22.870  0.00  0.00     0.243 C 
ATOM      7  S   UNL d   1      33.241  21.756 -23.503  0.00  0.00    -0.035 SA
BRANCH   6   8
ATOM      8  N   UNL d   1      33.197  21.534 -22.100  0.00  0.00    -0.177 NA
ATOM      9  C   UNL d   1      32.758  22.186 -21.864  0.00  0.00     0.281 C 
ATOM     10  O   UNL d   1      32.250  22.564 -22.383  0.00  0.00    -0.265 OA
BRANCH   9  11
ATOM     11  C   UNL d   1      32.833  22.458 -21.097  0.00  0.00     0.058 A 
ATOM     12  C   UNL d   1      32.935  21.933 -20.467  0.00  0.00     0.005 A 
ATOM     13  C   UNL d   1      33.012  22.199 -19.689  0.00  0.00     0.000 A 
ATOM     14  C   UNL d   1      32.986  23.017 -19.536  0.00  0.00     0.000 A 
ATOM     15  C   UNL d   1      32.885  23.551 -20.156  0.00  0.00     0.000 A 
ATOM     16  C   UNL d   1      32.809  23.269 -20.929  0.00  0.00     0.005 A 
ENDBRANCH   9  11
ENDBRANCH   6   8
ENDBRANCH   5   6
ENDBRANCH   3   5
ENDBRANCH   1   2
BRANCH   1  17
ATOM     17  C   UNL d   1      31.808  18.436 -23.030  0.00  0.00     0.005 C 
BRANCH  17  18
ATOM     18  C   UNL d   1      31.601  17.796 -23.520  0.00  0.00    -0.000 A 
ATOM     19  C   UNL d   1      32.183  17.279 -23.777  0.00  0.00    -0.001 A 
ATOM     20  C   UNL d   1      31.997  16.643 -24.261  0.00  0.00     0.016 A 
ATOM     21  C   UNL d   1      31.218  16.523 -24.492  0.00  0.00     0.188 A 
ATOM     22  C   UNL d   1      30.615  17.038 -24.241  0.00  0.00     0.016 A 
ATOM     23  O   UNL d   1      31.015  15.873 -24.990  0.00  0.00    -0.287 OA
ATOM     24  C   UNL d   1      30.822  17.677 -23.751  0.00  0.00    -0.001 A 
BRANCH  20  25
ATOM     25  C   UNL d   1      32.579  16.126 -24.518  0.00  0.00     0.022 C 
ATOM     26  C   UNL d   1      32.254  15.510 -24.068  0.00  0.00     0.004 C 
ATOM     27  C   UNL d   1      32.926  16.738 -24.983  0.00  0.00     0.004 C 
ATOM     28  C   UNL d   1      33.186  15.603 -24.791  0.00  0.00     0.004 C 
ENDBRANCH  20  25
BRANCH  22  29
ATOM     29  C   UNL d   1      29.829  16.936 -24.460  0.00  0.00     0.022 C 
ATOM     30  C   UNL d   1      29.937  17.445 -25.095  0.00  0.00     0.004 C 
ATOM     31  C   UNL d   1      29.718  16.425 -23.822  0.00  0.00     0.004 C 
ATOM     32  C   UNL d   1      29.040  16.827 -24.671  0.00  0.00     0.004 C 
ENDBRANCH  22  29
ENDBRANCH  17  18
ENDBRANCH   1  17
TORSDOF 9
ENDMDL
MODEL 2
REMARK VINA RESULT:      -1.8      1.670      6.044
REMARK  9 active torsions:
REMARK  status: ('A' for Active; 'I' for Inactive)
REMARK       I    between atoms: C_5  and  N_1 
REMARK    1  A    between atoms: C_6  and  N_1 
REMARK    2  A    between atoms: C_7  and  C_3 
REMARK    3  A    between atoms: C_8  and  C_4 
REMARK    4  A    between atoms: C_17  and  C_5 
REMARK    5  A    between atoms: N_9  and  C_6 
REMARK    6  A    between atoms: N_14  and  N_9 
REMARK       I    between atoms: C_10  and  N_14 
REMARK    7  A    between atoms: C_20  and  C_10 
REMARK    8  A    between atoms: C_16  and  C_21 
REMARK    9  A    between atoms: C_21  and  C_20 
ROOT
ATOM      1  C   UNL d   1      32.681  19.278 -22.866  0.00  0.00     0.064 C 
ENDROOT
BRANCH   1   2
ATOM      2  C   UNL d   1      32.669  18.473 -22.714  0.00  0.00     0.297 C 
ATOM      3  N   UNL d   1      32.278  17.955 -23.217  0.00  0.00    -0.103 NA
ATOM      4  O   UNL d   1      33.058  18.192 -22.043  0.00  0.00    -0.264 OA
BRANCH   3   5
ATOM      5  N   UNL d   1      31.889  18.228 -23.887  0.00  0.00    -0.114 NA
BRANCH   5   6
ATOM      6  C   UNL d   1      31.366  17.773 -24.296  0.00  0.00     0.243 C 
ATOM      7  S   UNL d   1      31.493  17.594 -25.084  0.00  0.00    -0.035 SA
BRANCH   6   8
ATOM      8  N   UNL d   1      30.696  17.487 -23.911  0.00  0.00    -0.177 NA
ATOM      9  C   UNL d   1      30.348  16.787 -24.162  0.00  0.00     0.281 C 
ATOM     10  O   UNL d   1      30.655  16.364 -24.791  0.00  0.00    -0.265 OA
BRANCH   9  11
ATOM     11  C   UNL d   1      29.683  16.513 -23.772  0.00  0.00     0.058 A 
ATOM     12  C   UNL d   1      29.720  15.844 -23.287  0.00  0.00     0.005 A 
ATOM     13  C   UNL d   1      29.054  15.561 -22.890  0.00  0.00     0.000 A 
ATOM     14  C   UNL d   1      28.328  15.958 -22.980  0.00  0.00     0.000 A 
ATOM     15  C   UNL d   1      28.279  16.626 -23.460  0.00  0.00     0.000 A 
ATOM     16  C   UNL d   1      28.955  16.898 -23.852  0.00  0.00     0.005 A 
ENDBRANCH   9  11
ENDBRANCH   6   8
ENDBRANCH   5   6
ENDBRANCH   3   5
ENDBRANCH   1   2
BRANCH   1  17
ATOM     17  C   UNL d   1      33.241  19.752 -22.498  0.00  0.00     0.005 C 
BRANCH  17  18
ATOM     18  C   UNL d   1      33.087  20.556 -22.346  0.00  0.00    -0.000 A 
ATOM     19  C   UNL d   1      33.151  21.101 -22.955  0.00  0.00    -0.001 A 
ATOM     20  C   UNL d   1      33.002  21.898 -22.824  0.00  0.00     0.016 A 
ATOM     21  C   UNL d   1      32.788  22.152 -22.073  0.00  0.00     0.188 A 
ATOM     22  C   UNL d   1      32.719  21.612 -21.443  0.00  0.00     0.016 A 
ATOM     23  O   UNL d   1      32.633  22.968 -21.926  0.00  0.00    -0.287 OA
ATOM     24  C   UNL d   1      32.872  20.810 -21.595  0.00  0.00    -0.001 A 
BRANCH  20  25
ATOM     25  C   UNL d   1      33.066  22.443 -23.433  0.00  0.00     0.022 C 
ATOM     26  C   UNL d   1      33.240  21.841 -23.976  0.00  0.00     0.004 C 
ATOM     27  C   UNL d   1      32.891  23.070 -22.897  0.00  0.00     0.004 C 
ATOM     28  C   UNL d   1      33.129  23.017 -24.051  0.00  0.00     0.004 C 
ENDBRANCH  20  25
BRANCH  22  29
ATOM     29  C   UNL d   1      32.505  21.845 -20.684  0.00  0.00     0.022 C 
ATOM     30  C   UNL d   1      31.860  22.253 -20.988  0.00  0.00     0.004 C 
ATOM     31  C   UNL d   1      33.153  21.437 -20.377  0.00  0.00     0.004 C 
ATOM     32  C   UNL d   1      32.300  22.074 -19.920  0.00  0.00     0.004 C 
ENDBRANCH  22  29
ENDBRANCH  17  18
ENDBRANCH   1  17
TORSDOF 9
ENDMDL
MODEL 3
REMARK VINA RESULT:      -1.0      1.344      6.230
REMARK  9 active torsions:
REMARK  status: ('A' for Active; 'I' for Inactive)
REMARK       I    between atoms: C_5  and  N_1 
REMARK    1  A    between atoms: C_6  and  N_1 
REMARK    2  A    between atoms: C_7  and  C_3 
REMARK    3  A    between atoms: C_8  and  C_4 
REMARK    4  A    between atoms: C_17  and  C_5 
REMARK    5  A    between atoms: N_9  and  C_6 
REMARK    6  A    between atoms: N_14  and  N_9 
REMARK       I    between atoms: C_10  and  N_14 
REMARK    7  A    between atoms: C_20  and  C_10 
REMARK    8  A    between atoms: C_16  and  C_21 
REMARK    9  A    between atoms: C_21  and  C_20 
ROOT
ATOM      1  C   UNL d   1      32.651  19.969 -22.244  0.00  0.00     0.064 C 
ENDROOT
BRANCH   1   2
ATOM      2  C   UNL d   1      32.845  19.173 -22.278  0.00  0.00     0.297 C 
ATOM      3  N   UNL d   1      32.810  18.761 -22.987  0.00  0.00    -0.103 NA
ATOM      4  O   UNL d   1      33.076  18.793 -21.583  0.00  0.00    -0.264 OA
BRANCH   3   5
ATOM      5  N   UNL d   1      32.581  19.133 -23.683  0.00  0.00    -0.114 NA
BRANCH   5   6
ATOM      6  C   UNL d   1      32.367  18.722 -24.340  0.00  0.00     0.243 C 
ATOM      7  S   UNL d   1      32.876  18.655 -24.977  0.00  0.00    -0.035 SA
BRANCH   6   8
ATOM      8  N   UNL d   1      31.624  18.367 -24.367  0.00  0.00    -0.177 NA
ATOM      9  C   UNL d   1      31.564  17.555 -24.472  0.00  0.00     0.281 C 
ATOM     10  O   UNL d   1      32.230  17.087 -24.552  0.00  0.00    -0.265 OA
BRANCH   9  11
ATOM     11  C   UNL d   1      30.821  17.213 -24.497  0.00  0.00     0.058 A 
ATOM     12  C   UNL d   1      30.219  17.536 -24.964  0.00  0.00     0.005 A 
ATOM     13  C   UNL d   1      29.467  17.197 -24.995  0.00  0.00     0.000 A 
ATOM     14  C   UNL d   1      29.310  16.514 -24.546  0.00  0.00     0.000 A 
ATOM     15  C   UNL d   1      29.902  16.182 -24.076  0.00  0.00     0.000 A 
ATOM     16  C   UNL d   1      30.651  16.533 -24.056  0.00  0.00     0.005 A 
ENDBRANCH   9  11
ENDBRANCH   6   8
ENDBRANCH   5   6
ENDBRANCH   3   5
ENDBRANCH   1   2
BRANCH   1  17
ATOM     17  C   UNL d   1      33.220  20.515 -22.013  0.00  0.00     0.005 C 
BRANCH  17  18
ATOM     18  C   UNL d   1      33.018  21.312 -21.883  0.00  0.00    -0.000 A 
ATOM     19  C   UNL d   1      32.936  21.818 -22.523  0.00  0.00    -0.001 A 
ATOM     20  C   UNL d   1      32.738  22.607 -22.413  0.00  0.00     0.016 A 
ATOM     21  C   UNL d   1      32.621  22.893 -21.652  0.00  0.00     0.188 A 
ATOM     22  C   UNL d   1      32.700  22.393 -20.991  0.00  0.00     0.016 A 
ATOM     23  O   UNL d   1      32.417  23.702 -21.527  0.00  0.00    -0.287 OA
ATOM     24  C   UNL d   1      32.901  21.598 -21.122  0.00  0.00    -0.001 A 
BRANCH  20  25
ATOM     25  C   UNL d   1      32.655  23.112 -23.053  0.00  0.00     0.022 C 
ATOM     26  C   UNL d   1      33.241  22.702 -23.474  0.00  0.00     0.004 C 
ATOM     27  C   UNL d   1      32.057  23.543 -22.642  0.00  0.00     0.004 C 
ATOM     28  C   UNL d   1      32.559  23.642 -23.706  0.00  0.00     0.004 C 
ENDBRANCH  20  25
BRANCH  22  29
ATOM     29  C   UNL d   1      32.587  22.660 -20.222  0.00  0.00     0.022 C 
ATOM     30  C   UNL d   1      33.058  23.315 -20.376  0.00  0.00     0.004 C 
ATOM     31  C   UNL d   1      32.114  22.003 -20.064  0.00  0.00     0.004 C 
ATOM     32  C   UNL d   1      32.468  22.918 -19.448  0.00  0.00     0.004 C 
ENDBRANCH  22  29
ENDBRANCH  17  18
ENDBRANCH   1  17
TORSDOF 9
ENDMDL
