MODEL 1
REMARK VINA RESULT:      27.4      0.000      0.000
REMARK  8 active torsions:
REMARK  status: ('A' for Active; 'I' for Inactive)
REMARK    1  A    between atoms: S_3  and  C_1 
REMARK    2  A    between atoms: C_7  and  C_2 
REMARK    3  A    between atoms: N_9  and  S_3 
REMARK    4  A    between atoms: C_8  and  C_6 
REMARK    5  A    between atoms: O_21  and  C_7 
REMARK    6  A    between atoms: O_22  and  C_8 
REMARK    7  A    between atoms: C_14  and  N_9 
REMARK    8  A    between atoms: C_10  and  C_14 
ROOT
ATOM      1  C   UNL d   1      14.600  13.574  -1.728  0.00  0.00     0.140 A 
ATOM      2  C   UNL d   1      14.994  13.456  -1.021  0.00  0.00     0.082 A 
ATOM      3  C   UNL d   1      15.194  14.196  -0.707  0.00  0.00     0.018 A 
ATOM      4  S   UNL d   1      14.562  14.385  -1.845  0.00  0.00    -0.069 SA
ATOM      5  C   UNL d   1      14.927  14.747  -1.217  0.00  0.00     0.093 A 
ATOM      6  C   UNL d   1      15.587  14.358  -0.018  0.00  0.00     0.001 C 
ENDROOT
BRANCH   1   7
ATOM      7  S   UNL d   1      14.342  12.930  -2.149  0.00  0.00     0.291 S 
ATOM      8  O   UNL d   1      13.568  13.044  -1.848  0.00  0.00    -0.198 OA
ATOM      9  O   UNL d   1      15.078  12.807  -2.446  0.00  0.00    -0.198 OA
BRANCH   7  10
ATOM     10  N   UNL d   1      14.067  12.277  -2.572  0.00  0.00    -0.156 NA
BRANCH  10  11
ATOM     11  C   UNL d   1      13.302  12.267  -2.886  0.00  0.00     0.119 C 
BRANCH  11  12
ATOM     12  C   UNL d   1      13.192  12.331  -3.701  0.00  0.00     0.049 A 
ATOM     13  S   UNL d   1      13.430  11.800  -4.293  0.00  0.00    -0.085 SA
ATOM     14  C   UNL d   1      13.201  12.094  -5.018  0.00  0.00     0.035 A 
ATOM     15  C   UNL d   1      12.816  12.813  -4.892  0.00  0.00     0.007 A 
ATOM     16  C   UNL d   1      12.813  12.955  -4.075  0.00  0.00     0.009 A 
ENDBRANCH  11  12
ENDBRANCH  10  11
ENDBRANCH   7  10
ENDBRANCH   1   7
BRANCH   2  17
ATOM     17  C   UNL d   1      15.172  12.726  -0.661  0.00  0.00     0.297 C 
ATOM     18  O   UNL d   1      15.794  12.270  -0.942  0.00  0.00    -0.259 OA
BRANCH  17  19
ATOM     19  O   UNL d   1      14.716  12.468  -0.019  0.00  0.00    -0.296 OA
ATOM     20  C   UNL d   1      14.276  11.782  -0.078  0.00  0.00     0.185 C 
ENDBRANCH  17  19
ENDBRANCH   2  17
BRANCH   5  21
ATOM     21  C   UNL d   1      15.017  15.584  -1.106  0.00  0.00     0.302 C 
ATOM     22  O   UNL d   1      15.340  15.847  -0.408  0.00  0.00    -0.259 OA
BRANCH  21  23
ATOM     23  O   UNL d   1      14.780  16.115  -1.698  0.00  0.00    -0.295 OA
ATOM     24  C   UNL d   1      15.042  16.896  -1.694  0.00  0.00     0.185 C 
ENDBRANCH  21  23
ENDBRANCH   5  21
TORSDOF 8
ENDMDL
