MODEL 1
REMARK VINA RESULT:      53.6      0.000      0.000
REMARK  3 active torsions:
REMARK  status: ('A' for Active; 'I' for Inactive)
REMARK    1  A    between atoms: C_8  and  C_2 
REMARK    2  A    between atoms: C_9  and  C_3 
REMARK    3  A    between atoms: N_6  and  C_8 
ROOT
ATOM      1  N   UNL d   1      58.297  49.695  51.451  0.00  0.00    -0.121 NA
ATOM      2  C   UNL d   1      59.507  49.696  50.889  0.00  0.00     0.222 A 
ATOM      3  C   UNL d   1      58.192  49.678  50.635  0.00  0.00     0.204 A 
ATOM      4  O   UNL d   1      58.947  49.679  50.288  0.00  0.00    -0.267 OA
ATOM      5  N   UNL d   1      59.107  49.706  51.613  0.00  0.00    -0.119 NA
ENDROOT
BRANCH   2   6
ATOM      6  C   UNL d   1      60.330  49.702  50.794  0.00  0.00     0.127 C 
BRANCH   6   7
ATOM      7  N   UNL d   1      60.798  49.152  51.193  0.00  0.00    -0.301 N 
ATOM      8  C   UNL d   1      61.016  48.460  50.812  0.00  0.00     0.064 A 
ATOM      9  C   UNL d   1      61.484  47.903  51.201  0.00  0.00     0.016 A 
ATOM     10  C   UNL d   1      60.776  48.311  50.044  0.00  0.00     0.018 A 
ATOM     11  C   UNL d   1      61.706  47.211  50.829  0.00  0.00     0.001 A 
ATOM     12  C   UNL d   1      61.727  48.052  51.978  0.00  0.00     0.003 A 
ATOM     13  C   UNL d   1      61.464  47.065  50.061  0.00  0.00     0.000 A 
ATOM     14  C   UNL d   1      60.995  47.620  49.663  0.00  0.00     0.002 A 
ATOM     15  C   UNL d   1      61.506  48.747  52.359  0.00  0.00     0.019 A 
ATOM     16  C   UNL d   1      61.036  49.305  51.963  0.00  0.00     0.080 A 
ENDBRANCH   6   7
ENDBRANCH   2   6
BRANCH   3  17
ATOM     17  C   UNL d   1      57.469  49.664  50.234  0.00  0.00     0.043 A 
ATOM     18  C   UNL d   1      57.464  49.642  49.409  0.00  0.00     0.004 A 
ATOM     19  C   UNL d   1      56.745  49.627  49.005  0.00  0.00     0.000 A 
ATOM     20  C   UNL d   1      56.034  49.634  49.429  0.00  0.00     0.000 A 
ATOM     21  C   UNL d   1      56.047  49.656  50.257  0.00  0.00     0.000 A 
ATOM     22  C   UNL d   1      56.768  49.671  50.656  0.00  0.00     0.004 A 
ENDBRANCH   3  17
TORSDOF 3
ENDMDL
