MODEL 1
REMARK VINA RESULT:      -3.9      0.000      0.000
REMARK  6 active torsions:
REMARK  status: ('A' for Active; 'I' for Inactive)
REMARK    1  A    between atoms: C_9  and  N_1 
REMARK    2  A    between atoms: S_10  and  C_6 
REMARK    3  A    between atoms: C_16  and  C_9 
REMARK    4  A    between atoms: C_15  and  S_10 
REMARK    5  A    between atoms: C_12  and  C_15 
REMARK       I    between atoms: N_13  and  C_12 
REMARK    6  A    between atoms: C_19  and  N_13 
ROOT
ATOM      1  N   UNL d   1     -41.391-121.763 -53.155  0.00  0.00    -0.192 N 
ATOM      2  N   UNL d   1     -41.659-121.170 -52.655  0.00  0.00    -0.058 NA
ATOM      3  C   UNL d   1     -41.350-122.459 -52.716  0.00  0.00     0.189 A 
ATOM      4  C   UNL d   1     -41.595-122.283 -51.945  0.00  0.00     0.164 A 
ATOM      5  N   UNL d   1     -41.784-121.480 -51.921  0.00  0.00    -0.125 NA
ATOM      6  C   UNL d   1     -41.614-122.865 -51.373  0.00  0.00     0.135 A 
ATOM      7  N   UNL d   1     -41.124-123.219 -52.914  0.00  0.00    -0.203 NA
ATOM      8  N   UNL d   1     -41.386-123.641 -51.567  0.00  0.00    -0.216 NA
ATOM      9  C   UNL d   1     -41.141-123.817 -52.338  0.00  0.00     0.201 A 
ENDROOT
BRANCH   6  10
ATOM     10  S   UNL d   1     -41.859-122.688 -50.602  0.00  0.00    -0.061 SA
BRANCH  10  11
ATOM     11  C   UNL d   1     -42.102-123.283 -50.098  0.00  0.00     0.099 C 
BRANCH  11  12
ATOM     12  C   UNL d   1     -42.213-123.122 -49.293  0.00  0.00     0.286 C 
ATOM     13  N   UNL d   1     -41.870-123.625 -48.726  0.00  0.00    -0.208 NA
ATOM     14  O   UNL d   1     -42.657-122.472 -49.050  0.00  0.00    -0.265 OA
BRANCH  13  15
ATOM     15  C   UNL d   1     -41.977-123.471 -47.919  0.00  0.00     0.085 A 
ATOM     16  C   UNL d   1     -42.662-123.327 -47.459  0.00  0.00     0.019 A 
ATOM     17  C   UNL d   1     -42.413-123.212 -46.692  0.00  0.00     0.002 A 
ATOM     18  C   UNL d   1     -41.615-123.280 -46.676  0.00  0.00     0.002 A 
ATOM     19  C   UNL d   1     -41.326-123.438 -47.415  0.00  0.00     0.019 A 
ENDBRANCH  13  15
ENDBRANCH  11  12
ENDBRANCH  10  11
ENDBRANCH   6  10
BRANCH   1  20
ATOM     20  C   UNL d   1     -41.196-121.673 -53.967  0.00  0.00     0.104 C 
BRANCH  20  21
ATOM     21  C   UNL d   1     -41.768-121.823 -54.559  0.00  0.00     0.019 A 
ATOM     22  C   UNL d   1     -42.440-121.343 -54.615  0.00  0.00     0.004 A 
ATOM     23  C   UNL d   1     -43.002-121.485 -55.192  0.00  0.00     0.030 A 
ATOM     24  C   UNL d   1     -42.897-122.113 -55.723  0.00  0.00     0.140 A 
ATOM     25  C   UNL d   1     -42.221-122.600 -55.672  0.00  0.00     0.030 A 
ATOM     26  F   UNL d   1     -43.481-122.250 -56.313  0.00  0.00    -0.204 F 
ATOM     27  C   UNL d   1     -41.672-122.445 -55.092  0.00  0.00     0.004 A 
ENDBRANCH  20  21
ENDBRANCH   1  20
TORSDOF 6
ENDMDL
