MODEL 1
REMARK VINA RESULT:       2.9      0.000      0.000
REMARK  4 active torsions:
REMARK  status: ('A' for Active; 'I' for Inactive)
REMARK    1  A    between atoms: N_5  and  C_1 
REMARK    2  A    between atoms: N_8  and  C_3 
REMARK    3  A    between atoms: C_14  and  N_8 
REMARK    4  A    between atoms: C_16  and  C_14 
ROOT
ATOM      1  C   UNL d   1     -41.497-122.197 -52.668  0.00  0.00     0.737 A 
ATOM      2  N   UNL d   1     -41.595-122.623 -51.962  0.00  0.00    -0.041 NA
ATOM      3  C   UNL d   1     -41.553-122.232 -51.230  0.00  0.00     0.182 A 
ATOM      4  N   UNL d   1     -41.357-121.378 -52.646  0.00  0.00    -0.060 NA
ATOM      5  C   UNL d   1     -41.413-121.416 -51.205  0.00  0.00     0.055 A 
ATOM      6  C   UNL d   1     -41.315-120.988 -51.904  0.00  0.00     0.103 A 
ATOM      7  C   UNL d   1     -41.371-121.026 -50.473  0.00  0.00     0.005 A 
ATOM      8  C   UNL d   1     -41.174-120.164 -51.883  0.00  0.00     0.020 A 
ATOM      9  C   UNL d   1     -41.233-120.215 -50.445  0.00  0.00     0.000 A 
ATOM     10  C   UNL d   1     -41.134-119.783 -51.152  0.00  0.00     0.002 A 
ENDROOT
BRANCH   3  11
ATOM     11  N   UNL d   1     -41.654-122.675 -50.497  0.00  0.00    -0.225 NA
BRANCH  11  12
ATOM     12  C   UNL d   1     -42.246-123.134 -50.358  0.00  0.00     0.101 C 
BRANCH  12  13
ATOM     13  C   UNL d   1     -42.381-123.362 -49.647  0.00  0.00     0.019 A 
ATOM     14  C   UNL d   1     -41.800-123.581 -49.215  0.00  0.00     0.002 A 
ATOM     15  C   UNL d   1     -41.923-123.808 -48.512  0.00  0.00     0.000 A 
ATOM     16  C   UNL d   1     -42.634-123.817 -48.230  0.00  0.00     0.000 A 
ATOM     17  C   UNL d   1     -43.207-123.598 -48.665  0.00  0.00     0.000 A 
ATOM     18  C   UNL d   1     -43.086-123.368 -49.376  0.00  0.00     0.002 A 
ENDBRANCH  12  13
ENDBRANCH  11  12
ENDBRANCH   3  11
BRANCH   1  19
ATOM     19  N   UNL d   1     -41.539-122.593 -53.419  0.00  0.00    -0.134 N 
ATOM     20  C   UNL d   1     -41.165-123.353 -53.524  0.00  0.00     0.117 A 
ATOM     21  C   UNL d   1     -41.212-123.745 -54.283  0.00  0.00     0.100 A 
ATOM     22  N   UNL d   1     -41.626-123.386 -54.929  0.00  0.00    -0.299 N 
ATOM     23  C   UNL d   1     -42.000-122.625 -54.824  0.00  0.00     0.100 A 
ATOM     24  C   UNL d   1     -41.669-123.782 -55.684  0.00  0.00     0.100 C 
ATOM     25  C   UNL d   1     -41.960-122.225 -54.073  0.00  0.00     0.117 A 
ENDBRANCH   1  19
TORSDOF 4
ENDMDL
MODEL 2
REMARK VINA RESULT:       4.6      0.809      4.305
REMARK  4 active torsions:
REMARK  status: ('A' for Active; 'I' for Inactive)
REMARK    1  A    between atoms: N_5  and  C_1 
REMARK    2  A    between atoms: N_8  and  C_3 
REMARK    3  A    between atoms: C_14  and  N_8 
REMARK    4  A    between atoms: C_16  and  C_14 
ROOT
ATOM      1  C   UNL d   1     -41.701-122.012 -50.651  0.00  0.00     0.737 A 
ATOM      2  N   UNL d   1     -41.634-122.391 -51.387  0.00  0.00    -0.041 NA
ATOM      3  C   UNL d   1     -41.476-121.948 -52.072  0.00  0.00     0.182 A 
ATOM      4  N   UNL d   1     -41.610-121.187 -50.596  0.00  0.00    -0.060 NA
ATOM      5  C   UNL d   1     -41.384-121.125 -52.020  0.00  0.00     0.055 A 
ATOM      6  C   UNL d   1     -41.450-120.744 -51.291  0.00  0.00     0.103 A 
ATOM      7  C   UNL d   1     -41.226-120.683 -52.705  0.00  0.00     0.005 A 
ATOM      8  C   UNL d   1     -41.359-119.915 -51.235  0.00  0.00     0.020 A 
ATOM      9  C   UNL d   1     -41.135-119.866 -52.656  0.00  0.00     0.000 A 
ATOM     10  C   UNL d   1     -41.202-119.481 -51.919  0.00  0.00     0.002 A 
ENDROOT
BRANCH   3  11
ATOM     11  N   UNL d   1     -41.406-122.342 -52.836  0.00  0.00    -0.225 NA
BRANCH  11  12
ATOM     12  C   UNL d   1     -42.002-122.603 -53.232  0.00  0.00     0.101 C 
BRANCH  12  13
ATOM     13  C   UNL d   1     -41.888-122.897 -53.923  0.00  0.00     0.019 A 
ATOM     14  C   UNL d   1     -41.458-123.516 -53.993  0.00  0.00     0.002 A 
ATOM     15  C   UNL d   1     -41.341-123.813 -54.670  0.00  0.00     0.000 A 
ATOM     16  C   UNL d   1     -41.653-123.492 -55.290  0.00  0.00     0.000 A 
ATOM     17  C   UNL d   1     -42.078-122.877 -55.213  0.00  0.00     0.000 A 
ATOM     18  C   UNL d   1     -42.200-122.574 -54.531  0.00  0.00     0.002 A 
ENDBRANCH  12  13
ENDBRANCH  11  12
ENDBRANCH   3  11
BRANCH   1  19
ATOM     19  N   UNL d   1     -41.862-122.461 -49.949  0.00  0.00    -0.134 N 
ATOM     20  C   UNL d   1     -42.664-122.535 -49.663  0.00  0.00     0.117 A 
ATOM     21  C   UNL d   1     -42.819-122.989 -48.955  0.00  0.00     0.100 A 
ATOM     22  N   UNL d   1     -42.185-123.365 -48.536  0.00  0.00    -0.299 N 
ATOM     23  C   UNL d   1     -41.383-123.291 -48.822  0.00  0.00     0.100 A 
ATOM     24  C   UNL d   1     -42.346-123.816 -47.830  0.00  0.00     0.100 C 
ATOM     25  C   UNL d   1     -41.217-122.841 -49.526  0.00  0.00     0.117 A 
ENDBRANCH   1  19
TORSDOF 4
ENDMDL
