MODEL 1
REMARK VINA RESULT:      61.8      0.000      0.000
REMARK  3 active torsions:
REMARK  status: ('A' for Active; 'I' for Inactive)
REMARK    1  A    between atoms: C_7  and  N_1 
REMARK    2  A    between atoms: N_3  and  C_8 
REMARK    3  A    between atoms: C_11  and  C_4 
ROOT
ATOM      1  N   UNL d   1     -51.027  26.437  33.663  0.00  0.00    -0.230 N 
ATOM      2  N   UNL d   1     -51.826  26.604  33.629  0.00  0.00    -0.165 NA
ATOM      3  C   UNL d   1     -50.920  25.631  33.469  0.00  0.00     0.084 A 
ATOM      4  C   UNL d   1     -52.224  25.916  33.415  0.00  0.00     0.103 A 
ATOM      5  C   UNL d   1     -51.672  25.319  33.317  0.00  0.00     0.040 A 
ATOM      6  C   UNL d   1     -53.066  25.925  33.337  0.00  0.00     0.022 C 
ENDROOT
BRANCH   1   7
ATOM      7  C   UNL d   1     -50.441  26.974  33.856  0.00  0.00     0.083 A 
ATOM      8  C   UNL d   1     -50.221  27.551  33.315  0.00  0.00     0.021 A 
ATOM      9  C   UNL d   1     -49.630  28.094  33.509  0.00  0.00     0.025 A 
ATOM     10  C   UNL d   1     -49.255  28.064  34.242  0.00  0.00     0.127 A 
ATOM     11  C   UNL d   1     -49.476  27.485  34.785  0.00  0.00     0.025 A 
ATOM     12  C   UNL d   1     -50.070  26.941  34.588  0.00  0.00     0.021 A 
BRANCH  10  13
ATOM     13  N   UNL d   1     -48.655  28.618  34.433  0.00  0.00    -0.114 N 
ATOM     14  O   UNL d   1     -48.701  29.193  35.063  0.00  0.00    -0.532 OA
ATOM     15  O   UNL d   1     -47.923  28.683  34.031  0.00  0.00    -0.532 OA
ENDBRANCH  10  13
ENDBRANCH   1   7
BRANCH   3  16
ATOM     16  C   UNL d   1     -50.222  25.186  33.423  0.00  0.00     0.018 A 
ATOM     17  C   UNL d   1     -49.492  25.592  33.437  0.00  0.00     0.002 A 
ATOM     18  C   UNL d   1     -48.778  25.160  33.391  0.00  0.00     0.000 A 
ATOM     19  C   UNL d   1     -48.804  24.339  33.333  0.00  0.00     0.000 A 
ATOM     20  C   UNL d   1     -49.523  23.946  33.320  0.00  0.00     0.000 A 
ATOM     21  C   UNL d   1     -50.237  24.354  33.364  0.00  0.00     0.002 A 
ENDBRANCH   3  16
TORSDOF 3
ENDMDL
MODEL 2
REMARK VINA RESULT:      62.2      2.367      3.492
REMARK  3 active torsions:
REMARK  status: ('A' for Active; 'I' for Inactive)
REMARK    1  A    between atoms: C_7  and  N_1 
REMARK    2  A    between atoms: N_3  and  C_8 
REMARK    3  A    between atoms: C_11  and  C_4 
ROOT
ATOM      1  N   UNL d   1     -51.510  23.994  33.712  0.00  0.00    -0.230 N 
ATOM      2  N   UNL d   1     -52.048  23.398  33.563  0.00  0.00    -0.165 NA
ATOM      3  C   UNL d   1     -51.921  24.722  33.716  0.00  0.00     0.084 A 
ATOM      4  C   UNL d   1     -52.793  23.739  33.473  0.00  0.00     0.103 A 
ATOM      5  C   UNL d   1     -52.717  24.550  33.566  0.00  0.00     0.040 A 
ATOM      6  C   UNL d   1     -53.463  23.249  33.313  0.00  0.00     0.022 C 
ENDROOT
BRANCH   1   7
ATOM      7  C   UNL d   1     -50.708  23.885  33.835  0.00  0.00     0.083 A 
ATOM      8  C   UNL d   1     -50.450  23.451  34.482  0.00  0.00     0.021 A 
ATOM      9  C   UNL d   1     -49.642  23.341  34.607  0.00  0.00     0.025 A 
ATOM     10  C   UNL d   1     -49.087  23.663  34.088  0.00  0.00     0.127 A 
ATOM     11  C   UNL d   1     -49.347  24.098  33.439  0.00  0.00     0.025 A 
ATOM     12  C   UNL d   1     -50.160  24.207  33.316  0.00  0.00     0.021 A 
BRANCH  10  13
ATOM     13  N   UNL d   1     -48.267  23.547  34.221  0.00  0.00    -0.114 N 
ATOM     14  O   UNL d   1     -47.927  23.218  34.931  0.00  0.00    -0.532 OA
ATOM     15  O   UNL d   1     -47.665  23.741  33.671  0.00  0.00    -0.532 OA
ENDBRANCH  10  13
ENDBRANCH   1   7
BRANCH   3  16
ATOM     16  C   UNL d   1     -51.634  25.490  33.839  0.00  0.00     0.018 A 
ATOM     17  C   UNL d   1     -50.883  25.687  33.533  0.00  0.00     0.002 A 
ATOM     18  C   UNL d   1     -50.578  26.457  33.648  0.00  0.00     0.000 A 
ATOM     19  C   UNL d   1     -51.023  27.011  34.062  0.00  0.00     0.000 A 
ATOM     20  C   UNL d   1     -51.761  26.813  34.361  0.00  0.00     0.000 A 
ATOM     21  C   UNL d   1     -52.078  26.060  34.258  0.00  0.00     0.002 A 
ENDBRANCH   3  16
TORSDOF 3
ENDMDL
MODEL 3
REMARK VINA RESULT:      64.4      4.059      5.797
REMARK  3 active torsions:
REMARK  status: ('A' for Active; 'I' for Inactive)
REMARK    1  A    between atoms: C_7  and  N_1 
REMARK    2  A    between atoms: N_3  and  C_8 
REMARK    3  A    between atoms: C_11  and  C_4 
ROOT
ATOM      1  N   UNL d   1     -47.067  30.774  36.053  0.00  0.00    -0.230 N 
ATOM      2  N   UNL d   1     -46.650  30.970  36.727  0.00  0.00    -0.165 NA
ATOM      3  C   UNL d   1     -47.237  29.956  36.080  0.00  0.00     0.084 A 
ATOM      4  C   UNL d   1     -46.553  30.289  37.179  0.00  0.00     0.103 A 
ATOM      5  C   UNL d   1     -46.912  29.666  36.785  0.00  0.00     0.040 A 
ATOM      6  C   UNL d   1     -46.137  30.328  37.914  0.00  0.00     0.022 C 
ENDROOT
BRANCH   1   7
ATOM      7  C   UNL d   1     -47.278  31.296  35.460  0.00  0.00     0.083 A 
ATOM      8  C   UNL d   1     -48.038  31.607  35.440  0.00  0.00     0.021 A 
ATOM      9  C   UNL d   1     -48.252  32.133  34.842  0.00  0.00     0.025 A 
ATOM     10  C   UNL d   1     -47.710  32.354  34.261  0.00  0.00     0.127 A 
ATOM     11  C   UNL d   1     -46.947  32.042  34.281  0.00  0.00     0.025 A 
ATOM     12  C   UNL d   1     -46.735  31.513  34.883  0.00  0.00     0.021 A 
BRANCH  10  13
ATOM     13  N   UNL d   1     -47.933  32.889  33.656  0.00  0.00    -0.114 N 
ATOM     14  O   UNL d   1     -48.711  32.939  33.307  0.00  0.00    -0.532 OA
ATOM     15  O   UNL d   1     -47.420  33.454  33.307  0.00  0.00    -0.532 OA
ENDBRANCH  10  13
ENDBRANCH   1   7
BRANCH   3  16
ATOM     16  C   UNL d   1     -47.645  29.482  35.537  0.00  0.00     0.018 A 
ATOM     17  C   UNL d   1     -48.464  29.363  35.650  0.00  0.00     0.002 A 
ATOM     18  C   UNL d   1     -48.893  28.888  35.113  0.00  0.00     0.000 A 
ATOM     19  C   UNL d   1     -48.501  28.543  34.476  0.00  0.00     0.000 A 
ATOM     20  C   UNL d   1     -47.696  28.663  34.368  0.00  0.00     0.000 A 
ATOM     21  C   UNL d   1     -47.258  29.128  34.888  0.00  0.00     0.002 A 
ENDBRANCH   3  16
TORSDOF 3
ENDMDL
