MODEL 1
REMARK VINA RESULT:       6.7      0.000      0.000
REMARK  7 active torsions:
REMARK  status: ('A' for Active; 'I' for Inactive)
REMARK    1  A    between atoms: N_8  and  C_3 
REMARK    2  A    between atoms: C_10  and  C_5 
REMARK    3  A    between atoms: C_15  and  N_8 
REMARK    4  A    between atoms: N_12  and  C_10 
REMARK    5  A    between atoms: C_21  and  N_12 
REMARK    6  A    between atoms: O_22  and  C_16 
REMARK    7  A    between atoms: C_23  and  C_21 
ROOT
ATOM      1  N   UNL d   1     -41.327-121.940 -50.797  0.00  0.00    -0.209 NA
ATOM      2  N   UNL d   1     -41.192-121.066 -51.924  0.00  0.00    -0.258 N 
ATOM      3  C   UNL d   1     -41.326-122.594 -51.289  0.00  0.00     0.170 A 
ATOM      4  C   UNL d   1     -41.260-121.167 -51.108  0.00  0.00     0.152 A 
ATOM      5  C   UNL d   1     -41.258-122.493 -52.105  0.00  0.00     0.111 A 
ATOM      6  C   UNL d   1     -41.191-121.737 -52.428  0.00  0.00     0.270 A 
ATOM      7  C   UNL d   1     -41.261-120.513 -50.616  0.00  0.00     0.035 A 
ATOM      8  C   UNL d   1     -41.125-120.309 -52.248  0.00  0.00     0.084 A 
ATOM      9  O   UNL d   1     -41.123-121.649 -53.255  0.00  0.00    -0.266 OA
ATOM     10  C   UNL d   1     -41.125-119.656 -51.756  0.00  0.00     0.019 A 
ATOM     11  C   UNL d   1     -41.193-119.757 -50.939  0.00  0.00     0.005 A 
ATOM     12  C   UNL d   1     -41.329-120.600 -49.790  0.00  0.00     0.003 C 
ENDROOT
BRANCH   3  13
ATOM     13  N   UNL d   1     -41.395-123.363 -50.948  0.00  0.00    -0.227 NA
BRANCH  13  14
ATOM     14  C   UNL d   1     -41.794-123.475 -50.242  0.00  0.00     0.083 A 
ATOM     15  C   UNL d   1     -41.355-123.530 -49.554  0.00  0.00     0.021 A 
ATOM     16  C   UNL d   1     -41.749-123.644 -48.826  0.00  0.00     0.026 A 
ATOM     17  C   UNL d   1     -42.560-123.700 -48.806  0.00  0.00     0.094 A 
ATOM     18  C   UNL d   1     -43.003-123.646 -49.493  0.00  0.00     0.026 A 
ATOM     19  C   UNL d   1     -42.624-123.534 -50.206  0.00  0.00     0.021 A 
BRANCH  17  20
ATOM     20  O   UNL d   1     -42.943-123.817 -48.056  0.00  0.00    -0.328 OA
ATOM     21  C   UNL d   1     -42.498-123.748 -47.344  0.00  0.00     0.181 C 
ENDBRANCH  17  20
ENDBRANCH  13  14
ENDBRANCH   3  13
BRANCH   5  22
ATOM     22  C   UNL d   1     -41.257-123.157 -52.604  0.00  0.00     0.107 C 
BRANCH  22  23
ATOM     23  N   UNL d   1     -41.291-123.054 -53.421  0.00  0.00    -0.242 NA
BRANCH  23  24
ATOM     24  C   UNL d   1     -41.811-123.504 -53.866  0.00  0.00     0.099 C 
BRANCH  24  25
ATOM     25  C   UNL d   1     -42.070-123.225 -54.599  0.00  0.00     0.019 A 
ATOM     26  C   UNL d   1     -41.642-122.645 -54.986  0.00  0.00     0.002 A 
ATOM     27  C   UNL d   1     -41.901-122.365 -55.718  0.00  0.00     0.000 A 
ATOM     28  C   UNL d   1     -42.587-122.666 -56.062  0.00  0.00     0.000 A 
ATOM     29  C   UNL d   1     -43.016-123.246 -55.674  0.00  0.00     0.000 A 
ATOM     30  C   UNL d   1     -42.757-123.526 -54.943  0.00  0.00     0.002 A 
ENDBRANCH  24  25
ENDBRANCH  23  24
ENDBRANCH  22  23
ENDBRANCH   5  22
TORSDOF 7
ENDMDL
