MODEL 1
REMARK VINA RESULT:      49.4      0.000      0.000
REMARK  5 active torsions:
REMARK  status: ('A' for Active; 'I' for Inactive)
REMARK    1  A    between atoms: N_2  and  S_1 
REMARK    2  A    between atoms: N_6  and  S_1 
REMARK    3  A    between atoms: C_3  and  N_4 
REMARK       I    between atoms: N_4  and  C_5 
REMARK    4  A    between atoms: C_5  and  C_14 
REMARK    5  A    between atoms: C_14  and  N_7 
ROOT
ATOM      1  N   UNL d   1     -55.345-101.072 -43.186  0.00  0.00    -0.213 N 
ATOM      2  N   UNL d   1     -54.926-102.142 -42.020  0.00  0.00    -0.296 N 
ATOM      3  C   UNL d   1     -55.337-101.878 -43.350  0.00  0.00     0.112 A 
ATOM      4  C   UNL d   1     -55.141-100.795 -42.427  0.00  0.00     0.112 A 
ATOM      5  C   UNL d   1     -55.125-102.418 -42.763  0.00  0.00     0.100 A 
ATOM      6  C   UNL d   1     -54.930-101.334 -41.839  0.00  0.00     0.100 A 
ENDROOT
BRANCH   2   7
ATOM      7  C   UNL d   1     -54.712-102.690 -41.423  0.00  0.00     0.144 C 
BRANCH   7   8
ATOM      8  C   UNL d   1     -55.145-102.719 -40.716  0.00  0.00     0.297 C 
ATOM      9  N   UNL d   1     -54.759-102.655 -39.991  0.00  0.00    -0.206 NA
ATOM     10  O   UNL d   1     -55.964-102.814 -40.741  0.00  0.00    -0.264 OA
BRANCH   9  11
ATOM     11  C   UNL d   1     -55.193-102.685 -39.288  0.00  0.00     0.096 A 
ATOM     12  C   UNL d   1     -54.796-102.682 -38.564  0.00  0.00     0.032 A 
ATOM     13  C   UNL d   1     -55.227-102.712 -37.860  0.00  0.00     0.059 A 
ATOM     14 CL   UNL d   1     -54.830-102.709 -37.137  0.00  0.00    -0.082 Cl
ATOM     15  C   UNL d   1     -56.050-102.744 -37.883  0.00  0.00     0.012 A 
ATOM     16  C   UNL d   1     -56.444-102.746 -38.608  0.00  0.00     0.014 A 
ATOM     17  C   UNL d   1     -56.011-102.716 -39.312  0.00  0.00     0.075 A 
ATOM     18 CL   UNL d   1     -56.397-102.719 -40.041  0.00  0.00    -0.081 Cl
ENDBRANCH   9  11
ENDBRANCH   7   8
ENDBRANCH   2   7
BRANCH   1  19
ATOM     19  S   UNL d   1     -55.557-100.533 -43.774  0.00  0.00     0.337 S 
ATOM     20  O   UNL d   1     -54.967-100.108 -44.176  0.00  0.00    -0.181 OA
ATOM     21  O   UNL d   1     -56.350-100.417 -43.962  0.00  0.00    -0.181 OA
BRANCH  19  22
ATOM     22  N   UNL d   1     -55.768 -99.994 -44.362  0.00  0.00    -0.213 N 
ATOM     23  C   UNL d   1     -56.465 -99.551 -44.284  0.00  0.00     0.113 C 
ATOM     24  C   UNL d   1     -55.288 -99.896 -45.024  0.00  0.00     0.113 C 
ENDBRANCH  19  22
ENDBRANCH   1  19
TORSDOF 5
ENDMDL
