MODEL 1
REMARK VINA RESULT:      -1.8      0.000      0.000
REMARK  6 active torsions:
REMARK  status: ('A' for Active; 'I' for Inactive)
REMARK    1  A    between atoms: C_6  and  C_1 
REMARK    2  A    between atoms: N_7  and  C_2 
REMARK    3  A    between atoms: C_8  and  N_5 
REMARK    4  A    between atoms: O_13  and  C_6 
REMARK    5  A    between atoms: C_18  and  O_13 
REMARK    6  A    between atoms: O_17  and  C_14 
ROOT
ATOM      1  C   UNL d   1      29.767  15.924 -24.109  0.00  0.00     0.112 A 
ATOM      2  C   UNL d   1      31.070  15.882 -23.783  0.00  0.00     0.172 A 
ATOM      3  C   UNL d   1      30.116  16.637 -24.335  0.00  0.00     0.077 A 
ATOM      4  S   UNL d   1      30.356  15.455 -23.767  0.00  0.00    -0.044 SA
ATOM      5  N   UNL d   1      30.921  16.610 -24.133  0.00  0.00    -0.287 N 
ATOM      6  C   UNL d   1      29.719  17.269 -24.702  0.00  0.00     0.020 C 
ENDROOT
BRANCH   5   7
ATOM      7  C   UNL d   1      31.499  17.190 -24.248  0.00  0.00     0.066 A 
ATOM      8  C   UNL d   1      31.715  17.678 -23.620  0.00  0.00     0.020 A 
ATOM      9  C   UNL d   1      32.291  18.255 -23.737  0.00  0.00     0.026 A 
ATOM     10  C   UNL d   1      32.647  18.343 -24.471  0.00  0.00     0.094 A 
ATOM     11  C   UNL d   1      32.427  17.852 -25.096  0.00  0.00     0.026 A 
ATOM     12  C   UNL d   1      31.851  17.275 -24.979  0.00  0.00     0.020 A 
BRANCH  10  13
ATOM     13  O   UNL d   1      33.229  18.927 -24.589  0.00  0.00    -0.328 OA
ATOM     14  C   UNL d   1      33.085  19.704 -24.351  0.00  0.00     0.181 C 
ENDBRANCH  10  13
ENDBRANCH   5   7
BRANCH   2  15
ATOM     15  N   UNL d   1      31.798  15.617 -23.496  0.00  0.00    -0.277 NA
ATOM     16  H   UNL d   1      31.877  15.408 -22.703  0.00  0.00     0.189 HD
ENDBRANCH   2  15
BRANCH   1  17
ATOM     17  C   UNL d   1      28.973  15.717 -24.207  0.00  0.00     0.308 C 
ATOM     18  O   UNL d   1      28.703  15.457 -24.935  0.00  0.00    -0.258 OA
BRANCH  17  19
ATOM     19  O   UNL d   1      28.450  15.773 -23.565  0.00  0.00    -0.271 OA
BRANCH  19  20
ATOM     20  C   UNL d   1      27.691  15.458 -23.614  0.00  0.00     0.126 C 
ATOM     21  C   UNL d   1      27.188  15.480 -22.960  0.00  0.00     0.029 C 
ENDBRANCH  19  20
ENDBRANCH  17  19
ENDBRANCH   1  17
TORSDOF 6
ENDMDL
MODEL 2
REMARK VINA RESULT:      -0.4      3.040      5.239
REMARK  6 active torsions:
REMARK  status: ('A' for Active; 'I' for Inactive)
REMARK    1  A    between atoms: C_6  and  C_1 
REMARK    2  A    between atoms: N_7  and  C_2 
REMARK    3  A    between atoms: C_8  and  N_5 
REMARK    4  A    between atoms: O_13  and  C_6 
REMARK    5  A    between atoms: C_18  and  O_13 
REMARK    6  A    between atoms: O_17  and  C_14 
ROOT
ATOM      1  C   UNL d   1      32.962  20.577 -22.547  0.00  0.00     0.112 A 
ATOM      2  C   UNL d   1      33.086  19.871 -23.683  0.00  0.00     0.172 A 
ATOM      3  C   UNL d   1      32.740  19.798 -22.394  0.00  0.00     0.077 A 
ATOM      4  S   UNL d   1      33.177  20.625 -23.344  0.00  0.00    -0.044 SA
ATOM      5  N   UNL d   1      32.817  19.361 -23.097  0.00  0.00    -0.287 N 
ATOM      6  C   UNL d   1      32.484  19.508 -21.658  0.00  0.00     0.020 C 
ENDROOT
BRANCH   5   7
ATOM      7  C   UNL d   1      32.661  18.560 -23.223  0.00  0.00     0.066 A 
ATOM      8  C   UNL d   1      33.232  17.998 -23.030  0.00  0.00     0.020 A 
ATOM      9  C   UNL d   1      33.074  17.200 -23.157  0.00  0.00     0.026 A 
ATOM     10  C   UNL d   1      32.354  16.966 -23.473  0.00  0.00     0.094 A 
ATOM     11  C   UNL d   1      31.785  17.531 -23.664  0.00  0.00     0.026 A 
ATOM     12  C   UNL d   1      31.943  18.330 -23.537  0.00  0.00     0.020 A 
BRANCH  10  13
ATOM     13  O   UNL d   1      32.195  16.158 -23.601  0.00  0.00    -0.328 OA
ATOM     14  C   UNL d   1      32.463  15.597 -23.060  0.00  0.00     0.181 C 
ENDBRANCH  10  13
ENDBRANCH   5   7
BRANCH   2  15
ATOM     15  N   UNL d   1      33.240  19.673 -24.470  0.00  0.00    -0.277 NA
ATOM     16  H   UNL d   1      33.210  20.253 -25.054  0.00  0.00     0.189 HD
ENDBRANCH   2  15
BRANCH   1  17
ATOM     17  C   UNL d   1      32.969  21.198 -22.001  0.00  0.00     0.308 C 
ATOM     18  O   UNL d   1      33.240  21.073 -21.239  0.00  0.00    -0.258 OA
BRANCH  17  19
ATOM     19  O   UNL d   1      32.700  21.950 -22.228  0.00  0.00    -0.271 OA
BRANCH  19  20
ATOM     20  C   UNL d   1      32.782  22.594 -21.723  0.00  0.00     0.126 C 
ATOM     21  C   UNL d   1      32.131  23.072 -21.548  0.00  0.00     0.029 C 
ENDBRANCH  19  20
ENDBRANCH  17  19
ENDBRANCH   1  17
TORSDOF 6
ENDMDL
MODEL 3
REMARK VINA RESULT:      -0.2      4.056      6.264
REMARK  6 active torsions:
REMARK  status: ('A' for Active; 'I' for Inactive)
REMARK    1  A    between atoms: C_6  and  C_1 
REMARK    2  A    between atoms: N_7  and  C_2 
REMARK    3  A    between atoms: C_8  and  N_5 
REMARK    4  A    between atoms: O_13  and  C_6 
REMARK    5  A    between atoms: C_18  and  O_13 
REMARK    6  A    between atoms: O_17  and  C_14 
ROOT
ATOM      1  C   UNL d   1      32.978  21.801 -21.063  0.00  0.00     0.112 A 
ATOM      2  C   UNL d   1      33.129  20.466 -21.077  0.00  0.00     0.172 A 
ATOM      3  C   UNL d   1      32.943  21.543 -21.845  0.00  0.00     0.077 A 
ATOM      4  S   UNL d   1      33.094  21.136 -20.585  0.00  0.00    -0.044 SA
ATOM      5  N   UNL d   1      33.036  20.718 -21.854  0.00  0.00    -0.287 N 
ATOM      6  C   UNL d   1      32.833  22.035 -22.507  0.00  0.00     0.020 C 
ENDROOT
BRANCH   5   7
ATOM      7  C   UNL d   1      33.041  20.209 -22.504  0.00  0.00     0.066 A 
ATOM      8  C   UNL d   1      33.236  20.501 -23.250  0.00  0.00     0.020 A 
ATOM      9  C   UNL d   1      33.239  19.991 -23.896  0.00  0.00     0.026 A 
ATOM     10  C   UNL d   1      33.051  19.198 -23.799  0.00  0.00     0.094 A 
ATOM     11  C   UNL d   1      32.856  18.910 -23.051  0.00  0.00     0.026 A 
ATOM     12  C   UNL d   1      32.853  19.421 -22.405  0.00  0.00     0.020 A 
BRANCH  10  13
ATOM     13  O   UNL d   1      33.054  18.683 -24.453  0.00  0.00    -0.328 OA
ATOM     14  C   UNL d   1      32.525  18.805 -25.074  0.00  0.00     0.181 C 
ENDBRANCH  10  13
ENDBRANCH   5   7
BRANCH   2  15
ATOM     15  N   UNL d   1      33.239  19.687 -20.825  0.00  0.00    -0.277 NA
ATOM     16  H   UNL d   1      32.606  19.261 -20.515  0.00  0.00     0.189 HD
ENDBRANCH   2  15
BRANCH   1  17
ATOM     17  C   UNL d   1      32.911  22.583 -20.803  0.00  0.00     0.308 C 
ATOM     18  O   UNL d   1      32.631  23.162 -21.310  0.00  0.00    -0.258 OA
BRANCH  17  19
ATOM     19  O   UNL d   1      33.128  22.780 -20.026  0.00  0.00    -0.271 OA
BRANCH  19  20
ATOM     20  C   UNL d   1      32.911  23.505 -19.702  0.00  0.00     0.126 C 
ATOM     21  C   UNL d   1      33.051  23.662 -18.903  0.00  0.00     0.029 C 
ENDBRANCH  19  20
ENDBRANCH  17  19
ENDBRANCH   1  17
TORSDOF 6
ENDMDL
MODEL 4
REMARK VINA RESULT:      -0.1      3.429      4.832
REMARK  6 active torsions:
REMARK  status: ('A' for Active; 'I' for Inactive)
REMARK    1  A    between atoms: C_6  and  C_1 
REMARK    2  A    between atoms: N_7  and  C_2 
REMARK    3  A    between atoms: C_8  and  N_5 
REMARK    4  A    between atoms: O_13  and  C_6 
REMARK    5  A    between atoms: C_18  and  O_13 
REMARK    6  A    between atoms: O_17  and  C_14 
ROOT
ATOM      1  C   UNL d   1      33.104  18.893 -23.261  0.00  0.00     0.112 A 
ATOM      2  C   UNL d   1      33.151  19.345 -21.996  0.00  0.00     0.172 A 
ATOM      3  C   UNL d   1      32.933  19.700 -23.266  0.00  0.00     0.077 A 
ATOM      4  S   UNL d   1      33.239  18.671 -22.476  0.00  0.00    -0.044 SA
ATOM      5  N   UNL d   1      32.962  19.978 -22.484  0.00  0.00    -0.287 N 
ATOM      6  C   UNL d   1      32.761  20.149 -23.944  0.00  0.00     0.020 C 
ENDROOT
BRANCH   5   7
ATOM      7  C   UNL d   1      32.830  20.745 -22.207  0.00  0.00     0.066 A 
ATOM      8  C   UNL d   1      32.317  20.868 -21.574  0.00  0.00     0.020 A 
ATOM      9  C   UNL d   1      32.188  21.634 -21.300  0.00  0.00     0.026 A 
ATOM     10  C   UNL d   1      32.567  22.270 -21.653  0.00  0.00     0.094 A 
ATOM     11  C   UNL d   1      33.080  22.142 -22.287  0.00  0.00     0.026 A 
ATOM     12  C   UNL d   1      33.209  21.376 -22.561  0.00  0.00     0.020 A 
BRANCH  10  13
ATOM     13  O   UNL d   1      32.436  23.044 -21.376  0.00  0.00    -0.328 OA
ATOM     14  C   UNL d   1      32.462  23.199 -20.566  0.00  0.00     0.181 C 
ENDBRANCH  10  13
ENDBRANCH   5   7
BRANCH   2  15
ATOM     15  N   UNL d   1      33.238  19.368 -21.175  0.00  0.00    -0.277 NA
ATOM     16  H   UNL d   1      33.988  19.320 -20.839  0.00  0.00     0.189 HD
ENDBRANCH   2  15
BRANCH   1  17
ATOM     17  C   UNL d   1      33.135  18.397 -23.921  0.00  0.00     0.308 C 
ATOM     18  O   UNL d   1      33.122  18.715 -24.676  0.00  0.00    -0.258 OA
BRANCH  17  19
ATOM     19  O   UNL d   1      33.178  17.574 -23.818  0.00  0.00    -0.271 OA
BRANCH  19  20
ATOM     20  C   UNL d   1      33.233  17.072 -24.468  0.00  0.00     0.126 C 
ATOM     21  C   UNL d   1      32.897  16.319 -24.442  0.00  0.00     0.029 C 
ENDBRANCH  19  20
ENDBRANCH  17  19
ENDBRANCH   1  17
TORSDOF 6
ENDMDL
MODEL 5
REMARK VINA RESULT:       0.1      6.100      7.496
REMARK  6 active torsions:
REMARK  status: ('A' for Active; 'I' for Inactive)
REMARK    1  A    between atoms: C_6  and  C_1 
REMARK    2  A    between atoms: N_7  and  C_2 
REMARK    3  A    between atoms: C_8  and  N_5 
REMARK    4  A    between atoms: O_13  and  C_6 
REMARK    5  A    between atoms: C_18  and  O_13 
REMARK    6  A    between atoms: O_17  and  C_14 
ROOT
ATOM      1  C   UNL d   1      32.552  22.742 -19.772  0.00  0.00     0.112 A 
ATOM      2  C   UNL d   1      32.230  21.804 -20.679  0.00  0.00     0.172 A 
ATOM      3  C   UNL d   1      32.825  22.989 -20.510  0.00  0.00     0.077 A 
ATOM      4  S   UNL d   1      32.184  22.009 -19.874  0.00  0.00    -0.044 SA
ATOM      5  N   UNL d   1      32.626  22.409 -21.070  0.00  0.00    -0.287 N 
ATOM      6  C   UNL d   1      33.230  23.700 -20.658  0.00  0.00     0.020 C 
ENDROOT
BRANCH   5   7
ATOM      7  C   UNL d   1      32.780  22.405 -21.882  0.00  0.00     0.066 A 
ATOM      8  C   UNL d   1      32.972  21.696 -22.256  0.00  0.00     0.020 A 
ATOM      9  C   UNL d   1      33.125  21.696 -23.066  0.00  0.00     0.026 A 
ATOM     10  C   UNL d   1      33.086  22.393 -23.496  0.00  0.00     0.094 A 
ATOM     11  C   UNL d   1      32.893  23.100 -23.117  0.00  0.00     0.026 A 
ATOM     12  C   UNL d   1      32.740  23.101 -22.307  0.00  0.00     0.020 A 
BRANCH  10  13
ATOM     13  O   UNL d   1      33.241  22.391 -24.314  0.00  0.00    -0.328 OA
ATOM     14  C   UNL d   1      33.139  23.083 -24.752  0.00  0.00     0.181 C 
ENDBRANCH  10  13
ENDBRANCH   5   7
BRANCH   2  15
ATOM     15  N   UNL d   1      31.930  21.114 -21.021  0.00  0.00    -0.277 NA
ATOM     16  H   UNL d   1      32.042  20.970 -21.824  0.00  0.00     0.189 HD
ENDBRANCH   2  15
BRANCH   1  17
ATOM     17  C   UNL d   1      32.633  23.153 -19.059  0.00  0.00     0.308 C 
ATOM     18  O   UNL d   1      33.240  23.694 -18.963  0.00  0.00    -0.258 OA
BRANCH  17  19
ATOM     19  O   UNL d   1      32.097  23.016 -18.440  0.00  0.00    -0.271 OA
BRANCH  19  20
ATOM     20  C   UNL d   1      32.168  23.419 -17.727  0.00  0.00     0.126 C 
ATOM     21  C   UNL d   1      32.261  23.003 -17.020  0.00  0.00     0.029 C 
ENDBRANCH  19  20
ENDBRANCH  17  19
ENDBRANCH   1  17
TORSDOF 6
ENDMDL
