MODEL 1
REMARK VINA RESULT:      31.1      0.000      0.000
REMARK  3 active torsions:
REMARK  status: ('A' for Active; 'I' for Inactive)
REMARK    1  A    between atoms: S_2  and  N_1 
REMARK    2  A    between atoms: C_6  and  S_2 
REMARK    3  A    between atoms: O_17  and  C_11 
ROOT
ATOM      1  S   UNL d   1      59.113  49.664  50.599  0.00  0.00     0.273 S 
ATOM      2  O   UNL d   1      58.745  49.623  51.336  0.00  0.00    -0.200 OA
ATOM      3  O   UNL d   1      59.483  49.705  49.858  0.00  0.00    -0.200 OA
ENDROOT
BRANCH   1   4
ATOM      4  N   UNL d   1      58.376  49.673  50.228  0.00  0.00    -0.214 N 
ATOM      5  C   UNL d   1      58.242  49.679  49.411  0.00  0.00     0.157 A 
ATOM      6  N   UNL d   1      57.421  49.688  49.282  0.00  0.00    -0.226 NA
ATOM      7  C   UNL d   1      58.819  49.676  48.831  0.00  0.00     0.041 C 
ATOM      8  C   UNL d   1      57.052  49.688  50.027  0.00  0.00     0.100 A 
ATOM      9  C   UNL d   1      57.635  49.679  50.606  0.00  0.00     0.094 A 
ATOM     10  C   UNL d   1      56.256  49.695  50.241  0.00  0.00     0.021 A 
ATOM     11  C   UNL d   1      57.422  49.677  51.409  0.00  0.00     0.020 A 
ATOM     12  C   UNL d   1      56.629  49.684  51.622  0.00  0.00     0.002 A 
ATOM     13  C   UNL d   1      56.043  49.693  51.044  0.00  0.00     0.002 A 
ENDBRANCH   1   4
BRANCH   1  14
ATOM     14  C   UNL d   1      59.851  49.655  50.966  0.00  0.00     0.106 A 
ATOM     15  C   UNL d   1      59.903  49.668  51.796  0.00  0.00     0.039 A 
ATOM     16  C   UNL d   1      60.641  49.659  52.164  0.00  0.00     0.122 A 
ATOM     17  C   UNL d   1      61.334  49.636  51.707  0.00  0.00     0.162 A 
ATOM     18  C   UNL d   1      61.283  49.622  50.883  0.00  0.00     0.032 A 
ATOM     19  F   UNL d   1      62.062  49.627  52.076  0.00  0.00    -0.202 F 
ATOM     20  C   UNL d   1      60.545  49.632  50.515  0.00  0.00     0.015 A 
BRANCH  16  21
ATOM     21  O   UNL d   1      60.688  49.673  52.980  0.00  0.00    -0.326 OA
ATOM     22  C   UNL d   1      60.011  49.623  53.427  0.00  0.00     0.181 C 
ENDBRANCH  16  21
ENDBRANCH   1  14
TORSDOF 3
ENDMDL
