MODEL 1
REMARK VINA RESULT:      20.1      0.000      0.000
REMARK  1 active torsions:
REMARK  status: ('A' for Active; 'I' for Inactive)
REMARK    1  A    between atoms: C_7  and  N_1 
ROOT
ATOM      1  N   UNL d   1      46.162 -17.995  43.634  0.00  0.00    -0.259 N 
ATOM      2  C   UNL d   1      46.195 -18.083  42.802  0.00  0.00     0.267 A 
ATOM      3  C   UNL d   1      46.278 -18.645  44.133  0.00  0.00     0.150 A 
ATOM      4  N   UNL d   1      46.430 -19.396  43.804  0.00  0.00    -0.228 NA
ATOM      5  C   UNL d   1      46.346 -18.833  42.483  0.00  0.00     0.074 A 
ATOM      6  C   UNL d   1      46.464 -19.490  42.987  0.00  0.00     0.088 A 
ATOM      7  O   UNL d   1      46.078 -17.433  42.312  0.00  0.00    -0.267 OA
ATOM      8  C   UNL d   1      46.245 -18.555  44.952  0.00  0.00     0.041 C 
ATOM      9  C   UNL d   1      46.379 -18.921  41.666  0.00  0.00     0.006 A 
ATOM     10  C   UNL d   1      46.614 -20.230  42.651  0.00  0.00     0.019 A 
ATOM     11  C   UNL d   1      46.530 -19.667  41.345  0.00  0.00     0.000 A 
ATOM     12  C   UNL d   1      46.647 -20.319  41.836  0.00  0.00     0.002 A 
ENDROOT
BRANCH   1  13
ATOM     13  C   UNL d   1      46.012 -17.256  43.960  0.00  0.00     0.068 A 
ATOM     14  C   UNL d   1      46.403 -16.585  43.668  0.00  0.00     0.020 A 
ATOM     15  C   UNL d   1      46.248 -15.845  44.001  0.00  0.00     0.031 A 
ATOM     16  C   UNL d   1      45.709 -15.768  44.618  0.00  0.00     0.140 A 
ATOM     17  C   UNL d   1      45.323 -16.439  44.904  0.00  0.00     0.031 A 
ATOM     18  F   UNL d   1      45.559 -15.028  44.944  0.00  0.00    -0.204 F 
ATOM     19  C   UNL d   1      45.475 -17.179  44.575  0.00  0.00     0.020 A 
ENDBRANCH   1  13
TORSDOF 1
ENDMDL
MODEL 2
REMARK VINA RESULT:      20.3      2.062      3.300
REMARK  1 active torsions:
REMARK  status: ('A' for Active; 'I' for Inactive)
REMARK    1  A    between atoms: C_7  and  N_1 
ROOT
ATOM      1  N   UNL d   1      46.183 -19.104  42.109  0.00  0.00    -0.259 N 
ATOM      2  C   UNL d   1      46.163 -18.692  42.837  0.00  0.00     0.267 A 
ATOM      3  C   UNL d   1      46.355 -19.913  42.086  0.00  0.00     0.150 A 
ATOM      4  N   UNL d   1      46.510 -20.323  42.795  0.00  0.00    -0.228 NA
ATOM      5  C   UNL d   1      46.318 -19.107  43.537  0.00  0.00     0.074 A 
ATOM      6  C   UNL d   1      46.492 -19.924  43.514  0.00  0.00     0.088 A 
ATOM      7  O   UNL d   1      45.991 -17.887  42.853  0.00  0.00    -0.267 OA
ATOM      8  C   UNL d   1      46.374 -20.317  41.366  0.00  0.00     0.041 C 
ATOM      9  C   UNL d   1      46.298 -18.703  44.254  0.00  0.00     0.006 A 
ATOM     10  C   UNL d   1      46.644 -20.321  44.223  0.00  0.00     0.019 A 
ATOM     11  C   UNL d   1      46.452 -19.113  44.954  0.00  0.00     0.000 A 
ATOM     12  C   UNL d   1      46.624 -19.919  44.939  0.00  0.00     0.002 A 
ENDROOT
BRANCH   1  13
ATOM     13  C   UNL d   1      46.031 -18.702  41.409  0.00  0.00     0.068 A 
ATOM     14  C   UNL d   1      45.254 -18.490  41.211  0.00  0.00     0.020 A 
ATOM     15  C   UNL d   1      45.108 -18.085  40.505  0.00  0.00     0.031 A 
ATOM     16  C   UNL d   1      45.726 -17.892  39.997  0.00  0.00     0.140 A 
ATOM     17  C   UNL d   1      46.498 -18.107  40.200  0.00  0.00     0.031 A 
ATOM     18  F   UNL d   1      45.574 -17.490  39.297  0.00  0.00    -0.204 F 
ATOM     19  C   UNL d   1      46.647 -18.510  40.903  0.00  0.00     0.020 A 
ENDBRANCH   1  13
TORSDOF 1
ENDMDL
