MODEL 1
REMARK VINA RESULT:      -4.0      0.000      0.000
REMARK  4 active torsions:
REMARK  status: ('A' for Active; 'I' for Inactive)
REMARK    1  A    between atoms: C_2  and  C_1 
REMARK    2  A    between atoms: C_4  and  C_3 
REMARK       I    between atoms: N_6  and  C_4 
REMARK    3  A    between atoms: C_5  and  C_10 
REMARK       I    between atoms: N_9  and  C_5 
REMARK    4  A    between atoms: C_10  and  N_6 
ROOT
ATOM      1  C   UNL d   1      59.362  -0.722  29.440  0.00  0.00     0.076 A 
ATOM      2  C   UNL d   1      58.992   0.013  29.561  0.00  0.00     0.062 A 
ATOM      3  C   UNL d   1      60.174  -0.787  29.520  0.00  0.00     0.004 A 
ATOM      4  C   UNL d   1      59.454   0.674  29.762  0.00  0.00     0.005 A 
ATOM      5  C   UNL d   1      60.282   0.597  29.841  0.00  0.00     0.000 A 
ATOM      6  C   UNL d   1      60.630  -0.134  29.718  0.00  0.00    -0.000 A 
ENDROOT
BRANCH   2   7
ATOM      7  C   UNL d   1      58.174   0.088  29.483  0.00  0.00     0.279 C 
ATOM      8  N   UNL d   1      57.708   0.229  30.149  0.00  0.00    -0.201 NA
ATOM      9  O   UNL d   1      57.830   0.022  28.735  0.00  0.00    -0.265 OA
BRANCH   8  10
ATOM     10  C   UNL d   1      58.057   0.294  30.895  0.00  0.00     0.166 C 
BRANCH  10  11
ATOM     11  C   UNL d   1      57.584   0.366  31.566  0.00  0.00     0.318 C 
ATOM     12  O   UNL d   1      56.782   0.197  31.518  0.00  0.00    -0.262 OA
ATOM     13  N   UNL d   1      57.918   0.609  32.283  0.00  0.00    -0.083 NA
ATOM     14  N   UNL d   1      57.445   0.680  32.952  0.00  0.00    -0.019 N 
ENDBRANCH  10  11
ENDBRANCH   8  10
ENDBRANCH   2   7
BRANCH   1  15
ATOM     15  C   UNL d   1      58.901  -1.383  29.239  0.00  0.00     0.419 C 
ATOM     16  F   UNL d   1      58.480  -1.986  29.056  0.00  0.00    -0.166 F 
ATOM     17  F   UNL d   1      58.594  -1.609  28.460  0.00  0.00    -0.166 F 
ATOM     18  F   UNL d   1      58.608  -2.008  29.739  0.00  0.00    -0.166 F 
ENDBRANCH   1  15
TORSDOF 4
ENDMDL
MODEL 2
REMARK VINA RESULT:      -3.9      2.117      2.943
REMARK  4 active torsions:
REMARK  status: ('A' for Active; 'I' for Inactive)
REMARK    1  A    between atoms: C_2  and  C_1 
REMARK    2  A    between atoms: C_4  and  C_3 
REMARK       I    between atoms: N_6  and  C_4 
REMARK    3  A    between atoms: C_5  and  C_10 
REMARK       I    between atoms: N_9  and  C_5 
REMARK    4  A    between atoms: C_10  and  N_6 
ROOT
ATOM      1  C   UNL d   1      58.934   0.219  30.018  0.00  0.00     0.076 A 
ATOM      2  C   UNL d   1      59.159  -0.154  29.310  0.00  0.00     0.062 A 
ATOM      3  C   UNL d   1      59.490   0.623  30.462  0.00  0.00     0.004 A 
ATOM      4  C   UNL d   1      59.951  -0.111  29.061  0.00  0.00     0.005 A 
ATOM      5  C   UNL d   1      60.512   0.304  29.521  0.00  0.00     0.000 A 
ATOM      6  C   UNL d   1      60.272   0.665  30.216  0.00  0.00    -0.000 A 
ENDROOT
BRANCH   2   7
ATOM      7  C   UNL d   1      58.605  -0.563  28.857  0.00  0.00     0.279 C 
ATOM      8  N   UNL d   1      58.670  -1.381  28.767  0.00  0.00    -0.201 NA
ATOM      9  O   UNL d   1      57.989  -0.148  28.496  0.00  0.00    -0.265 OA
BRANCH   8  10
ATOM     10  C   UNL d   1      59.288  -1.793  29.129  0.00  0.00     0.166 C 
BRANCH  10  11
ATOM     11  C   UNL d   1      59.312  -2.615  29.092  0.00  0.00     0.318 C 
ATOM     12  O   UNL d   1      58.615  -3.039  29.008  0.00  0.00    -0.262 OA
ATOM     13  N   UNL d   1      60.038  -3.009  29.139  0.00  0.00    -0.083 NA
ATOM     14  N   UNL d   1      60.062  -3.830  29.102  0.00  0.00    -0.019 N 
ENDBRANCH  10  11
ENDBRANCH   8  10
ENDBRANCH   2   7
BRANCH   1  15
ATOM     15  C   UNL d   1      58.142   0.176  30.267  0.00  0.00     0.419 C 
ATOM     16  F   UNL d   1      57.420   0.137  30.494  0.00  0.00    -0.166 F 
ATOM     17  F   UNL d   1      57.476   0.682  30.036  0.00  0.00    -0.166 F 
ATOM     18  F   UNL d   1      57.777  -0.370  30.810  0.00  0.00    -0.166 F 
ENDBRANCH   1  15
TORSDOF 4
ENDMDL
MODEL 3
REMARK VINA RESULT:      -3.6      9.208      9.774
REMARK  4 active torsions:
REMARK  status: ('A' for Active; 'I' for Inactive)
REMARK    1  A    between atoms: C_2  and  C_1 
REMARK    2  A    between atoms: C_4  and  C_3 
REMARK       I    between atoms: N_6  and  C_4 
REMARK    3  A    between atoms: C_5  and  C_10 
REMARK       I    between atoms: N_9  and  C_5 
REMARK    4  A    between atoms: C_10  and  N_6 
ROOT
ATOM      1  C   UNL d   1      59.745  -7.049  35.937  0.00  0.00     0.076 A 
ATOM      2  C   UNL d   1      59.733  -7.879  35.977  0.00  0.00     0.062 A 
ATOM      3  C   UNL d   1      60.438  -6.642  36.090  0.00  0.00     0.004 A 
ATOM      4  C   UNL d   1      60.430  -8.287  36.174  0.00  0.00     0.005 A 
ATOM      5  C   UNL d   1      61.133  -7.863  36.329  0.00  0.00     0.000 A 
ATOM      6  C   UNL d   1      61.126  -7.046  36.285  0.00  0.00    -0.000 A 
ENDROOT
BRANCH   2   7
ATOM      7  C   UNL d   1      59.039  -8.297  35.823  0.00  0.00     0.279 C 
ATOM      8  N   UNL d   1      59.001  -8.811  35.178  0.00  0.00    -0.201 NA
ATOM      9  O   UNL d   1      58.386  -8.196  36.320  0.00  0.00    -0.265 OA
BRANCH   8  10
ATOM     10  C   UNL d   1      59.657  -8.909  34.685  0.00  0.00     0.166 C 
BRANCH  10  11
ATOM     11  C   UNL d   1      59.565  -9.255  33.944  0.00  0.00     0.318 C 
ATOM     12  O   UNL d   1      58.852  -9.609  33.745  0.00  0.00    -0.262 OA
ATOM     13  N   UNL d   1      60.192  -9.245  33.403  0.00  0.00    -0.083 NA
ATOM     14  N   UNL d   1      60.100  -9.591  32.663  0.00  0.00    -0.019 N 
ENDBRANCH  10  11
ENDBRANCH   8  10
ENDBRANCH   2   7
BRANCH   1  15
ATOM     15  C   UNL d   1      59.048  -6.641  35.740  0.00  0.00     0.419 C 
ATOM     16  F   UNL d   1      58.413  -6.268  35.560  0.00  0.00    -0.166 F 
ATOM     17  F   UNL d   1      58.742  -6.446  34.951  0.00  0.00    -0.166 F 
ATOM     18  F   UNL d   1      58.455  -6.308  36.253  0.00  0.00    -0.166 F 
ENDBRANCH   1  15
TORSDOF 4
ENDMDL
MODEL 4
REMARK VINA RESULT:      -3.1      9.035      9.553
REMARK  4 active torsions:
REMARK  status: ('A' for Active; 'I' for Inactive)
REMARK    1  A    between atoms: C_2  and  C_1 
REMARK    2  A    between atoms: C_4  and  C_3 
REMARK       I    between atoms: N_6  and  C_4 
REMARK    3  A    between atoms: C_5  and  C_10 
REMARK       I    between atoms: N_9  and  C_5 
REMARK    4  A    between atoms: C_10  and  N_6 
ROOT
ATOM      1  C   UNL d   1      60.550  -9.093  34.775  0.00  0.00     0.076 A 
ATOM      2  C   UNL d   1      59.860  -8.761  35.097  0.00  0.00     0.062 A 
ATOM      3  C   UNL d   1      61.001  -9.610  35.222  0.00  0.00     0.004 A 
ATOM      4  C   UNL d   1      59.634  -8.959  35.872  0.00  0.00     0.005 A 
ATOM      5  C   UNL d   1      60.101  -9.488  36.320  0.00  0.00     0.000 A 
ATOM      6  C   UNL d   1      60.778  -9.806  35.988  0.00  0.00    -0.000 A 
ENDROOT
BRANCH   2   7
ATOM      7  C   UNL d   1      59.400  -8.239  34.653  0.00  0.00     0.279 C 
ATOM      8  N   UNL d   1      59.281  -7.466  34.920  0.00  0.00    -0.201 NA
ATOM      9  O   UNL d   1      59.063  -8.496  33.945  0.00  0.00    -0.265 OA
BRANCH   8  10
ATOM     10  C   UNL d   1      59.620  -7.213  35.629  0.00  0.00     0.166 C 
BRANCH  10  11
ATOM     11  C   UNL d   1      59.783  -6.414  35.745  0.00  0.00     0.318 C 
ATOM     12  O   UNL d   1      59.244  -5.848  35.495  0.00  0.00    -0.262 OA
ATOM     13  N   UNL d   1      60.489  -6.186  36.112  0.00  0.00    -0.083 NA
ATOM     14  N   UNL d   1      60.652  -5.389  36.228  0.00  0.00    -0.019 N 
ENDBRANCH  10  11
ENDBRANCH   8  10
ENDBRANCH   2   7
BRANCH   1  15
ATOM     15  C   UNL d   1      60.776  -8.895  34.000  0.00  0.00     0.419 C 
ATOM     16  F   UNL d   1      60.982  -8.714  33.293  0.00  0.00    -0.166 F 
ATOM     17  F   UNL d   1      61.133  -8.157  33.715  0.00  0.00    -0.166 F 
ATOM     18  F   UNL d   1      60.717  -9.357  33.287  0.00  0.00    -0.166 F 
ENDBRANCH   1  15
TORSDOF 4
ENDMDL
MODEL 5
REMARK VINA RESULT:      -2.4      9.243      9.739
REMARK  4 active torsions:
REMARK  status: ('A' for Active; 'I' for Inactive)
REMARK    1  A    between atoms: C_2  and  C_1 
REMARK    2  A    between atoms: C_4  and  C_3 
REMARK       I    between atoms: N_6  and  C_4 
REMARK    3  A    between atoms: C_5  and  C_10 
REMARK       I    between atoms: N_9  and  C_5 
REMARK    4  A    between atoms: C_10  and  N_6 
ROOT
ATOM      1  C   UNL d   1      59.551  -9.517  33.141  0.00  0.00     0.076 A 
ATOM      2  C   UNL d   1      59.770  -9.511  33.943  0.00  0.00     0.062 A 
ATOM      3  C   UNL d   1      60.116  -9.656  32.565  0.00  0.00     0.004 A 
ATOM      4  C   UNL d   1      60.563  -9.646  34.151  0.00  0.00     0.005 A 
ATOM      5  C   UNL d   1      61.133  -9.786  33.555  0.00  0.00     0.000 A 
ATOM      6  C   UNL d   1      60.900  -9.789  32.770  0.00  0.00    -0.000 A 
ENDROOT
BRANCH   2   7
ATOM      7  C   UNL d   1      59.207  -9.372  34.530  0.00  0.00     0.279 C 
ATOM      8  N   UNL d   1      59.342  -8.791  35.101  0.00  0.00    -0.201 NA
ATOM      9  O   UNL d   1      58.512  -9.818  34.539  0.00  0.00    -0.265 OA
BRANCH   8  10
ATOM     10  C   UNL d   1      60.039  -8.347  35.087  0.00  0.00     0.166 C 
BRANCH  10  11
ATOM     11  C   UNL d   1      60.119  -7.693  35.580  0.00  0.00     0.318 C 
ATOM     12  O   UNL d   1      60.861  -7.490  35.869  0.00  0.00    -0.262 OA
ATOM     13  N   UNL d   1      59.455  -7.243  35.782  0.00  0.00    -0.083 NA
ATOM     14  N   UNL d   1      59.536  -6.590  36.275  0.00  0.00    -0.019 N 
ENDBRANCH  10  11
ENDBRANCH   8  10
ENDBRANCH   2   7
BRANCH   1  15
ATOM     15  C   UNL d   1      58.758  -9.382  32.934  0.00  0.00     0.419 C 
ATOM     16  F   UNL d   1      58.034  -9.259  32.744  0.00  0.00    -0.166 F 
ATOM     17  F   UNL d   1      58.052  -9.815  33.193  0.00  0.00    -0.166 F 
ATOM     18  F   UNL d   1      58.429  -8.790  32.417  0.00  0.00    -0.166 F 
ENDBRANCH   1  15
TORSDOF 4
ENDMDL
