MODEL 1
REMARK VINA RESULT:      58.1      0.000      0.000
REMARK  6 active torsions:
REMARK  status: ('A' for Active; 'I' for Inactive)
REMARK    1  A    between atoms: C_5  and  N_1 
REMARK    2  A    between atoms: C_10  and  C_4 
REMARK    3  A    between atoms: C_6  and  S_13 
REMARK    4  A    between atoms: C_8  and  C_11 
REMARK    5  A    between atoms: C_14  and  C_8 
REMARK    6  A    between atoms: S_13  and  C_14 
ROOT
ATOM      1  S   UNL d   1     -48.884  28.005  34.014  0.00  0.00    -0.062 SA
ENDROOT
BRANCH   1   2
ATOM      2  C   UNL d   1     -49.374  27.341  33.898  0.00  0.00     0.133 A 
ATOM      3  N   UNL d   1     -49.039  26.603  33.709  0.00  0.00    -0.141 NA
ATOM      4  N   UNL d   1     -49.528  25.946  33.594  0.00  0.00    -0.146 NA
ATOM      5  C   UNL d   1     -50.344  26.021  33.665  0.00  0.00     0.121 A 
ATOM      6  C   UNL d   1     -50.679  26.760  33.854  0.00  0.00     0.025 A 
ATOM      7  C   UNL d   1     -50.195  27.416  33.969  0.00  0.00     0.029 A 
BRANCH   5   8
ATOM      8  C   UNL d   1     -50.829  25.366  33.550  0.00  0.00     0.101 A 
ATOM      9  N   UNL d   1     -50.496  24.615  33.469  0.00  0.00    -0.242 NA
ATOM     10  C   UNL d   1     -50.980  23.959  33.354  0.00  0.00     0.099 A 
ATOM     11  C   UNL d   1     -51.808  24.050  33.319  0.00  0.00     0.021 A 
ATOM     12  C   UNL d   1     -52.141  24.800  33.400  0.00  0.00     0.003 A 
ATOM     13  C   UNL d   1     -51.653  25.457  33.516  0.00  0.00     0.021 A 
ENDBRANCH   5   8
ENDBRANCH   1   2
BRANCH   1  14
ATOM     14  C   UNL d   1     -48.953  28.457  34.710  0.00  0.00     0.079 C 
BRANCH  14  15
ATOM     15  C   UNL d   1     -48.279  28.671  35.132  0.00  0.00     0.202 C 
ATOM     16  O   UNL d   1     -47.860  28.098  35.551  0.00  0.00    -0.286 OA
BRANCH  15  17
ATOM     17  C   UNL d   1     -48.023  29.459  35.136  0.00  0.00     0.040 A 
ATOM     18  C   UNL d   1     -48.526  30.058  34.876  0.00  0.00     0.005 A 
ATOM     19  C   UNL d   1     -48.272  30.842  34.880  0.00  0.00     0.024 A 
ATOM     20  C   UNL d   1     -47.514  31.029  35.143  0.00  0.00     0.127 A 
ATOM     21  C   UNL d   1     -47.012  30.431  35.402  0.00  0.00     0.024 A 
ATOM     22  C   UNL d   1     -47.266  29.646  35.399  0.00  0.00     0.005 A 
BRANCH  20  23
ATOM     23  N   UNL d   1     -47.259  31.813  35.147  0.00  0.00    -0.114 N 
ATOM     24  O   UNL d   1     -46.517  32.008  34.847  0.00  0.00    -0.532 OA
ATOM     25  O   UNL d   1     -47.753  32.406  35.453  0.00  0.00    -0.532 OA
ENDBRANCH  20  23
ENDBRANCH  15  17
ENDBRANCH  14  15
ENDBRANCH   1  14
TORSDOF 6
ENDMDL
