MODEL 1
REMARK VINA RESULT:      -2.8      0.000      0.000
REMARK  1 active torsions:
REMARK  status: ('A' for Active; 'I' for Inactive)
REMARK    1  A    between atoms: O_8  and  C_4 
ROOT
ATOM      1  C   UNL d   1      23.433  12.613  -0.919  0.00  0.00     0.065 A 
ATOM      2  C   UNL d   1      23.273  13.198  -0.357  0.00  0.00     0.186 A 
ATOM      3  N   UNL d   1      23.863  13.733  -0.141  0.00  0.00    -0.224 NA
ATOM      4  C   UNL d   1      24.181  12.566  -1.262  0.00  0.00     0.099 A 
ATOM      5  N   UNL d   1      22.529  13.248  -0.014  0.00  0.00    -0.127 N 
ATOM      6  C   UNL d   1      24.608  13.684  -0.484  0.00  0.00     0.103 A 
ATOM      7  C   UNL d   1      24.767  13.099  -1.046  0.00  0.00     0.045 A 
ENDROOT
BRANCH   4   8
ATOM      8  O   UNL d   1      24.339  11.986  -1.819  0.00  0.00    -0.328 OA
ATOM      9  C   UNL d   1      24.765  12.171  -2.497  0.00  0.00     0.181 C 
ENDBRANCH   4   8
TORSDOF 1
ENDMDL
MODEL 2
REMARK VINA RESULT:      -2.0      1.652      2.251
REMARK  1 active torsions:
REMARK  status: ('A' for Active; 'I' for Inactive)
REMARK    1  A    between atoms: O_8  and  C_4 
ROOT
ATOM      1  C   UNL d   1      24.062  13.034  -1.260  0.00  0.00     0.065 A 
ATOM      2  C   UNL d   1      24.441  12.417  -1.660  0.00  0.00     0.186 A 
ATOM      3  N   UNL d   1      24.768  11.790  -1.235  0.00  0.00    -0.224 NA
ATOM      4  C   UNL d   1      24.012  13.020  -0.437  0.00  0.00     0.099 A 
ATOM      5  N   UNL d   1      24.493  12.428  -2.479  0.00  0.00    -0.127 N 
ATOM      6  C   UNL d   1      24.717  11.779  -0.415  0.00  0.00     0.103 A 
ATOM      7  C   UNL d   1      24.337  12.396  -0.015  0.00  0.00     0.045 A 
ENDROOT
BRANCH   4   8
ATOM      8  O   UNL d   1      23.636  13.631  -0.041  0.00  0.00    -0.328 OA
ATOM      9  C   UNL d   1      22.816  13.666  -0.021  0.00  0.00     0.181 C 
ENDBRANCH   4   8
TORSDOF 1
ENDMDL
