MODEL 1
REMARK VINA RESULT:      -3.3      0.000      0.000
REMARK  2 active torsions:
REMARK  status: ('A' for Active; 'I' for Inactive)
REMARK    1  A    between atoms: C_8  and  N_1 
REMARK    2  A    between atoms: C_12  and  C_8 
ROOT
ATOM      1  N   UNL d   1      30.710  16.688 -24.468  0.00  0.00    -0.238 N 
ATOM      2  C   UNL d   1      30.955  17.301 -24.601  0.00  0.00     0.267 A 
ATOM      3  C   UNL d   1      31.065  16.133 -24.043  0.00  0.00     0.267 A 
ATOM      4  C   UNL d   1      31.805  16.191 -23.677  0.00  0.00     0.057 A 
ATOM      5  C   UNL d   1      31.629  17.693 -24.413  0.00  0.00     0.057 A 
ATOM      6  C   UNL d   1      32.318  16.846 -23.686  0.00  0.00     0.005 A 
ATOM      7  C   UNL d   1      32.191  17.522 -24.043  0.00  0.00     0.005 A 
ATOM      8  O   UNL d   1      30.406  17.777 -25.095  0.00  0.00    -0.267 OA
ATOM      9  O   UNL d   1      30.687  15.453 -23.952  0.00  0.00    -0.267 OA
ATOM     10  C   UNL d   1      31.575  18.311 -24.706  0.00  0.00     0.005 A 
ATOM     11  C   UNL d   1      32.002  15.497 -23.276  0.00  0.00     0.005 A 
ATOM     12  C   UNL d   1      33.034  16.791 -23.285  0.00  0.00     0.000 A 
ATOM     13  C   UNL d   1      32.707  17.986 -23.969  0.00  0.00     0.000 A 
ATOM     14  C   UNL d   1      32.727  15.453 -22.874  0.00  0.00     0.000 A 
ATOM     15  C   UNL d   1      33.241  16.102 -22.881  0.00  0.00     0.000 A 
ATOM     16  C   UNL d   1      32.650  18.610 -24.266  0.00  0.00     0.000 A 
ATOM     17  C   UNL d   1      32.088  18.773 -24.633  0.00  0.00     0.000 A 
ENDROOT
BRANCH   1  18
ATOM     18  C   UNL d   1      29.913  16.487 -24.803  0.00  0.00     0.111 C 
BRANCH  18  19
ATOM     19  C   UNL d   1      29.196  16.541 -24.293  0.00  0.00     0.118 A 
ATOM     20  O   UNL d   1      28.887  17.275 -23.915  0.00  0.00    -0.304 OA
ATOM     21  C   UNL d   1      28.163  17.062 -23.460  0.00  0.00     0.123 A 
ATOM     22  C   UNL d   1      28.025  16.194 -23.556  0.00  0.00     0.029 A 
ATOM     23  C   UNL d   1      28.665  15.876 -24.072  0.00  0.00     0.028 A 
ENDBRANCH  18  19
ENDBRANCH   1  18
TORSDOF 2
ENDMDL
MODEL 2
REMARK VINA RESULT:      -3.2      1.134      3.269
REMARK  2 active torsions:
REMARK  status: ('A' for Active; 'I' for Inactive)
REMARK    1  A    between atoms: C_8  and  N_1 
REMARK    2  A    between atoms: C_12  and  C_8 
ROOT
ATOM      1  N   UNL d   1      30.853  16.886 -24.191  0.00  0.00    -0.238 N 
ATOM      2  C   UNL d   1      30.467  17.328 -24.521  0.00  0.00     0.267 A 
ATOM      3  C   UNL d   1      30.605  16.361 -23.664  0.00  0.00     0.267 A 
ATOM      4  C   UNL d   1      29.825  16.248 -23.412  0.00  0.00     0.057 A 
ATOM      5  C   UNL d   1      29.684  17.499 -24.527  0.00  0.00     0.057 A 
ATOM      6  C   UNL d   1      29.151  16.666 -23.664  0.00  0.00     0.005 A 
ATOM      7  C   UNL d   1      29.138  17.239 -24.186  0.00  0.00     0.005 A 
ATOM      8  O   UNL d   1      30.934  17.831 -25.070  0.00  0.00    -0.267 OA
ATOM      9  O   UNL d   1      31.144  15.894 -23.340  0.00  0.00    -0.267 OA
ATOM     10  C   UNL d   1      29.606  18.010 -24.978  0.00  0.00     0.005 A 
ATOM     11  C   UNL d   1      29.770  15.645 -22.850  0.00  0.00     0.005 A 
ATOM     12  C   UNL d   1      28.421  16.467 -23.343  0.00  0.00     0.000 A 
ATOM     13  C   UNL d   1      28.502  17.502 -24.304  0.00  0.00     0.000 A 
ATOM     14  C   UNL d   1      29.028  15.453 -22.533  0.00  0.00     0.000 A 
ATOM     15  C   UNL d   1      28.355  15.866 -22.782  0.00  0.00     0.000 A 
ATOM     16  C   UNL d   1      28.427  18.019 -24.761  0.00  0.00     0.000 A 
ATOM     17  C   UNL d   1      28.974  18.272 -25.097  0.00  0.00     0.000 A 
ENDROOT
BRANCH   1  18
ATOM     18  C   UNL d   1      31.724  16.895 -24.366  0.00  0.00     0.111 C 
BRANCH  18  19
ATOM     19  C   UNL d   1      32.261  17.407 -23.891  0.00  0.00     0.118 A 
ATOM     20  O   UNL d   1      32.345  18.281 -23.972  0.00  0.00    -0.304 OA
ATOM     21  C   UNL d   1      32.944  18.552 -23.385  0.00  0.00     0.123 A 
ATOM     22  C   UNL d   1      33.232  17.844 -22.941  0.00  0.00     0.029 A 
ATOM     23  C   UNL d   1      32.807  17.139 -23.256  0.00  0.00     0.028 A 
ENDBRANCH  18  19
ENDBRANCH   1  18
TORSDOF 2
ENDMDL
MODEL 3
REMARK VINA RESULT:      -3.2      0.319      2.038
REMARK  2 active torsions:
REMARK  status: ('A' for Active; 'I' for Inactive)
REMARK    1  A    between atoms: C_8  and  N_1 
REMARK    2  A    between atoms: C_12  and  C_8 
ROOT
ATOM      1  N   UNL d   1      30.928  16.669 -24.516  0.00  0.00    -0.238 N 
ATOM      2  C   UNL d   1      31.306  16.228 -24.176  0.00  0.00     0.267 A 
ATOM      3  C   UNL d   1      31.128  17.406 -24.695  0.00  0.00     0.267 A 
ATOM      4  C   UNL d   1      31.837  17.784 -24.500  0.00  0.00     0.057 A 
ATOM      5  C   UNL d   1      32.034  16.250 -23.841  0.00  0.00     0.057 A 
ATOM      6  C   UNL d   1      32.478  17.461 -24.079  0.00  0.00     0.005 A 
ATOM      7  C   UNL d   1      32.521  16.742 -23.793  0.00  0.00     0.005 A 
ATOM      8  O   UNL d   1      30.904  15.453 -24.078  0.00  0.00    -0.267 OA
ATOM      9  O   UNL d   1      30.608  17.832 -25.097  0.00  0.00    -0.267 OA
ATOM     10  C   UNL d   1      32.132  15.629 -23.565  0.00  0.00     0.005 A 
ATOM     11  C   UNL d   1      31.856  18.561 -24.779  0.00  0.00     0.005 A 
ATOM     12  C   UNL d   1      33.139  17.932 -23.943  0.00  0.00     0.000 A 
ATOM     13  C   UNL d   1      33.119  16.602 -23.460  0.00  0.00     0.000 A 
ATOM     14  C   UNL d   1      32.526  19.028 -24.636  0.00  0.00     0.000 A 
ATOM     15  C   UNL d   1      33.167  18.710 -24.217  0.00  0.00     0.000 A 
ATOM     16  C   UNL d   1      33.216  15.974 -23.183  0.00  0.00     0.000 A 
ATOM     17  C   UNL d   1      32.727  15.490 -23.234  0.00  0.00     0.000 A 
ENDROOT
BRANCH   1  18
ATOM     18  C   UNL d   1      30.129  16.394 -24.791  0.00  0.00     0.111 C 
BRANCH  18  19
ATOM     19  C   UNL d   1      29.418  16.547 -24.294  0.00  0.00     0.118 A 
ATOM     20  O   UNL d   1      29.070  17.339 -24.122  0.00  0.00    -0.304 OA
ATOM     21  C   UNL d   1      28.367  17.220 -23.604  0.00  0.00     0.123 A 
ATOM     22  C   UNL d   1      28.280  16.352 -23.455  0.00  0.00     0.029 A 
ATOM     23  C   UNL d   1      28.931  15.941 -23.883  0.00  0.00     0.028 A 
ENDBRANCH  18  19
ENDBRANCH   1  18
TORSDOF 2
ENDMDL
MODEL 4
REMARK VINA RESULT:      -2.8      2.149      3.376
REMARK  2 active torsions:
REMARK  status: ('A' for Active; 'I' for Inactive)
REMARK    1  A    between atoms: C_8  and  N_1 
REMARK    2  A    between atoms: C_12  and  C_8 
ROOT
ATOM      1  N   UNL d   1      33.190  18.460 -23.768  0.00  0.00    -0.238 N 
ATOM      2  C   UNL d   1      33.199  18.929 -24.252  0.00  0.00     0.267 A 
ATOM      3  C   UNL d   1      33.193  18.596 -22.995  0.00  0.00     0.267 A 
ATOM      4  C   UNL d   1      33.207  19.335 -22.626  0.00  0.00     0.057 A 
ATOM      5  C   UNL d   1      33.215  19.731 -24.260  0.00  0.00     0.057 A 
ATOM      6  C   UNL d   1      33.221  20.080 -22.996  0.00  0.00     0.005 A 
ATOM      7  C   UNL d   1      33.224  20.212 -23.760  0.00  0.00     0.005 A 
ATOM      8  O   UNL d   1      33.192  18.575 -25.056  0.00  0.00    -0.267 OA
ATOM      9  O   UNL d   1      33.180  17.972 -22.522  0.00  0.00    -0.267 OA
ATOM     10  C   UNL d   1      33.218  19.911 -24.922  0.00  0.00     0.005 A 
ATOM     11  C   UNL d   1      33.205  19.265 -21.803  0.00  0.00     0.005 A 
ATOM     12  C   UNL d   1      33.234  20.755 -22.525  0.00  0.00     0.000 A 
ATOM     13  C   UNL d   1      33.237  20.888 -23.933  0.00  0.00     0.000 A 
ATOM     14  C   UNL d   1      33.219  19.951 -21.337  0.00  0.00     0.000 A 
ATOM     15  C   UNL d   1      33.233  20.696 -21.702  0.00  0.00     0.000 A 
ATOM     16  C   UNL d   1      33.241  21.067 -24.603  0.00  0.00     0.000 A 
ATOM     17  C   UNL d   1      33.231  20.584 -25.096  0.00  0.00     0.000 A 
ENDROOT
BRANCH   1  18
ATOM     18  C   UNL d   1      33.174  17.611 -24.025  0.00  0.00     0.111 C 
BRANCH  18  19
ATOM     19  C   UNL d   1      32.412  17.168 -24.030  0.00  0.00     0.118 A 
ATOM     20  O   UNL d   1      31.665  17.432 -24.419  0.00  0.00    -0.304 OA
ATOM     21  C   UNL d   1      31.053  16.814 -24.278  0.00  0.00     0.123 A 
ATOM     22  C   UNL d   1      31.421  16.166 -23.802  0.00  0.00     0.029 A 
ATOM     23  C   UNL d   1      32.261  16.389 -23.651  0.00  0.00     0.028 A 
ENDBRANCH  18  19
ENDBRANCH   1  18
TORSDOF 2
ENDMDL
MODEL 5
REMARK VINA RESULT:      -2.8      2.686      4.283
REMARK  2 active torsions:
REMARK  status: ('A' for Active; 'I' for Inactive)
REMARK    1  A    between atoms: C_8  and  N_1 
REMARK    2  A    between atoms: C_12  and  C_8 
ROOT
ATOM      1  N   UNL d   1      33.241  19.169 -23.425  0.00  0.00    -0.238 N 
ATOM      2  C   UNL d   1      33.241  19.221 -22.754  0.00  0.00     0.267 A 
ATOM      3  C   UNL d   1      33.241  19.767 -23.933  0.00  0.00     0.267 A 
ATOM      4  C   UNL d   1      33.241  20.573 -23.744  0.00  0.00     0.057 A 
ATOM      5  C   UNL d   1      33.241  19.832 -22.234  0.00  0.00     0.057 A 
ATOM      6  C   UNL d   1      33.241  20.909 -22.983  0.00  0.00     0.005 A 
ATOM      7  C   UNL d   1      33.241  20.522 -22.312  0.00  0.00     0.005 A 
ATOM      8  O   UNL d   1      33.241  18.434 -22.361  0.00  0.00    -0.267 OA
ATOM      9  O   UNL d   1      33.241  19.591 -24.696  0.00  0.00    -0.267 OA
ATOM     10  C   UNL d   1      33.241  19.548 -21.610  0.00  0.00     0.005 A 
ATOM     11  C   UNL d   1      33.241  21.045 -24.422  0.00  0.00     0.005 A 
ATOM     12  C   UNL d   1      33.241  21.729 -22.914  0.00  0.00     0.000 A 
ATOM     13  C   UNL d   1      33.241  20.931 -21.746  0.00  0.00     0.000 A 
ATOM     14  C   UNL d   1      33.241  21.870 -24.341  0.00  0.00     0.000 A 
ATOM     15  C   UNL d   1      33.241  22.209 -23.585  0.00  0.00     0.000 A 
ATOM     16  C   UNL d   1      33.241  20.641 -21.116  0.00  0.00     0.000 A 
ATOM     17  C   UNL d   1      33.241  19.954 -21.047  0.00  0.00     0.000 A 
ENDROOT
BRANCH   1  18
ATOM     18  C   UNL d   1      33.241  18.352 -23.771  0.00  0.00     0.111 C 
BRANCH  18  19
ATOM     19  C   UNL d   1      32.478  17.959 -23.969  0.00  0.00     0.118 A 
ATOM     20  O   UNL d   1      31.881  18.254 -24.548  0.00  0.00    -0.304 OA
ATOM     21  C   UNL d   1      31.211  17.682 -24.563  0.00  0.00     0.123 A 
ATOM     22  C   UNL d   1      31.393  17.032 -23.992  0.00  0.00     0.029 A 
ATOM     23  C   UNL d   1      32.176  17.207 -23.628  0.00  0.00     0.028 A 
ENDBRANCH  18  19
ENDBRANCH   1  18
TORSDOF 2
ENDMDL
MODEL 6
REMARK VINA RESULT:      -1.7      3.163      4.458
REMARK  2 active torsions:
REMARK  status: ('A' for Active; 'I' for Inactive)
REMARK    1  A    between atoms: C_8  and  N_1 
REMARK    2  A    between atoms: C_12  and  C_8 
ROOT
ATOM      1  N   UNL d   1      33.180  19.952 -23.384  0.00  0.00    -0.238 N 
ATOM      2  C   UNL d   1      33.200  20.510 -23.759  0.00  0.00     0.267 A 
ATOM      3  C   UNL d   1      33.142  19.923 -22.601  0.00  0.00     0.267 A 
ATOM      4  C   UNL d   1      33.120  20.570 -22.086  0.00  0.00     0.057 A 
ATOM      5  C   UNL d   1      33.195  21.297 -23.600  0.00  0.00     0.057 A 
ATOM      6  C   UNL d   1      33.133  21.375 -22.292  0.00  0.00     0.005 A 
ATOM      7  C   UNL d   1      33.168  21.663 -23.011  0.00  0.00     0.005 A 
ATOM      8  O   UNL d   1      33.241  20.332 -24.618  0.00  0.00    -0.267 OA
ATOM      9  O   UNL d   1      33.124  19.214 -22.268  0.00  0.00    -0.267 OA
ATOM     10  C   UNL d   1      33.226  21.611 -24.209  0.00  0.00     0.005 A 
ATOM     11  C   UNL d   1      33.081  20.330 -21.296  0.00  0.00     0.005 A 
ATOM     12  C   UNL d   1      33.106  21.937 -21.692  0.00  0.00     0.000 A 
ATOM     13  C   UNL d   1      33.172  22.360 -23.040  0.00  0.00     0.000 A 
ATOM     14  C   UNL d   1      33.054  20.904 -20.699  0.00  0.00     0.000 A 
ATOM     15  C   UNL d   1      33.067  21.708 -20.900  0.00  0.00     0.000 A 
ATOM     16  C   UNL d   1      33.203  22.675 -23.657  0.00  0.00     0.000 A 
ATOM     17  C   UNL d   1      33.230  22.305 -24.239  0.00  0.00     0.000 A 
ENDROOT
BRANCH   1  18
ATOM     18  C   UNL d   1      33.198  19.174 -23.812  0.00  0.00     0.111 C 
BRANCH  18  19
ATOM     19  C   UNL d   1      32.444  18.753 -23.990  0.00  0.00     0.118 A 
ATOM     20  O   UNL d   1      31.924  18.902 -24.687  0.00  0.00    -0.304 OA
ATOM     21  C   UNL d   1      31.236  18.353 -24.634  0.00  0.00     0.123 A 
ATOM     22  C   UNL d   1      31.332  17.864 -23.903  0.00  0.00     0.029 A 
ATOM     23  C   UNL d   1      32.079  18.115 -23.509  0.00  0.00     0.028 A 
ENDBRANCH  18  19
ENDBRANCH   1  18
TORSDOF 2
ENDMDL
MODEL 7
REMARK VINA RESULT:      -0.5      3.616      4.889
REMARK  2 active torsions:
REMARK  status: ('A' for Active; 'I' for Inactive)
REMARK    1  A    between atoms: C_8  and  N_1 
REMARK    2  A    between atoms: C_12  and  C_8 
ROOT
ATOM      1  N   UNL d   1      33.231  20.970 -22.293  0.00  0.00    -0.238 N 
ATOM      2  C   UNL d   1      33.231  21.251 -22.904  0.00  0.00     0.267 A 
ATOM      3  C   UNL d   1      33.224  20.200 -22.139  0.00  0.00     0.267 A 
ATOM      4  C   UNL d   1      33.216  19.588 -22.695  0.00  0.00     0.057 A 
ATOM      5  C   UNL d   1      33.224  20.969 -23.655  0.00  0.00     0.057 A 
ATOM      6  C   UNL d   1      33.212  19.663 -23.524  0.00  0.00     0.005 A 
ATOM      7  C   UNL d   1      33.216  20.328 -23.922  0.00  0.00     0.005 A 
ATOM      8  O   UNL d   1      33.239  22.129 -22.865  0.00  0.00    -0.267 OA
ATOM      9  O   UNL d   1      33.226  19.984 -21.386  0.00  0.00    -0.267 OA
ATOM     10  C   UNL d   1      33.227  21.521 -24.063  0.00  0.00     0.005 A 
ATOM     11  C   UNL d   1      33.210  18.846 -22.332  0.00  0.00     0.005 A 
ATOM     12  C   UNL d   1      33.203  18.981 -23.982  0.00  0.00     0.000 A 
ATOM     13  C   UNL d   1      33.212  20.246 -24.616  0.00  0.00     0.000 A 
ATOM     14  C   UNL d   1      33.201  18.164 -22.804  0.00  0.00     0.000 A 
ATOM     15  C   UNL d   1      33.198  18.235 -23.630  0.00  0.00     0.000 A 
ATOM     16  C   UNL d   1      33.215  20.805 -25.025  0.00  0.00     0.000 A 
ATOM     17  C   UNL d   1      33.223  21.439 -24.752  0.00  0.00     0.000 A 
ENDROOT
BRANCH   1  18
ATOM     18  C   UNL d   1      33.240  21.516 -21.593  0.00  0.00     0.111 C 
BRANCH  18  19
ATOM     19  C   UNL d   1      32.481  21.795 -21.244  0.00  0.00     0.118 A 
ATOM     20  O   UNL d   1      31.859  21.282 -20.886  0.00  0.00    -0.304 OA
ATOM     21  C   UNL d   1      31.203  21.803 -20.612  0.00  0.00     0.123 A 
ATOM     22  C   UNL d   1      31.419  22.639 -20.800  0.00  0.00     0.029 A 
ATOM     23  C   UNL d   1      32.209  22.630 -21.190  0.00  0.00     0.028 A 
ENDBRANCH  18  19
ENDBRANCH   1  18
TORSDOF 2
ENDMDL
