MODEL 1
REMARK VINA RESULT:       7.8      0.000      0.000
REMARK  0 active torsions:
REMARK  status: ('A' for Active; 'I' for Inactive)
ROOT
ATOM      1  C   UNL d   1      46.579 -18.243  43.142  0.00  0.00     0.134 A 
ATOM      2  N   UNL d   1      46.598 -18.348  42.325  0.00  0.00    -0.234 NA
ATOM      3  C   UNL d   1      46.539 -18.906  43.635  0.00  0.00     0.045 A 
ATOM      4  C   UNL d   1      46.577 -19.108  42.005  0.00  0.00     0.207 A 
ATOM      5  N   UNL d   1      46.536 -19.775  42.498  0.00  0.00    -0.244 NA
ATOM      6  C   UNL d   1      46.517 -19.670  43.314  0.00  0.00     0.081 A 
ATOM      7  S   UNL d   1      46.600 -17.484  43.466  0.00  0.00    -0.058 SA
ATOM      8  C   UNL d   1      46.519 -18.804  44.455  0.00  0.00     0.004 A 
ATOM      9  C   UNL d   1      46.618 -18.452  41.510  0.00  0.00     0.023 A 
ATOM     10  C   UNL d   1      46.556 -19.870  41.690  0.00  0.00     0.023 A 
ATOM     11  C   UNL d   1      46.477 -20.328  43.814  0.00  0.00     0.019 A 
ATOM     12  C   UNL d   1      46.479 -19.459  44.952  0.00  0.00     0.000 A 
ATOM     13  C   UNL d   1      46.574 -19.977  40.881  0.00  0.00    -0.001 A 
ATOM     14  C   UNL d   1      46.637 -18.557  40.693  0.00  0.00    -0.001 A 
ATOM     15  C   UNL d   1      46.458 -20.222  44.630  0.00  0.00     0.002 A 
ATOM     16  C   UNL d   1      46.615 -19.319  40.376  0.00  0.00    -0.000 A 
ENDROOT
TORSDOF 0
ENDMDL
