MODEL 1
REMARK VINA RESULT:      42.6      0.000      0.000
REMARK  5 active torsions:
REMARK  status: ('A' for Active; 'I' for Inactive)
REMARK    1  A    between atoms: C_8  and  N_1 
REMARK    2  A    between atoms: C_5  and  C_21 
REMARK    3  A    between atoms: C_9  and  C_12 
REMARK       I    between atoms: N_20  and  C_9 
REMARK    4  A    between atoms: C_22  and  N_20 
REMARK    5  A    between atoms: C_21  and  C_22 
ROOT
ATOM      1  C   UNL d   1     -54.726-102.367 -41.592  0.00  0.00     0.026 C 
ENDROOT
BRANCH   1   2
ATOM      2  C   UNL d   1     -55.119-102.480 -40.880  0.00  0.00     0.059 A 
ATOM      3  C   UNL d   1     -55.931-102.677 -40.885  0.00  0.00     0.279 A 
ATOM      4  N   UNL d   1     -56.332-102.792 -40.168  0.00  0.00    -0.208 NA
ATOM      5  O   UNL d   1     -56.332-102.757 -41.601  0.00  0.00    -0.265 OA
ATOM      6  C   UNL d   1     -55.922-102.711 -39.444  0.00  0.00     0.085 A 
ATOM      7  C   UNL d   1     -55.119-102.515 -39.448  0.00  0.00     0.018 A 
ATOM      8  C   UNL d   1     -56.331-102.828 -38.733  0.00  0.00     0.019 A 
ATOM      9  C   UNL d   1     -54.718-102.400 -40.159  0.00  0.00     0.006 A 
ATOM     10  C   UNL d   1     -54.717-102.436 -38.724  0.00  0.00     0.002 A 
ATOM     11  C   UNL d   1     -55.118-102.551 -38.012  0.00  0.00     0.000 A 
ATOM     12  C   UNL d   1     -55.929-102.748 -38.017  0.00  0.00     0.002 A 
ATOM     13  C   UNL d   1     -54.724-102.473 -37.296  0.00  0.00     0.000 C 
ATOM     14  C   UNL d   1     -56.330-102.863 -37.305  0.00  0.00     0.000 C 
ENDBRANCH   1   2
BRANCH   1  15
ATOM     15  C   UNL d   1     -55.138-102.342 -42.302  0.00  0.00     0.102 C 
BRANCH  15  16
ATOM     16  N   UNL d   1     -55.229-101.633 -42.719  0.00  0.00    -0.206 NA
ATOM     17  C   UNL d   1     -55.189-101.626 -43.545  0.00  0.00     0.279 C 
ATOM     18  O   UNL d   1     -55.059-102.323 -43.961  0.00  0.00    -0.265 OA
BRANCH  17  19
ATOM     19  C   UNL d   1     -55.281-100.911 -43.955  0.00  0.00     0.059 A 
ATOM     20  C   UNL d   1     -55.934-100.448 -43.833  0.00  0.00     0.028 A 
ATOM     21  C   UNL d   1     -56.045 -99.743 -44.224  0.00  0.00     0.127 A 
ATOM     22  C   UNL d   1     -55.475 -99.494 -44.760  0.00  0.00     0.024 A 
ATOM     23  C   UNL d   1     -54.806 -99.938 -44.905  0.00  0.00     0.002 A 
ATOM     24  C   UNL d   1     -54.715-100.660 -44.490  0.00  0.00     0.005 A 
BRANCH  21  25
ATOM     25  N   UNL d   1     -56.709 -99.268 -44.102  0.00  0.00    -0.114 N 
ATOM     26  O   UNL d   1     -57.140 -98.985 -44.779  0.00  0.00    -0.532 OA
ATOM     27  O   UNL d   1     -56.983 -99.048 -43.349  0.00  0.00    -0.532 OA
ENDBRANCH  21  25
ENDBRANCH  17  19
ENDBRANCH  15  16
ENDBRANCH   1  15
TORSDOF 5
ENDMDL
