MODEL 1
REMARK VINA RESULT:      45.8      0.000      0.000
REMARK  5 active torsions:
REMARK  status: ('A' for Active; 'I' for Inactive)
REMARK    1  A    between atoms: C_6  and  C_1 
REMARK    2  A    between atoms: N_7  and  C_2 
REMARK    3  A    between atoms: O_11  and  C_6 
REMARK       I    between atoms: C_8  and  N_7 
REMARK    4  A    between atoms: C_14  and  C_8 
REMARK    5  A    between atoms: C_15  and  O_11 
ROOT
ATOM      1  C   UNL d   1      59.436  49.655  50.617  0.00  0.00     0.162 A 
ATOM      2  C   UNL d   1      60.178  49.662  50.978  0.00  0.00     0.109 A 
ATOM      3  N   UNL d   1      59.547  49.657  49.802  0.00  0.00    -0.239 NA
ATOM      4  C   UNL d   1      60.746  49.669  50.386  0.00  0.00     0.037 A 
ATOM      5  C   UNL d   1      60.362  49.666  49.657  0.00  0.00     0.083 A 
ATOM      6  C   UNL d   1      61.572  49.677  50.420  0.00  0.00     0.003 A 
ATOM      7  C   UNL d   1      60.800  49.671  48.956  0.00  0.00     0.019 A 
ATOM      8  C   UNL d   1      62.009  49.682  49.719  0.00  0.00     0.000 A 
ATOM      9  C   UNL d   1      61.623  49.679  48.993  0.00  0.00     0.002 A 
ENDROOT
BRANCH   1  10
ATOM     10  C   UNL d   1      58.710  49.647  51.010  0.00  0.00     0.320 C 
ATOM     11  O   UNL d   1      58.686  49.584  51.831  0.00  0.00    -0.257 OA
BRANCH  10  12
ATOM     12  O   UNL d   1      58.003  49.702  50.589  0.00  0.00    -0.270 OA
BRANCH  12  13
ATOM     13  C   UNL d   1      57.313  49.394  50.916  0.00  0.00     0.126 C 
ATOM     14  C   UNL d   1      56.710  49.140  50.423  0.00  0.00     0.029 C 
ENDBRANCH  12  13
ENDBRANCH  10  12
ENDBRANCH   1  10
BRANCH   2  15
ATOM     15  N   UNL d   1      60.322  49.663  51.794  0.00  0.00    -0.206 NA
ATOM     16  C   UNL d   1      60.695  49.003  52.145  0.00  0.00     0.279 C 
ATOM     17  O   UNL d   1      60.915  48.357  51.676  0.00  0.00    -0.265 OA
BRANCH  16  18
ATOM     18  C   UNL d   1      60.838  49.006  52.957  0.00  0.00     0.062 C 
ATOM     19  C   UNL d   1      61.228  49.652  53.299  0.00  0.00     0.005 C 
ENDBRANCH  16  18
ENDBRANCH   2  15
TORSDOF 5
ENDMDL
MODEL 2
REMARK VINA RESULT:      47.6      1.527      3.397
REMARK  5 active torsions:
REMARK  status: ('A' for Active; 'I' for Inactive)
REMARK    1  A    between atoms: C_6  and  C_1 
REMARK    2  A    between atoms: N_7  and  C_2 
REMARK    3  A    between atoms: O_11  and  C_6 
REMARK       I    between atoms: C_8  and  N_7 
REMARK    4  A    between atoms: C_14  and  C_8 
REMARK    5  A    between atoms: C_15  and  O_11 
ROOT
ATOM      1  C   UNL d   1      58.883  49.404  50.997  0.00  0.00     0.162 A 
ATOM      2  C   UNL d   1      58.084  49.512  51.175  0.00  0.00     0.109 A 
ATOM      3  N   UNL d   1      58.965  49.390  50.179  0.00  0.00    -0.239 NA
ATOM      4  C   UNL d   1      57.674  49.565  50.465  0.00  0.00     0.037 A 
ATOM      5  C   UNL d   1      58.213  49.490  49.847  0.00  0.00     0.083 A 
ATOM      6  C   UNL d   1      56.870  49.672  50.304  0.00  0.00     0.003 A 
ATOM      7  C   UNL d   1      57.953  49.522  49.063  0.00  0.00     0.019 A 
ATOM      8  C   UNL d   1      56.611  49.704  49.520  0.00  0.00     0.000 A 
ATOM      9  C   UNL d   1      57.151  49.629  48.905  0.00  0.00     0.002 A 
ENDROOT
BRANCH   1  10
ATOM     10  C   UNL d   1      59.491  49.325  51.550  0.00  0.00     0.320 C 
ATOM     11  O   UNL d   1      59.441  49.707  52.276  0.00  0.00    -0.257 OA
BRANCH  10  12
ATOM     12  O   UNL d   1      60.153  48.863  51.381  0.00  0.00    -0.270 OA
BRANCH  12  13
ATOM     13  C   UNL d   1      60.875  49.048  51.733  0.00  0.00     0.126 C 
ATOM     14  C   UNL d   1      60.957  48.982  52.545  0.00  0.00     0.029 C 
ENDBRANCH  12  13
ENDBRANCH  10  12
ENDBRANCH   1  10
BRANCH   2  15
ATOM     15  N   UNL d   1      57.755  49.559  51.933  0.00  0.00    -0.206 NA
ATOM     16  C   UNL d   1      56.946  49.382  52.042  0.00  0.00     0.279 C 
ATOM     17  O   UNL d   1      56.483  49.162  51.392  0.00  0.00    -0.265 OA
BRANCH  16  18
ATOM     18  C   UNL d   1      56.622  49.429  52.798  0.00  0.00     0.062 C 
ATOM     19  C   UNL d   1      57.088  49.704  53.425  0.00  0.00     0.005 C 
ENDBRANCH  16  18
ENDBRANCH   2  15
TORSDOF 5
ENDMDL
