MODEL 1
REMARK VINA RESULT:       9.9      0.000      0.000
REMARK  6 active torsions:
REMARK  status: ('A' for Active; 'I' for Inactive)
REMARK    1  A    between atoms: N_2  and  S_1 
REMARK    2  A    between atoms: C_3  and  S_1 
REMARK    3  A    between atoms: C_7  and  N_2 
REMARK    4  A    between atoms: C_10  and  C_7 
REMARK    5  A    between atoms: O_14  and  C_11 
REMARK    6  A    between atoms: C_17  and  O_14 
ROOT
ATOM      1  S   UNL d   1      45.764 -16.232  44.449  0.00  0.00     0.285 S 
ATOM      2  O   UNL d   1      46.413 -16.148  43.947  0.00  0.00    -0.198 OA
ATOM      3  O   UNL d   1      45.115 -16.315  44.951  0.00  0.00    -0.198 OA
ENDROOT
BRANCH   1   4
ATOM      4  N   UNL d   1      45.836 -17.052  44.405  0.00  0.00    -0.155 NA
BRANCH   4   5
ATOM      5  C   UNL d   1      46.338 -17.393  43.848  0.00  0.00     0.131 C 
BRANCH   5   6
ATOM      6  C   UNL d   1      46.387 -18.214  43.783  0.00  0.00     0.101 A 
ATOM      7  N   UNL d   1      46.332 -18.573  43.044  0.00  0.00    -0.242 NA
ATOM      8  C   UNL d   1      46.380 -19.394  42.979  0.00  0.00     0.099 A 
ATOM      9  C   UNL d   1      46.484 -19.856  43.653  0.00  0.00     0.021 A 
ATOM     10  C   UNL d   1      46.540 -19.497  44.399  0.00  0.00     0.003 A 
ATOM     11  C   UNL d   1      46.491 -18.676  44.464  0.00  0.00     0.021 A 
ENDBRANCH   5   6
ENDBRANCH   4   5
ENDBRANCH   1   4
BRANCH   1  12
ATOM     12  C   UNL d   1      45.692 -15.411  44.493  0.00  0.00     0.105 A 
ATOM     13  C   UNL d   1      46.335 -14.931  44.313  0.00  0.00     0.015 A 
ATOM     14  C   UNL d   1      46.263 -14.110  44.357  0.00  0.00     0.025 A 
ATOM     15  C   UNL d   1      45.549 -13.770  44.582  0.00  0.00     0.100 A 
ATOM     16  C   UNL d   1      44.905 -14.251  44.762  0.00  0.00     0.025 A 
ATOM     17  C   UNL d   1      44.977 -15.079  44.718  0.00  0.00     0.015 A 
BRANCH  15  18
ATOM     18  O   UNL d   1      45.477 -12.949  44.626  0.00  0.00    -0.305 OA
BRANCH  18  19
ATOM     19  C   UNL d   1      45.711 -12.480  43.992  0.00  0.00     0.123 C 
ATOM     20  C   UNL d   1      45.146 -12.086  43.538  0.00  0.00     0.029 C 
ENDBRANCH  18  19
ENDBRANCH  15  18
ENDBRANCH   1  12
TORSDOF 6
ENDMDL
MODEL 2
REMARK VINA RESULT:      12.3      1.351      4.889
REMARK  6 active torsions:
REMARK  status: ('A' for Active; 'I' for Inactive)
REMARK    1  A    between atoms: N_2  and  S_1 
REMARK    2  A    between atoms: C_3  and  S_1 
REMARK    3  A    between atoms: C_7  and  N_2 
REMARK    4  A    between atoms: C_10  and  C_7 
REMARK    5  A    between atoms: O_14  and  C_11 
REMARK    6  A    between atoms: C_17  and  O_14 
ROOT
ATOM      1  S   UNL d   1      46.108 -17.058  44.192  0.00  0.00     0.285 S 
ATOM      2  O   UNL d   1      46.257 -17.337  44.954  0.00  0.00    -0.198 OA
ATOM      3  O   UNL d   1      45.960 -16.778  43.430  0.00  0.00    -0.198 OA
ENDROOT
BRANCH   1   4
ATOM      4  N   UNL d   1      45.984 -16.300  44.494  0.00  0.00    -0.155 NA
BRANCH   4   5
ATOM      5  C   UNL d   1      45.861 -15.667  43.983  0.00  0.00     0.131 C 
BRANCH   5   6
ATOM      6  C   UNL d   1      45.702 -14.916  44.285  0.00  0.00     0.101 A 
ATOM      7  N   UNL d   1      46.269 -14.321  44.232  0.00  0.00    -0.242 NA
ATOM      8  C   UNL d   1      46.110 -13.570  44.534  0.00  0.00     0.099 A 
ATOM      9  C   UNL d   1      45.384 -13.414  44.890  0.00  0.00     0.021 A 
ATOM     10  C   UNL d   1      44.810 -14.011  44.945  0.00  0.00     0.003 A 
ATOM     11  C   UNL d   1      44.969 -14.762  44.642  0.00  0.00     0.021 A 
ENDBRANCH   5   6
ENDBRANCH   4   5
ENDBRANCH   1   4
BRANCH   1  12
ATOM     12  C   UNL d   1      46.233 -17.815  43.890  0.00  0.00     0.105 A 
ATOM     13  C   UNL d   1      46.426 -17.916  43.096  0.00  0.00     0.015 A 
ATOM     14  C   UNL d   1      46.551 -18.673  42.794  0.00  0.00     0.025 A 
ATOM     15  C   UNL d   1      46.483 -19.330  43.285  0.00  0.00     0.100 A 
ATOM     16  C   UNL d   1      46.290 -19.229  44.080  0.00  0.00     0.025 A 
ATOM     17  C   UNL d   1      46.164 -18.464  44.385  0.00  0.00     0.015 A 
BRANCH  15  18
ATOM     18  O   UNL d   1      46.608 -20.087  42.983  0.00  0.00    -0.305 OA
BRANCH  18  19
ATOM     19  C   UNL d   1      46.223 -20.326  42.297  0.00  0.00     0.123 C 
ATOM     20  C   UNL d   1      46.561 -20.176  41.559  0.00  0.00     0.029 C 
ENDBRANCH  18  19
ENDBRANCH  15  18
ENDBRANCH   1  12
TORSDOF 6
ENDMDL
