MODEL 1
REMARK VINA RESULT:      -8.6      0.000      0.000
REMARK  4 active torsions:
REMARK  status: ('A' for Active; 'I' for Inactive)
REMARK    1  A    between atoms: C_6  and  N_1 
REMARK    2  A    between atoms: N_7  and  C_5 
REMARK    3  A    between atoms: C_8  and  C_6 
REMARK    4  A    between atoms: C_12  and  N_7 
ROOT
ATOM      1  N   UNL d   1      52.423  33.952  53.655  0.00  0.00    -0.227 N 
ATOM      2  C   UNL d   1      51.882  33.366  53.448  0.00  0.00     0.300 A 
ATOM      3  S   UNL d   1      52.143  32.665  53.109  0.00  0.00    -0.003 SA
ATOM      4  C   UNL d   1      53.490  33.134  53.180  0.00  0.00     0.292 A 
ATOM      5  C   UNL d   1      52.949  32.548  52.974  0.00  0.00     0.172 A 
ATOM      6  O   UNL d   1      51.077  33.482  53.583  0.00  0.00    -0.259 OA
ATOM      7  O   UNL d   1      54.385  33.222  53.128  0.00  0.00    -0.264 OA
ENDROOT
BRANCH   5   8
ATOM      8  N   UNL d   1      53.213  31.845  52.633  0.00  0.00    -0.234 NA
BRANCH   8   9
ATOM      9  C   UNL d   1      53.207  31.146  53.071  0.00  0.00     0.082 A 
ATOM     10  C   UNL d   1      52.687  30.531  52.859  0.00  0.00     0.019 A 
ATOM     11  C   UNL d   1      52.681  29.837  53.296  0.00  0.00     0.002 A 
ATOM     12  C   UNL d   1      53.188  29.747  53.943  0.00  0.00     0.000 A 
ATOM     13  C   UNL d   1      53.708  30.366  54.152  0.00  0.00     0.002 A 
ATOM     14  C   UNL d   1      53.189  29.052  54.387  0.00  0.00     0.000 C 
ATOM     15  C   UNL d   1      53.708  31.061  53.708  0.00  0.00     0.019 A 
ENDBRANCH   8   9
ENDBRANCH   5   8
BRANCH   1  16
ATOM     16  C   UNL d   1      52.359  34.775  54.029  0.00  0.00     0.157 C 
BRANCH  16  17
ATOM     17  C   UNL d   1      53.052  35.105  54.533  0.00  0.00     0.230 C 
ATOM     18  O   UNL d   1      53.556  35.783  54.199  0.00  0.00    -0.643 OA
ATOM     19  O   UNL d   1      53.224  34.759  55.343  0.00  0.00    -0.643 OA
ENDBRANCH  16  17
ENDBRANCH   1  16
TORSDOF 4
ENDMDL
MODEL 2
REMARK VINA RESULT:      -8.2      1.005      1.443
REMARK  4 active torsions:
REMARK  status: ('A' for Active; 'I' for Inactive)
REMARK    1  A    between atoms: C_6  and  N_1 
REMARK    2  A    between atoms: N_7  and  C_5 
REMARK    3  A    between atoms: C_8  and  C_6 
REMARK    4  A    between atoms: C_12  and  N_7 
ROOT
ATOM      1  N   UNL d   1      53.342  33.954  54.482  0.00  0.00    -0.227 N 
ATOM      2  C   UNL d   1      53.908  33.359  54.544  0.00  0.00     0.300 A 
ATOM      3  S   UNL d   1      53.925  32.746  53.998  0.00  0.00    -0.003 SA
ATOM      4  C   UNL d   1      52.806  33.322  53.322  0.00  0.00     0.292 A 
ATOM      5  C   UNL d   1      53.372  32.727  53.385  0.00  0.00     0.172 A 
ATOM      6  O   UNL d   1      54.460  33.378  55.156  0.00  0.00    -0.259 OA
ATOM      7  O   UNL d   1      52.128  33.500  52.756  0.00  0.00    -0.264 OA
ENDROOT
BRANCH   5   8
ATOM      8  N   UNL d   1      53.387  32.112  52.834  0.00  0.00    -0.234 NA
BRANCH   8   9
ATOM      9  C   UNL d   1      53.256  31.336  53.080  0.00  0.00     0.082 A 
ATOM     10  C   UNL d   1      52.481  31.031  53.087  0.00  0.00     0.019 A 
ATOM     11  C   UNL d   1      52.350  30.259  53.332  0.00  0.00     0.002 A 
ATOM     12  C   UNL d   1      52.985  29.785  53.571  0.00  0.00     0.000 A 
ATOM     13  C   UNL d   1      53.760  30.094  53.562  0.00  0.00     0.002 A 
ATOM     14  C   UNL d   1      52.863  29.008  53.818  0.00  0.00     0.000 C 
ATOM     15  C   UNL d   1      53.882  30.872  53.314  0.00  0.00     0.019 A 
ENDBRANCH   8   9
ENDBRANCH   5   8
BRANCH   1  16
ATOM     16  C   UNL d   1      53.147  34.700  54.958  0.00  0.00     0.157 C 
BRANCH  16  17
ATOM     17  C   UNL d   1      53.002  35.497  54.524  0.00  0.00     0.230 C 
ATOM     18  O   UNL d   1      52.150  35.744  54.330  0.00  0.00    -0.643 OA
ATOM     19  O   UNL d   1      53.696  36.018  54.298  0.00  0.00    -0.643 OA
ENDBRANCH  16  17
ENDBRANCH   1  16
TORSDOF 4
ENDMDL
MODEL 3
REMARK VINA RESULT:      -7.8      1.966      4.090
REMARK  4 active torsions:
REMARK  status: ('A' for Active; 'I' for Inactive)
REMARK    1  A    between atoms: C_6  and  N_1 
REMARK    2  A    between atoms: N_7  and  C_5 
REMARK    3  A    between atoms: C_8  and  C_6 
REMARK    4  A    between atoms: C_12  and  N_7 
ROOT
ATOM      1  N   UNL d   1      53.440  30.825  53.467  0.00  0.00    -0.227 N 
ATOM      2  C   UNL d   1      53.121  31.217  52.817  0.00  0.00     0.300 A 
ATOM      3  S   UNL d   1      52.979  32.025  52.851  0.00  0.00    -0.003 SA
ATOM      4  C   UNL d   1      53.478  32.053  54.189  0.00  0.00     0.292 A 
ATOM      5  C   UNL d   1      53.158  32.445  53.538  0.00  0.00     0.172 A 
ATOM      6  O   UNL d   1      52.942  30.798  52.130  0.00  0.00    -0.259 OA
ATOM      7  O   UNL d   1      53.741  32.300  55.014  0.00  0.00    -0.264 OA
ENDROOT
BRANCH   5   8
ATOM      8  N   UNL d   1      53.017  33.258  53.575  0.00  0.00    -0.234 NA
BRANCH   8   9
ATOM      9  C   UNL d   1      52.293  33.562  53.323  0.00  0.00     0.082 A 
ATOM     10  C   UNL d   1      52.261  34.040  52.642  0.00  0.00     0.019 A 
ATOM     11  C   UNL d   1      51.541  34.342  52.391  0.00  0.00     0.002 A 
ATOM     12  C   UNL d   1      50.849  34.174  52.813  0.00  0.00     0.000 A 
ATOM     13  C   UNL d   1      50.885  33.694  53.494  0.00  0.00     0.002 A 
ATOM     14  C   UNL d   1      50.121  34.473  52.568  0.00  0.00     0.000 C 
ATOM     15  C   UNL d   1      51.614  33.394  53.740  0.00  0.00     0.019 A 
ENDBRANCH   8   9
ENDBRANCH   5   8
BRANCH   1  16
ATOM     16  C   UNL d   1      53.670  29.966  53.644  0.00  0.00     0.157 C 
BRANCH  16  17
ATOM     17  C   UNL d   1      53.092  29.422  54.107  0.00  0.00     0.230 C 
ATOM     18  O   UNL d   1      53.282  29.211  54.969  0.00  0.00    -0.643 OA
ATOM     19  O   UNL d   1      52.353  29.107  53.706  0.00  0.00    -0.643 OA
ENDBRANCH  16  17
ENDBRANCH   1  16
TORSDOF 4
ENDMDL
MODEL 4
REMARK VINA RESULT:      -6.8      2.189      3.576
REMARK  4 active torsions:
REMARK  status: ('A' for Active; 'I' for Inactive)
REMARK    1  A    between atoms: C_6  and  N_1 
REMARK    2  A    between atoms: N_7  and  C_5 
REMARK    3  A    between atoms: C_8  and  C_6 
REMARK    4  A    between atoms: C_12  and  N_7 
ROOT
ATOM      1  N   UNL d   1      53.503  34.224  54.576  0.00  0.00    -0.227 N 
ATOM      2  C   UNL d   1      53.163  34.800  54.095  0.00  0.00     0.300 A 
ATOM      3  S   UNL d   1      52.721  34.581  53.438  0.00  0.00    -0.003 SA
ATOM      4  C   UNL d   1      52.959  33.205  53.741  0.00  0.00     0.292 A 
ATOM      5  C   UNL d   1      52.619  33.782  53.260  0.00  0.00     0.172 A 
ATOM      6  O   UNL d   1      53.265  35.598  54.273  0.00  0.00    -0.259 OA
ATOM      7  O   UNL d   1      52.979  32.305  53.739  0.00  0.00    -0.264 OA
ENDROOT
BRANCH   5   8
ATOM      8  N   UNL d   1      52.176  33.559  52.600  0.00  0.00    -0.234 NA
BRANCH   8   9
ATOM      9  C   UNL d   1      51.405  33.839  52.508  0.00  0.00     0.082 A 
ATOM     10  C   UNL d   1      51.204  34.275  51.828  0.00  0.00     0.019 A 
ATOM     11  C   UNL d   1      50.438  34.553  51.736  0.00  0.00     0.002 A 
ATOM     12  C   UNL d   1      49.867  34.401  52.316  0.00  0.00     0.000 A 
ATOM     13  C   UNL d   1      50.073  33.963  52.996  0.00  0.00     0.002 A 
ATOM     14  C   UNL d   1      49.095  34.677  52.232  0.00  0.00     0.000 C 
ATOM     15  C   UNL d   1      50.846  33.687  53.080  0.00  0.00     0.019 A 
ENDBRANCH   8   9
ENDBRANCH   5   8
BRANCH   1  16
ATOM     16  C   UNL d   1      54.012  34.239  55.326  0.00  0.00     0.157 C 
BRANCH  16  17
ATOM     17  C   UNL d   1      54.733  33.674  55.403  0.00  0.00     0.230 C 
ATOM     18  O   UNL d   1      55.545  33.954  55.108  0.00  0.00    -0.643 OA
ATOM     19  O   UNL d   1      54.629  32.860  55.765  0.00  0.00    -0.643 OA
ENDBRANCH  16  17
ENDBRANCH   1  16
TORSDOF 4
ENDMDL
MODEL 5
REMARK VINA RESULT:      -6.4      2.246      3.167
REMARK  4 active torsions:
REMARK  status: ('A' for Active; 'I' for Inactive)
REMARK    1  A    between atoms: C_6  and  N_1 
REMARK    2  A    between atoms: N_7  and  C_5 
REMARK    3  A    between atoms: C_8  and  C_6 
REMARK    4  A    between atoms: C_12  and  N_7 
ROOT
ATOM      1  N   UNL d   1      50.766  33.724  53.098  0.00  0.00    -0.227 N 
ATOM      2  C   UNL d   1      51.180  33.021  53.216  0.00  0.00     0.300 A 
ATOM      3  S   UNL d   1      52.000  33.018  53.194  0.00  0.00    -0.003 SA
ATOM      4  C   UNL d   1      51.998  34.422  52.937  0.00  0.00     0.292 A 
ATOM      5  C   UNL d   1      52.411  33.719  53.055  0.00  0.00     0.172 A 
ATOM      6  O   UNL d   1      50.769  32.320  53.355  0.00  0.00    -0.259 OA
ATOM      7  O   UNL d   1      52.229  35.278  52.775  0.00  0.00    -0.264 OA
ENDROOT
BRANCH   5   8
ATOM      8  N   UNL d   1      53.236  33.718  53.033  0.00  0.00    -0.234 NA
BRANCH   8   9
ATOM      9  C   UNL d   1      53.667  33.641  53.732  0.00  0.00     0.082 A 
ATOM     10  C   UNL d   1      54.096  32.942  53.877  0.00  0.00     0.019 A 
ATOM     11  C   UNL d   1      54.524  32.865  54.572  0.00  0.00     0.002 A 
ATOM     12  C   UNL d   1      54.530  33.479  55.128  0.00  0.00     0.000 A 
ATOM     13  C   UNL d   1      54.100  34.178  54.978  0.00  0.00     0.002 A 
ATOM     14  C   UNL d   1      54.958  33.410  55.829  0.00  0.00     0.000 C 
ATOM     15  C   UNL d   1      53.672  34.247  54.276  0.00  0.00     0.019 A 
ENDBRANCH   8   9
ENDBRANCH   5   8
BRANCH   1  16
ATOM     16  C   UNL d   1      49.889  33.952  53.080  0.00  0.00     0.157 C 
BRANCH  16  17
ATOM     17  C   UNL d   1      49.606  34.649  52.552  0.00  0.00     0.230 C 
ATOM     18  O   UNL d   1      49.385  35.437  52.945  0.00  0.00    -0.643 OA
ATOM     19  O   UNL d   1      49.551  34.545  51.663  0.00  0.00    -0.643 OA
ENDBRANCH  16  17
ENDBRANCH   1  16
TORSDOF 4
ENDMDL
