MODEL 1
REMARK VINA RESULT:      -4.8      0.000      0.000
REMARK  6 active torsions:
REMARK  status: ('A' for Active; 'I' for Inactive)
REMARK    1  A    between atoms: C_8  and  C_1 
REMARK    2  A    between atoms: N_7  and  C_2 
REMARK    3  A    between atoms: C_10  and  C_4 
REMARK       I    between atoms: C_6  and  N_7 
REMARK       I    between atoms: N_9  and  C_6 
REMARK    4  A    between atoms: O_13  and  C_8 
REMARK    5  A    between atoms: C_14  and  N_9 
REMARK    6  A    between atoms: C_17  and  O_13 
ROOT
ATOM      1  C   UNL d   1      59.068  -0.782  29.478  0.00  0.00     0.111 A 
ATOM      2  C   UNL d   1      58.304  -0.927  29.722  0.00  0.00     0.098 A 
ATOM      3  S   UNL d   1      59.362  -1.488  29.178  0.00  0.00    -0.080 SA
ATOM      4  C   UNL d   1      58.774  -2.059  29.242  0.00  0.00     0.031 A 
ATOM      5  C   UNL d   1      58.109  -1.701  29.585  0.00  0.00     0.026 A 
ENDROOT
BRANCH   2   6
ATOM      6  N   UNL d   1      57.832  -0.339  30.056  0.00  0.00    -0.190 NA
ATOM      7  C   UNL d   1      57.480  -0.469  30.766  0.00  0.00     0.369 C 
ATOM      8  N   UNL d   1      57.003   0.107  31.117  0.00  0.00    -0.191 NA
ATOM      9  O   UNL d   1      57.597  -1.184  31.144  0.00  0.00    -0.242 OA
BRANCH   8  10
ATOM     10  C   UNL d   1      56.638  -0.033  31.859  0.00  0.00     0.086 A 
ATOM     11  C   UNL d   1      56.365  -0.803  32.024  0.00  0.00     0.019 A 
ATOM     12  C   UNL d   1      56.008  -0.943  32.744  0.00  0.00     0.002 A 
ATOM     13  C   UNL d   1      55.923  -0.333  33.295  0.00  0.00     0.000 A 
ATOM     14  C   UNL d   1      56.194   0.422  33.127  0.00  0.00     0.002 A 
ATOM     15  C   UNL d   1      56.549   0.572  32.414  0.00  0.00     0.019 A 
ENDBRANCH   8  10
ENDBRANCH   2   6
BRANCH   1  16
ATOM     16  C   UNL d   1      59.475  -0.048  29.525  0.00  0.00     0.308 C 
ATOM     17  O   UNL d   1      59.148   0.645  29.210  0.00  0.00    -0.258 OA
BRANCH  16  18
ATOM     18  O   UNL d   1      60.202  -0.013  29.886  0.00  0.00    -0.271 OA
BRANCH  18  19
ATOM     19  C   UNL d   1      60.415   0.682  30.339  0.00  0.00     0.126 C 
ATOM     20  C   UNL d   1      61.133   0.647  30.799  0.00  0.00     0.029 C 
ENDBRANCH  18  19
ENDBRANCH  16  18
ENDBRANCH   1  16
BRANCH   4  21
ATOM     21  C   UNL d   1      58.916  -2.815  28.985  0.00  0.00     0.006 A 
ATOM     22  C   UNL d   1      58.289  -3.305  28.715  0.00  0.00     0.001 A 
ATOM     23  C   UNL d   1      58.441  -4.073  28.455  0.00  0.00     0.000 A 
ATOM     24  C   UNL d   1      59.181  -4.360  28.455  0.00  0.00     0.000 A 
ATOM     25  C   UNL d   1      59.842  -3.873  28.728  0.00  0.00     0.000 A 
ATOM     26  C   UNL d   1      59.686  -3.115  28.984  0.00  0.00     0.001 A 
ENDBRANCH   4  21
TORSDOF 6
ENDMDL
MODEL 2
REMARK VINA RESULT:      -3.6      1.116      2.959
REMARK  6 active torsions:
REMARK  status: ('A' for Active; 'I' for Inactive)
REMARK    1  A    between atoms: C_8  and  C_1 
REMARK    2  A    between atoms: N_7  and  C_2 
REMARK    3  A    between atoms: C_10  and  C_4 
REMARK       I    between atoms: C_6  and  N_7 
REMARK       I    between atoms: N_9  and  C_6 
REMARK    4  A    between atoms: O_13  and  C_8 
REMARK    5  A    between atoms: C_14  and  N_9 
REMARK    6  A    between atoms: C_17  and  O_13 
ROOT
ATOM      1  C   UNL d   1      58.478  -1.917  29.501  0.00  0.00     0.111 A 
ATOM      2  C   UNL d   1      58.148  -1.409  30.046  0.00  0.00     0.098 A 
ATOM      3  S   UNL d   1      59.141  -1.542  29.192  0.00  0.00    -0.080 SA
ATOM      4  C   UNL d   1      59.210  -0.807  29.554  0.00  0.00     0.031 A 
ATOM      5  C   UNL d   1      58.583  -0.727  30.090  0.00  0.00     0.026 A 
ENDROOT
BRANCH   2   6
ATOM      6  N   UNL d   1      57.468  -1.603  30.470  0.00  0.00    -0.190 NA
ATOM      7  C   UNL d   1      57.252  -1.153  31.099  0.00  0.00     0.369 C 
ATOM      8  N   UNL d   1      56.574  -1.330  31.537  0.00  0.00    -0.191 NA
ATOM      9  O   UNL d   1      57.712  -0.510  31.307  0.00  0.00    -0.242 OA
BRANCH   8  10
ATOM     10  C   UNL d   1      56.352  -0.858  32.193  0.00  0.00     0.086 A 
ATOM     11  C   UNL d   1      56.102  -1.242  32.889  0.00  0.00     0.019 A 
ATOM     12  C   UNL d   1      55.885  -0.785  33.530  0.00  0.00     0.002 A 
ATOM     13  C   UNL d   1      55.915   0.039  33.485  0.00  0.00     0.000 A 
ATOM     14  C   UNL d   1      56.163   0.411  32.798  0.00  0.00     0.002 A 
ATOM     15  C   UNL d   1      56.380  -0.033  32.156  0.00  0.00     0.019 A 
ENDBRANCH   8  10
ENDBRANCH   2   6
BRANCH   1  16
ATOM     16  C   UNL d   1      58.191  -2.680  29.294  0.00  0.00     0.308 C 
ATOM     17  O   UNL d   1      57.381  -2.852  29.311  0.00  0.00    -0.258 OA
BRANCH  16  18
ATOM     18  O   UNL d   1      58.715  -3.261  29.073  0.00  0.00    -0.271 OA
BRANCH  18  19
ATOM     19  C   UNL d   1      58.416  -4.026  28.830  0.00  0.00     0.126 C 
ATOM     20  C   UNL d   1      58.989  -4.637  28.667  0.00  0.00     0.029 C 
ENDBRANCH  18  19
ENDBRANCH  16  18
ENDBRANCH   1  16
BRANCH   4  21
ATOM     21  C   UNL d   1      59.823  -0.314  29.352  0.00  0.00     0.006 A 
ATOM     22  C   UNL d   1      60.515  -0.268  29.825  0.00  0.00     0.001 A 
ATOM     23  C   UNL d   1      61.133   0.234  29.613  0.00  0.00     0.000 A 
ATOM     24  C   UNL d   1      61.084   0.681  28.960  0.00  0.00     0.000 A 
ATOM     25  C   UNL d   1      60.381   0.651  28.458  0.00  0.00     0.000 A 
ATOM     26  C   UNL d   1      59.772   0.152  28.671  0.00  0.00     0.001 A 
ENDBRANCH   4  21
TORSDOF 6
ENDMDL
