MODEL 1
REMARK VINA RESULT:       7.0      0.000      0.000
REMARK  5 active torsions:
REMARK  status: ('A' for Active; 'I' for Inactive)
REMARK    1  A    between atoms: C_11  and  C_3 
REMARK    2  A    between atoms: C_13  and  N_5 
REMARK    3  A    between atoms: C_12  and  C_7 
REMARK    4  A    between atoms: O_21  and  C_11 
REMARK    5  A    between atoms: C_20  and  C_13 
ROOT
ATOM      1  C   UNL d   1      58.165   0.291  32.116  0.00  0.00     0.080 A 
ATOM      2  C   UNL d   1      57.852   0.162  31.359  0.00  0.00     0.267 A 
ATOM      3  C   UNL d   1      58.014   0.294  33.529  0.00  0.00     0.106 A 
ATOM      4  C   UNL d   1      58.945   0.548  32.195  0.00  0.00     0.108 A 
ATOM      5  N   UNL d   1      58.328   0.292  30.687  0.00  0.00    -0.271 N 
ATOM      6  C   UNL d   1      58.800   0.553  33.612  0.00  0.00     0.208 A 
ATOM      7  C   UNL d   1      57.704   0.166  32.780  0.00  0.00     0.015 A 
ATOM      8  O   UNL d   1      59.265   0.679  32.945  0.00  0.00    -0.288 OA
ATOM      9  C   UNL d   1      59.423   0.679  31.536  0.00  0.00     0.043 A 
ATOM     10  C   UNL d   1      59.111   0.550  30.783  0.00  0.00     0.069 A 
ATOM     11  O   UNL d   1      57.071  -0.096  31.266  0.00  0.00    -0.267 OA
ATOM     12  N   UNL d   1      59.112   0.682  34.365  0.00  0.00    -0.121 N 
ATOM     13  C   UNL d   1      59.588   0.680  30.103  0.00  0.00     0.019 C 
ENDROOT
BRANCH   7  14
ATOM     14  C   UNL d   1      56.926  -0.090  32.695  0.00  0.00     0.001 A 
ATOM     15  C   UNL d   1      56.756  -0.898  32.755  0.00  0.00     0.001 A 
ATOM     16  C   UNL d   1      55.978  -1.153  32.670  0.00  0.00     0.011 A 
ATOM     17  C   UNL d   1      55.373  -0.611  32.526  0.00  0.00     0.058 A 
ATOM     18  C   UNL d   1      55.547   0.199  32.466  0.00  0.00     0.011 A 
ATOM     19 CL   UNL d   1      54.596  -0.867  32.441  0.00  0.00    -0.082 Cl
ATOM     20  C   UNL d   1      56.325   0.456  32.551  0.00  0.00     0.001 A 
ENDBRANCH   7  14
BRANCH   3  21
ATOM     21  C   UNL d   1      57.550   0.167  34.197  0.00  0.00     0.299 C 
ATOM     22  O   UNL d   1      57.716  -0.461  34.706  0.00  0.00    -0.259 OA
BRANCH  21  23
ATOM     23  O   UNL d   1      56.914   0.668  34.360  0.00  0.00    -0.296 OA
ATOM     24  C   UNL d   1      56.574   0.676  35.112  0.00  0.00     0.185 C 
ENDBRANCH  21  23
ENDBRANCH   3  21
BRANCH   5  25
ATOM     25  C   UNL d   1      58.015   0.163  29.934  0.00  0.00     0.108 C 
BRANCH  25  26
ATOM     26  C   UNL d   1      58.227  -0.510  29.510  0.00  0.00     0.118 A 
ATOM     27  O   UNL d   1      58.189  -1.292  29.782  0.00  0.00    -0.304 OA
ATOM     28  C   UNL d   1      58.454  -1.791  29.178  0.00  0.00     0.123 A 
ATOM     29  C   UNL d   1      58.657  -1.323  28.530  0.00  0.00     0.029 A 
ATOM     30  C   UNL d   1      58.518  -0.534  28.732  0.00  0.00     0.028 A 
ENDBRANCH  25  26
ENDBRANCH   5  25
TORSDOF 5
ENDMDL
