MODEL 1
REMARK VINA RESULT:      57.1      0.000      0.000
REMARK  7 active torsions:
REMARK  status: ('A' for Active; 'I' for Inactive)
REMARK    1  A    between atoms: N_4  and  C_1 
REMARK    2  A    between atoms: N_8  and  C_1 
REMARK    3  A    between atoms: C_2  and  C_3 
REMARK    4  A    between atoms: C_5  and  C_2 
REMARK    5  A    between atoms: N_6  and  C_2 
REMARK    6  A    between atoms: C_3  and  N_4 
REMARK    7  A    between atoms: C_14  and  N_8 
ROOT
ATOM      1  C   UNL d   1     -51.612  25.755  33.884  0.00  0.00     0.100 C 
ATOM      2  C   UNL d   1     -51.661  26.338  33.310  0.00  0.00     0.022 C 
ENDROOT
BRANCH   1   3
ATOM      3  C   UNL d   1     -51.577  24.961  33.662  0.00  0.00     0.088 C 
BRANCH   3   4
ATOM      4  C   UNL d   1     -50.846  24.598  33.539  0.00  0.00     0.047 A 
ATOM      5  S   UNL d   1     -50.694  23.783  33.533  0.00  0.00    -0.085 SA
ATOM      6  C   UNL d   1     -49.890  23.671  33.391  0.00  0.00     0.035 A 
ATOM      7  C   UNL d   1     -49.530  24.411  33.307  0.00  0.00     0.007 A 
ATOM      8  C   UNL d   1     -50.122  24.993  33.399  0.00  0.00     0.009 A 
ENDBRANCH   3   4
BRANCH   3   9
ATOM      9  N   UNL d   1     -52.275  24.523  33.559  0.00  0.00    -0.299 N 
ATOM     10  C   UNL d   1     -52.986  24.908  33.433  0.00  0.00     0.107 A 
ATOM     11  C   UNL d   1     -53.684  24.483  33.330  0.00  0.00     0.142 A 
ATOM     12  O   UNL d   1     -53.675  23.650  33.354  0.00  0.00    -0.300 OA
ATOM     13  C   UNL d   1     -52.950  23.260  33.482  0.00  0.00     0.142 A 
ATOM     14  C   UNL d   1     -52.254  23.696  33.584  0.00  0.00     0.107 A 
ENDBRANCH   3   9
ENDBRANCH   1   3
BRANCH   1  15
ATOM     15  N   UNL d   1     -51.598  25.953  34.683  0.00  0.00    -0.216 NA
BRANCH  15  16
ATOM     16  C   UNL d   1     -51.133  26.590  34.943  0.00  0.00     0.221 C 
ATOM     17  S   UNL d   1     -50.444  26.785  34.534  0.00  0.00    -0.037 SA
BRANCH  16  18
ATOM     18  N   UNL d   1     -51.362  27.022  35.606  0.00  0.00    -0.217 NA
BRANCH  18  19
ATOM     19  C   UNL d   1     -51.570  26.636  36.307  0.00  0.00     0.084 A 
ATOM     20  C   UNL d   1     -52.216  26.113  36.313  0.00  0.00     0.021 A 
ATOM     21  C   UNL d   1     -52.414  25.737  37.005  0.00  0.00     0.031 A 
ATOM     22  C   UNL d   1     -51.984  25.869  37.700  0.00  0.00     0.140 A 
ATOM     23  C   UNL d   1     -51.344  26.390  37.690  0.00  0.00     0.031 A 
ATOM     24  F   UNL d   1     -52.196  25.479  38.403  0.00  0.00    -0.204 F 
ATOM     25  C   UNL d   1     -51.139  26.771  36.994  0.00  0.00     0.021 A 
ENDBRANCH  18  19
ENDBRANCH  16  18
ENDBRANCH  15  16
ENDBRANCH   1  15
TORSDOF 7
ENDMDL
