MODEL 1
REMARK VINA RESULT:      66.8      0.000      0.000
REMARK  6 active torsions:
REMARK  status: ('A' for Active; 'I' for Inactive)
REMARK    1  A    between atoms: C_5  and  N_1 
REMARK    2  A    between atoms: C_10  and  C_4 
REMARK    3  A    between atoms: C_6  and  S_13 
REMARK    4  A    between atoms: C_8  and  C_11 
REMARK    5  A    between atoms: C_14  and  C_8 
REMARK    6  A    between atoms: S_13  and  C_14 
ROOT
ATOM      1  S   UNL d   1      61.221  49.339  50.469  0.00  0.00    -0.062 SA
ENDROOT
BRANCH   1   2
ATOM      2  C   UNL d   1      61.281  48.534  50.263  0.00  0.00     0.133 A 
ATOM      3  N   UNL d   1      61.279  47.950  50.857  0.00  0.00    -0.141 NA
ATOM      4  N   UNL d   1      61.338  47.152  50.650  0.00  0.00    -0.146 NA
ATOM      5  C   UNL d   1      61.399  46.934  49.859  0.00  0.00     0.121 A 
ATOM      6  C   UNL d   1      61.401  47.519  49.265  0.00  0.00     0.025 A 
ATOM      7  C   UNL d   1      61.342  48.314  49.468  0.00  0.00     0.029 A 
BRANCH   5   8
ATOM      8  C   UNL d   1      61.458  46.139  49.654  0.00  0.00     0.101 A 
ATOM      9  N   UNL d   1      60.995  45.834  49.043  0.00  0.00    -0.242 NA
ATOM     10  C   UNL d   1      61.053  45.039  48.838  0.00  0.00     0.099 A 
ATOM     11  C   UNL d   1      61.580  44.538  49.247  0.00  0.00     0.021 A 
ATOM     12  C   UNL d   1      62.043  44.842  49.858  0.00  0.00     0.003 A 
ATOM     13  C   UNL d   1      61.982  45.640  50.062  0.00  0.00     0.021 A 
ENDBRANCH   5   8
ENDBRANCH   1   2
BRANCH   1  14
ATOM     14  C   UNL d   1      60.474  49.704  50.511  0.00  0.00     0.079 C 
BRANCH  14  15
ATOM     15  C   UNL d   1      59.912  49.435  51.048  0.00  0.00     0.202 C 
ATOM     16  O   UNL d   1      60.152  49.151  51.784  0.00  0.00    -0.286 OA
BRANCH  15  17
ATOM     17  C   UNL d   1      59.107  49.449  50.851  0.00  0.00     0.040 A 
ATOM     18  C   UNL d   1      58.875  49.612  50.077  0.00  0.00     0.005 A 
ATOM     19  C   UNL d   1      58.074  49.626  49.880  0.00  0.00     0.024 A 
ATOM     20  C   UNL d   1      57.505  49.477  50.457  0.00  0.00     0.127 A 
ATOM     21  C   UNL d   1      57.737  49.314  51.229  0.00  0.00     0.024 A 
ATOM     22  C   UNL d   1      58.538  49.300  51.426  0.00  0.00     0.005 A 
BRANCH  20  23
ATOM     23  N   UNL d   1      56.704  49.491  50.260  0.00  0.00    -0.114 N 
ATOM     24  O   UNL d   1      56.463  49.295  49.497  0.00  0.00    -0.532 OA
ATOM     25  O   UNL d   1      56.142  49.703  50.832  0.00  0.00    -0.532 OA
ENDBRANCH  20  23
ENDBRANCH  15  17
ENDBRANCH  14  15
ENDBRANCH   1  14
TORSDOF 6
ENDMDL
MODEL 2
REMARK VINA RESULT:      67.8      0.891      1.334
REMARK  6 active torsions:
REMARK  status: ('A' for Active; 'I' for Inactive)
REMARK    1  A    between atoms: C_5  and  N_1 
REMARK    2  A    between atoms: C_10  and  C_4 
REMARK    3  A    between atoms: C_6  and  S_13 
REMARK    4  A    between atoms: C_8  and  C_11 
REMARK    5  A    between atoms: C_14  and  C_8 
REMARK    6  A    between atoms: S_13  and  C_14 
ROOT
ATOM      1  S   UNL d   1      61.262  48.098  50.387  0.00  0.00    -0.062 SA
ENDROOT
BRANCH   1   2
ATOM      2  C   UNL d   1      61.420  47.295  50.228  0.00  0.00     0.133 A 
ATOM      3  N   UNL d   1      62.043  47.086  49.716  0.00  0.00    -0.141 NA
ATOM      4  N   UNL d   1      62.197  46.289  49.559  0.00  0.00    -0.146 NA
ATOM      5  C   UNL d   1      61.736  45.704  49.907  0.00  0.00     0.121 A 
ATOM      6  C   UNL d   1      61.113  45.913  50.419  0.00  0.00     0.025 A 
ATOM      7  C   UNL d   1      60.957  46.705  50.577  0.00  0.00     0.029 A 
BRANCH   5   8
ATOM      8  C   UNL d   1      61.891  44.911  49.750  0.00  0.00     0.101 A 
ATOM      9  N   UNL d   1      62.114  44.676  48.991  0.00  0.00    -0.242 NA
ATOM     10  C   UNL d   1      62.269  43.884  48.832  0.00  0.00     0.099 A 
ATOM     11  C   UNL d   1      62.202  43.313  49.437  0.00  0.00     0.021 A 
ATOM     12  C   UNL d   1      61.979  43.547  50.196  0.00  0.00     0.003 A 
ATOM     13  C   UNL d   1      61.824  44.344  50.353  0.00  0.00     0.021 A 
ENDBRANCH   5   8
ENDBRANCH   1   2
BRANCH   1  14
ATOM     14  C   UNL d   1      60.687  48.306  50.953  0.00  0.00     0.079 C 
BRANCH  14  15
ATOM     15  C   UNL d   1      60.387  49.072  50.974  0.00  0.00     0.202 C 
ATOM     16  O   UNL d   1      60.891  49.705  51.131  0.00  0.00    -0.286 OA
BRANCH  15  17
ATOM     17  C   UNL d   1      59.580  49.206  50.839  0.00  0.00     0.040 A 
ATOM     18  C   UNL d   1      59.099  49.476  51.451  0.00  0.00     0.005 A 
ATOM     19  C   UNL d   1      58.296  49.610  51.316  0.00  0.00     0.024 A 
ATOM     20  C   UNL d   1      57.975  49.474  50.570  0.00  0.00     0.127 A 
ATOM     21  C   UNL d   1      58.455  49.204  49.960  0.00  0.00     0.024 A 
ATOM     22  C   UNL d   1      59.258  49.070  50.094  0.00  0.00     0.005 A 
BRANCH  20  23
ATOM     23  N   UNL d   1      57.172  49.608  50.436  0.00  0.00    -0.114 N 
ATOM     24  O   UNL d   1      56.886  49.664  49.665  0.00  0.00    -0.532 OA
ATOM     25  O   UNL d   1      56.653  49.685  51.078  0.00  0.00    -0.532 OA
ENDBRANCH  20  23
ENDBRANCH  15  17
ENDBRANCH  14  15
ENDBRANCH   1  14
TORSDOF 6
ENDMDL
