MODEL 1
REMARK VINA RESULT:      -5.6      0.000      0.000
REMARK  3 active torsions:
REMARK  status: ('A' for Active; 'I' for Inactive)
REMARK    1  A    between atoms: C_3  and  C_9 
REMARK    2  A    between atoms: C_6  and  C_4 
REMARK    3  A    between atoms: C_9  and  C_6 
ROOT
ATOM      1  C   UNL d   1      56.161  -1.068  32.516  0.00  0.00     0.199 A 
ATOM      2  C   UNL d   1      56.644  -1.166  31.867  0.00  0.00     0.084 A 
ATOM      3  C   UNL d   1      55.982  -0.312  32.792  0.00  0.00     0.039 A 
ATOM      4  C   UNL d   1      56.290   0.336  32.417  0.00  0.00     0.006 A 
ATOM      5  C   UNL d   1      56.953  -0.506  31.491  0.00  0.00     0.199 A 
ATOM      6  O   UNL d   1      55.850  -1.736  32.895  0.00  0.00    -0.286 OA
ATOM      7  C   UNL d   1      56.774   0.250  31.767  0.00  0.00     0.042 A 
ATOM      8  O   UNL d   1      57.436  -0.605  30.842  0.00  0.00    -0.286 OA
ENDROOT
BRANCH   3   9
ATOM      9  C   UNL d   1      55.492  -0.217  33.450  0.00  0.00     0.009 C 
BRANCH   9  10
ATOM     10  C   UNL d   1      55.310   0.540  33.723  0.00  0.00     0.070 C 
BRANCH  10  11
ATOM     11  C   UNL d   1      54.821   0.634  34.382  0.00  0.00     0.211 C 
ATOM     12  O   UNL d   1      54.008   0.682  34.281  0.00  0.00    -0.644 OA
ATOM     13  O   UNL d   1      55.143   0.678  35.120  0.00  0.00    -0.644 OA
ENDBRANCH  10  11
ENDBRANCH   9  10
ENDBRANCH   3   9
TORSDOF 3
ENDMDL
MODEL 2
REMARK VINA RESULT:      -5.4      0.945      3.260
REMARK  3 active torsions:
REMARK  status: ('A' for Active; 'I' for Inactive)
REMARK    1  A    between atoms: C_3  and  C_9 
REMARK    2  A    between atoms: C_6  and  C_4 
REMARK    3  A    between atoms: C_9  and  C_6 
ROOT
ATOM      1  C   UNL d   1      56.231  -0.887  32.481  0.00  0.00     0.199 A 
ATOM      2  C   UNL d   1      55.679  -0.813  33.076  0.00  0.00     0.084 A 
ATOM      3  C   UNL d   1      56.554  -0.215  32.126  0.00  0.00     0.039 A 
ATOM      4  C   UNL d   1      56.320   0.519  32.372  0.00  0.00     0.006 A 
ATOM      5  C   UNL d   1      55.446  -0.066  33.320  0.00  0.00     0.199 A 
ATOM      6  O   UNL d   1      56.464  -1.642  32.236  0.00  0.00    -0.286 OA
ATOM      7  C   UNL d   1      55.769   0.605  32.966  0.00  0.00     0.042 A 
ATOM      8  O   UNL d   1      54.894   0.008  33.915  0.00  0.00    -0.286 OA
ENDROOT
BRANCH   3   9
ATOM      9  C   UNL d   1      57.113  -0.295  31.524  0.00  0.00     0.009 C 
BRANCH   9  10
ATOM     10  C   UNL d   1      57.371   0.371  31.111  0.00  0.00     0.070 C 
BRANCH  10  11
ATOM     11  C   UNL d   1      57.925   0.290  30.504  0.00  0.00     0.211 C 
ATOM     12  O   UNL d   1      57.670   0.152  29.736  0.00  0.00    -0.644 OA
ATOM     13  O   UNL d   1      58.713   0.347  30.666  0.00  0.00    -0.644 OA
ENDBRANCH  10  11
ENDBRANCH   9  10
ENDBRANCH   3   9
TORSDOF 3
ENDMDL
MODEL 3
REMARK VINA RESULT:      -3.3      8.152      9.181
REMARK  3 active torsions:
REMARK  status: ('A' for Active; 'I' for Inactive)
REMARK    1  A    between atoms: C_3  and  C_9 
REMARK    2  A    between atoms: C_6  and  C_4 
REMARK    3  A    between atoms: C_9  and  C_6 
ROOT
ATOM      1  C   UNL d   1      59.497  -6.592  35.968  0.00  0.00     0.199 A 
ATOM      2  C   UNL d   1      59.912  -5.893  35.912  0.00  0.00     0.084 A 
ATOM      3  C   UNL d   1      59.881  -7.290  36.178  0.00  0.00     0.039 A 
ATOM      4  C   UNL d   1      60.676  -7.280  36.330  0.00  0.00     0.006 A 
ATOM      5  C   UNL d   1      60.718  -5.889  36.067  0.00  0.00     0.199 A 
ATOM      6  O   UNL d   1      58.683  -6.593  35.811  0.00  0.00    -0.286 OA
ATOM      7  C   UNL d   1      61.102  -6.588  36.277  0.00  0.00     0.042 A 
ATOM      8  O   UNL d   1      61.133  -5.191  36.011  0.00  0.00    -0.286 OA
ENDROOT
BRANCH   3   9
ATOM      9  C   UNL d   1      59.456  -7.996  36.233  0.00  0.00     0.009 C 
BRANCH   9  10
ATOM     10  C   UNL d   1      59.785  -8.698  35.953  0.00  0.00     0.070 C 
BRANCH  10  11
ATOM     11  C   UNL d   1      59.296  -9.336  35.765  0.00  0.00     0.211 C 
ATOM     12  O   UNL d   1      58.769  -9.623  36.325  0.00  0.00    -0.644 OA
ATOM     13  O   UNL d   1      59.338  -9.676  35.034  0.00  0.00    -0.644 OA
ENDBRANCH  10  11
ENDBRANCH   9  10
ENDBRANCH   3   9
TORSDOF 3
ENDMDL
MODEL 4
REMARK VINA RESULT:      -2.6      4.440      5.726
REMARK  3 active torsions:
REMARK  status: ('A' for Active; 'I' for Inactive)
REMARK    1  A    between atoms: C_3  and  C_9 
REMARK    2  A    between atoms: C_6  and  C_4 
REMARK    3  A    between atoms: C_9  and  C_6 
ROOT
ATOM      1  C   UNL d   1      59.157  -3.228  28.925  0.00  0.00     0.199 A 
ATOM      2  C   UNL d   1      59.717  -3.805  28.793  0.00  0.00     0.084 A 
ATOM      3  C   UNL d   1      59.384  -2.441  29.026  0.00  0.00     0.039 A 
ATOM      4  C   UNL d   1      60.168  -2.243  28.993  0.00  0.00     0.006 A 
ATOM      5  C   UNL d   1      60.509  -3.597  28.761  0.00  0.00     0.199 A 
ATOM      6  O   UNL d   1      58.357  -3.439  28.957  0.00  0.00    -0.286 OA
ATOM      7  C   UNL d   1      60.737  -2.811  28.862  0.00  0.00     0.042 A 
ATOM      8  O   UNL d   1      61.070  -4.174  28.628  0.00  0.00    -0.286 OA
ENDROOT
BRANCH   3   9
ATOM      9  C   UNL d   1      58.813  -1.860  29.160  0.00  0.00     0.009 C 
BRANCH   9  10
ATOM     10  C   UNL d   1      59.040  -1.072  29.251  0.00  0.00     0.070 C 
BRANCH  10  11
ATOM     11  C   UNL d   1      58.469  -0.493  29.394  0.00  0.00     0.211 C 
ATOM     12  O   UNL d   1      58.111  -0.109  28.763  0.00  0.00    -0.644 OA
ATOM     13  O   UNL d   1      58.266  -0.305  30.152  0.00  0.00    -0.644 OA
ENDBRANCH  10  11
ENDBRANCH   9  10
ENDBRANCH   3   9
TORSDOF 3
ENDMDL
