MODEL 1
REMARK VINA RESULT:      49.3      0.000      0.000
REMARK  5 active torsions:
REMARK  status: ('A' for Active; 'I' for Inactive)
REMARK    1  A    between atoms: C_6  and  C_1 
REMARK    2  A    between atoms: C_7  and  C_5 
REMARK       I    between atoms: N_13  and  C_6 
REMARK    3  A    between atoms: C_8  and  C_12 
REMARK    4  A    between atoms: N_9  and  N_13 
REMARK    5  A    between atoms: C_12  and  N_9 
ROOT
ATOM      1  C   UNL d   1      13.589  14.015  -4.834  0.00  0.00     0.164 A 
ATOM      2  C   UNL d   1      13.922  14.289  -4.127  0.00  0.00     0.047 A 
ATOM      3  N   UNL d   1      13.299  12.769  -4.210  0.00  0.00    -0.148 NA
ATOM      4  N   UNL d   1      13.277  13.256  -4.879  0.00  0.00    -0.143 NA
ATOM      5  C   UNL d   1      13.632  13.043  -3.503  0.00  0.00     0.105 A 
ENDROOT
BRANCH   1   6
ATOM      6  C   UNL d   1      13.572  14.510  -5.497  0.00  0.00     0.316 C 
ATOM      7  N   UNL d   1      13.255  15.433  -5.488  0.00  0.00    -0.104 NA
ATOM      8  O   UNL d   1      13.839  14.220  -6.225  0.00  0.00    -0.262 OA
BRANCH   7   9
ATOM      9  N   UNL d   1      13.185  16.130  -6.217  0.00  0.00    -0.143 NA
BRANCH   9  10
ATOM     10  C   UNL d   1      13.766  16.769  -6.271  0.00  0.00     0.129 C 
BRANCH  10  11
ATOM     11  C   UNL d   1      13.502  17.599  -6.274  0.00  0.00     0.050 A 
ATOM     12  S   UNL d   1      14.005  18.157  -6.168  0.00  0.00    -0.085 SA
ATOM     13  C   UNL d   1      13.774  18.882  -6.170  0.00  0.00     0.035 A 
ATOM     14  C   UNL d   1      13.041  19.049  -6.279  0.00  0.00     0.007 A 
ATOM     15  C   UNL d   1      12.769  17.767  -6.382  0.00  0.00     0.009 A 
ENDBRANCH  10  11
ENDBRANCH   9  10
ENDBRANCH   7   9
ENDBRANCH   1   6
BRANCH   5  16
ATOM     16  C   UNL d   1      13.747  12.727  -2.750  0.00  0.00     0.019 A 
ATOM     17  C   UNL d   1      14.370  13.002  -2.285  0.00  0.00     0.002 A 
ATOM     18  C   UNL d   1      14.489  12.687  -1.529  0.00  0.00     0.000 A 
ATOM     19  C   UNL d   1      15.109  12.958  -1.061  0.00  0.00     0.000 A 
ATOM     20  C   UNL d   1      13.979  12.095  -1.243  0.00  0.00     0.000 A 
ATOM     21  C   UNL d   1      15.228  12.646  -0.311  0.00  0.00     0.000 A 
ATOM     22  C   UNL d   1      14.724  12.055  -0.019  0.00  0.00     0.000 A 
ATOM     23  C   UNL d   1      14.101  11.780  -0.484  0.00  0.00     0.000 A 
ATOM     24  C   UNL d   1      13.366  11.830  -1.713  0.00  0.00     0.000 A 
ATOM     25  C   UNL d   1      13.251  12.147  -2.466  0.00  0.00     0.002 A 
ENDBRANCH   5  16
TORSDOF 5
ENDMDL
