MODEL 1
REMARK VINA RESULT:      45.5      0.000      0.000
REMARK  7 active torsions:
REMARK  status: ('A' for Active; 'I' for Inactive)
REMARK    1  A    between atoms: N_3  and  C_2 
REMARK       I    between atoms: C_6  and  N_3 
REMARK    2  A    between atoms: C_11  and  C_4 
REMARK    3  A    between atoms: C_5  and  C_6 
REMARK    4  A    between atoms: C_15  and  C_11 
REMARK    5  A    between atoms: C_18  and  C_12 
REMARK    6  A    between atoms: O_17  and  C_18 
REMARK    7  A    between atoms: C_19  and  O_17 
ROOT
ATOM      1  C   UNL d   1      13.465  14.633  -5.105  0.00  0.00     0.158 A 
ATOM      2  O   UNL d   1      13.340  15.446  -5.065  0.00  0.00    -0.300 OA
ATOM      3  C   UNL d   1      13.774  14.460  -5.849  0.00  0.00     0.032 A 
ATOM      4  C   UNL d   1      13.572  15.783  -5.783  0.00  0.00     0.125 A 
ATOM      5  C   UNL d   1      13.840  15.170  -6.267  0.00  0.00     0.029 A 
ENDROOT
BRANCH   1   6
ATOM      6  C   UNL d   1      13.307  14.083  -4.506  0.00  0.00     0.304 C 
ATOM      7  N   UNL d   1      13.691  13.351  -4.507  0.00  0.00    -0.180 NA
ATOM      8  O   UNL d   1      12.769  14.269  -3.909  0.00  0.00    -0.263 OA
BRANCH   7   9
ATOM      9  C   UNL d   1      13.536  12.805  -3.914  0.00  0.00     0.216 A 
ATOM     10  N   UNL d   1      13.999  12.675  -3.225  0.00  0.00    -0.200 NA
ATOM     11  C   UNL d   1      13.645  12.091  -2.797  0.00  0.00     0.175 A 
ATOM     12  N   UNL d   1      12.967  11.844  -3.196  0.00  0.00    -0.187 NA
ATOM     13  S   UNL d   1      12.901  12.286  -3.886  0.00  0.00     0.054 SA
BRANCH  11  14
ATOM     14  C   UNL d   1      13.909  11.784  -2.079  0.00  0.00     0.082 C 
BRANCH  14  15
ATOM     15  C   UNL d   1      14.304  12.283  -1.545  0.00  0.00     0.199 C 
ATOM     16  O   UNL d   1      14.984  12.683  -1.773  0.00  0.00    -0.286 OA
ATOM     17  C   UNL d   1      14.008  12.377  -0.775  0.00  0.00     0.045 C 
ENDBRANCH  14  15
ENDBRANCH  11  14
ENDBRANCH   7   9
ENDBRANCH   1   6
BRANCH   4  18
ATOM     18  C   UNL d   1      13.538  16.578  -5.972  0.00  0.00     0.147 C 
BRANCH  18  19
ATOM     19  O   UNL d   1      14.206  17.057  -5.851  0.00  0.00    -0.303 OA
BRANCH  19  20
ATOM     20  C   UNL d   1      14.144  17.875  -5.912  0.00  0.00     0.100 A 
ATOM     21  C   UNL d   1      13.511  18.206  -6.325  0.00  0.00     0.025 A 
ATOM     22  C   UNL d   1      13.448  19.020  -6.386  0.00  0.00     0.002 A 
ATOM     23  C   UNL d   1      14.020  19.513  -6.032  0.00  0.00     0.000 A 
ATOM     24  C   UNL d   1      14.650  19.175  -5.621  0.00  0.00     0.002 A 
ATOM     25  C   UNL d   1      13.952  20.335  -6.097  0.00  0.00     0.000 C 
ATOM     26  C   UNL d   1      14.713  18.357  -5.560  0.00  0.00     0.025 A 
ENDBRANCH  19  20
ENDBRANCH  18  19
ENDBRANCH   4  18
TORSDOF 7
ENDMDL
