MODEL 1
REMARK VINA RESULT:      -8.4      0.000      0.000
REMARK  3 active torsions:
REMARK  status: ('A' for Active; 'I' for Inactive)
REMARK    1  A    between atoms: C_14  and  N_3 
REMARK    2  A    between atoms: O_17  and  C_12 
REMARK    3  A    between atoms: O_16  and  C_13 
ROOT
ATOM      1  C   UNL d   1      53.548  32.662  54.352  0.00  0.00     0.166 A 
ATOM      2  C   UNL d   1      53.042  32.780  53.682  0.00  0.00     0.117 A 
ATOM      3  N   UNL d   1      53.748  33.412  54.649  0.00  0.00    -0.289 N 
ATOM      4  N   UNL d   1      53.737  31.877  54.571  0.00  0.00    -0.225 NA
ATOM      5  N   UNL d   1      52.750  32.137  53.268  0.00  0.00    -0.241 NA
ATOM      6  C   UNL d   1      52.957  33.593  53.602  0.00  0.00     0.037 A 
ATOM      7  C   UNL d   1      53.387  33.978  54.191  0.00  0.00     0.067 A 
ATOM      8  C   UNL d   1      53.447  31.235  54.160  0.00  0.00     0.103 A 
ATOM      9  C   UNL d   1      52.954  31.365  53.508  0.00  0.00     0.101 A 
ATOM     10  C   UNL d   1      53.646  30.491  54.394  0.00  0.00     0.047 A 
ATOM     11  C   UNL d   1      52.662  30.723  53.093  0.00  0.00     0.047 A 
ATOM     12  C   UNL d   1      52.851  29.938  53.313  0.00  0.00     0.118 A 
ATOM     13  C   UNL d   1      53.351  29.845  53.976  0.00  0.00     0.118 A 
ATOM     14  C   UNL d   1      52.529  34.038  53.050  0.00  0.00     0.003 A 
ATOM     15  C   UNL d   1      53.377  34.796  54.210  0.00  0.00     0.018 A 
ATOM     16  C   UNL d   1      52.529  34.865  53.083  0.00  0.00     0.000 A 
ATOM     17  C   UNL d   1      52.960  35.250  53.673  0.00  0.00     0.002 A 
ENDROOT
BRANCH   3  18
ATOM     18  C   UNL d   1      54.224  33.551  55.289  0.00  0.00     0.082 C 
ATOM     19  C   UNL d   1      55.037  33.655  55.185  0.00  0.00     0.021 C 
ENDBRANCH   3  18
BRANCH  13  20
ATOM     20  O   UNL d   1      53.548  29.096  54.208  0.00  0.00    -0.326 OA
ATOM     21  C   UNL d   1      53.479  28.861  55.000  0.00  0.00     0.181 C 
ENDBRANCH  13  20
BRANCH  12  22
ATOM     22  O   UNL d   1      52.548  29.284  52.883  0.00  0.00    -0.326 OA
ATOM     23  C   UNL d   1      52.532  29.309  52.049  0.00  0.00     0.181 C 
ENDBRANCH  12  22
TORSDOF 3
ENDMDL
MODEL 2
REMARK VINA RESULT:      -8.1      0.646      2.013
REMARK  3 active torsions:
REMARK  status: ('A' for Active; 'I' for Inactive)
REMARK    1  A    between atoms: C_14  and  N_3 
REMARK    2  A    between atoms: O_17  and  C_12 
REMARK    3  A    between atoms: O_16  and  C_13 
ROOT
ATOM      1  C   UNL d   1      52.647  32.956  53.219  0.00  0.00     0.166 A 
ATOM      2  C   UNL d   1      53.105  32.991  53.931  0.00  0.00     0.117 A 
ATOM      3  N   UNL d   1      52.439  33.735  53.017  0.00  0.00    -0.289 N 
ATOM      4  N   UNL d   1      52.500  32.204  52.880  0.00  0.00    -0.225 NA
ATOM      5  N   UNL d   1      53.393  32.303  54.270  0.00  0.00    -0.241 NA
ATOM      6  C   UNL d   1      53.157  33.786  54.130  0.00  0.00     0.037 A 
ATOM      7  C   UNL d   1      52.751  34.239  53.573  0.00  0.00     0.067 A 
ATOM      8  C   UNL d   1      52.786  31.519  53.216  0.00  0.00     0.103 A 
ATOM      9  C   UNL d   1      53.232  31.568  53.910  0.00  0.00     0.101 A 
ATOM     10  C   UNL d   1      52.629  30.811  52.867  0.00  0.00     0.047 A 
ATOM     11  C   UNL d   1      53.520  30.882  54.250  0.00  0.00     0.047 A 
ATOM     12  C   UNL d   1      53.373  30.130  53.911  0.00  0.00     0.118 A 
ATOM     13  C   UNL d   1      52.919  30.120  53.210  0.00  0.00     0.118 A 
ATOM     14  C   UNL d   1      53.533  34.159  54.766  0.00  0.00     0.003 A 
ATOM     15  C   UNL d   1      52.733  35.051  53.669  0.00  0.00     0.018 A 
ATOM     16  C   UNL d   1      53.505  34.982  54.848  0.00  0.00     0.000 A 
ATOM     17  C   UNL d   1      53.099  35.435  54.291  0.00  0.00     0.002 A 
ENDROOT
BRANCH   3  18
ATOM     18  C   UNL d   1      52.000  33.950  52.372  0.00  0.00     0.082 C 
ATOM     19  C   UNL d   1      51.189  34.087  52.452  0.00  0.00     0.021 C 
ENDBRANCH   3  18
BRANCH  13  20
ATOM     20  O   UNL d   1      52.764  29.406  52.862  0.00  0.00    -0.326 OA
ATOM     21  C   UNL d   1      52.633  29.347  52.045  0.00  0.00     0.181 C 
ENDBRANCH  13  20
BRANCH  12  22
ATOM     22  O   UNL d   1      53.672  29.430  54.265  0.00  0.00    -0.326 OA
ATOM     23  C   UNL d   1      53.442  29.229  55.041  0.00  0.00     0.181 C 
ENDBRANCH  12  22
TORSDOF 3
ENDMDL
MODEL 3
REMARK VINA RESULT:      -7.8      2.592      4.350
REMARK  3 active torsions:
REMARK  status: ('A' for Active; 'I' for Inactive)
REMARK    1  A    between atoms: C_14  and  N_3 
REMARK    2  A    between atoms: O_17  and  C_12 
REMARK    3  A    between atoms: O_16  and  C_13 
ROOT
ATOM      1  C   UNL d   1      52.328  33.139  53.169  0.00  0.00     0.166 A 
ATOM      2  C   UNL d   1      52.373  33.714  53.791  0.00  0.00     0.117 A 
ATOM      3  N   UNL d   1      52.991  32.643  53.239  0.00  0.00    -0.289 N 
ATOM      4  N   UNL d   1      51.678  33.176  52.643  0.00  0.00    -0.225 NA
ATOM      5  N   UNL d   1      51.791  34.285  53.867  0.00  0.00    -0.241 NA
ATOM      6  C   UNL d   1      53.058  33.542  54.210  0.00  0.00     0.037 A 
ATOM      7  C   UNL d   1      53.434  32.890  53.874  0.00  0.00     0.067 A 
ATOM      8  C   UNL d   1      51.098  33.744  52.717  0.00  0.00     0.103 A 
ATOM      9  C   UNL d   1      51.154  34.298  53.329  0.00  0.00     0.101 A 
ATOM     10  C   UNL d   1      50.484  33.754  52.196  0.00  0.00     0.047 A 
ATOM     11  C   UNL d   1      50.573  34.869  53.405  0.00  0.00     0.047 A 
ATOM     12  C   UNL d   1      49.923  34.905  52.879  0.00  0.00     0.118 A 
ATOM     13  C   UNL d   1      49.900  34.330  52.275  0.00  0.00     0.118 A 
ATOM     14  C   UNL d   1      53.390  33.911  54.873  0.00  0.00     0.003 A 
ATOM     15  C   UNL d   1      54.132  32.626  54.210  0.00  0.00     0.018 A 
ATOM     16  C   UNL d   1      54.097  33.631  55.201  0.00  0.00     0.000 A 
ATOM     17  C   UNL d   1      54.473  32.979  54.864  0.00  0.00     0.002 A 
ENDROOT
BRANCH   3  18
ATOM     18  C   UNL d   1      53.162  32.018  52.754  0.00  0.00     0.082 C 
ATOM     19  C   UNL d   1      52.896  31.261  52.945  0.00  0.00     0.021 C 
ENDBRANCH   3  18
BRANCH  13  20
ATOM     20  O   UNL d   1      49.281  34.344  51.753  0.00  0.00    -0.326 OA
ATOM     21  C   UNL d   1      49.392  34.161  50.952  0.00  0.00     0.181 C 
ENDBRANCH  13  20
BRANCH  12  22
ATOM     22  O   UNL d   1      49.331  35.495  52.964  0.00  0.00    -0.326 OA
ATOM     23  C   UNL d   1      48.997  35.641  53.715  0.00  0.00     0.181 C 
ENDBRANCH  12  22
TORSDOF 3
ENDMDL
MODEL 4
REMARK VINA RESULT:      -7.2      1.967      4.342
REMARK  3 active torsions:
REMARK  status: ('A' for Active; 'I' for Inactive)
REMARK    1  A    between atoms: C_14  and  N_3 
REMARK    2  A    between atoms: O_17  and  C_12 
REMARK    3  A    between atoms: O_16  and  C_13 
ROOT
ATOM      1  C   UNL d   1      52.769  32.137  53.492  0.00  0.00     0.166 A 
ATOM      2  C   UNL d   1      53.418  31.697  53.814  0.00  0.00     0.117 A 
ATOM      3  N   UNL d   1      52.283  31.603  53.082  0.00  0.00    -0.289 N 
ATOM      4  N   UNL d   1      52.740  32.962  53.636  0.00  0.00    -0.225 NA
ATOM      5  N   UNL d   1      53.996  32.077  54.252  0.00  0.00    -0.241 NA
ATOM      6  C   UNL d   1      53.299  30.917  53.586  0.00  0.00     0.037 A 
ATOM      7  C   UNL d   1      52.608  30.860  53.140  0.00  0.00     0.067 A 
ATOM      8  C   UNL d   1      53.315  33.341  54.072  0.00  0.00     0.103 A 
ATOM      9  C   UNL d   1      53.943  32.899  54.380  0.00  0.00     0.101 A 
ATOM     10  C   UNL d   1      53.261  34.135  54.194  0.00  0.00     0.047 A 
ATOM     11  C   UNL d   1      54.521  33.277  54.818  0.00  0.00     0.047 A 
ATOM     12  C   UNL d   1      54.492  34.102  54.962  0.00  0.00     0.118 A 
ATOM     13  C   UNL d   1      53.844  34.515  54.635  0.00  0.00     0.118 A 
ATOM     14  C   UNL d   1      53.749  30.238  53.735  0.00  0.00     0.003 A 
ATOM     15  C   UNL d   1      52.386  30.125  52.857  0.00  0.00     0.018 A 
ATOM     16  C   UNL d   1      53.511  29.502  53.441  0.00  0.00     0.000 A 
ATOM     17  C   UNL d   1      52.819  29.445  52.995  0.00  0.00     0.002 A 
ENDROOT
BRANCH   3  18
ATOM     18  C   UNL d   1      51.601  31.794  52.691  0.00  0.00     0.082 C 
ATOM     19  C   UNL d   1      50.918  31.979  53.117  0.00  0.00     0.021 C 
ENDBRANCH   3  18
BRANCH  13  20
ATOM     20  O   UNL d   1      53.794  35.313  54.760  0.00  0.00    -0.326 OA
ATOM     21  C   UNL d   1      53.116  35.738  54.544  0.00  0.00     0.181 C 
ENDBRANCH  13  20
BRANCH  12  22
ATOM     22  O   UNL d   1      55.090  34.483  55.412  0.00  0.00    -0.326 OA
ATOM     23  C   UNL d   1      55.846  34.137  55.473  0.00  0.00     0.181 C 
ENDBRANCH  12  22
TORSDOF 3
ENDMDL
MODEL 5
REMARK VINA RESULT:      -6.9      9.401      9.688
REMARK  3 active torsions:
REMARK  status: ('A' for Active; 'I' for Inactive)
REMARK    1  A    between atoms: C_14  and  N_3 
REMARK    2  A    between atoms: O_17  and  C_12 
REMARK    3  A    between atoms: O_16  and  C_13 
ROOT
ATOM      1  C   UNL d   1      44.961  29.662  57.972  0.00  0.00     0.166 A 
ATOM      2  C   UNL d   1      44.737  29.688  57.156  0.00  0.00     0.117 A 
ATOM      3  N   UNL d   1      44.973  30.444  58.254  0.00  0.00    -0.289 N 
ATOM      4  N   UNL d   1      45.115  28.914  58.317  0.00  0.00    -0.225 NA
ATOM      5  N   UNL d   1      44.676  28.996  56.723  0.00  0.00    -0.241 NA
ATOM      6  C   UNL d   1      44.624  30.481  56.976  0.00  0.00     0.037 A 
ATOM      7  C   UNL d   1      44.768  30.942  57.645  0.00  0.00     0.067 A 
ATOM      8  C   UNL d   1      45.054  28.224  57.888  0.00  0.00     0.103 A 
ATOM      9  C   UNL d   1      44.835  28.264  57.091  0.00  0.00     0.101 A 
ATOM     10  C   UNL d   1      45.208  27.520  58.245  0.00  0.00     0.047 A 
ATOM     11  C   UNL d   1      44.774  27.573  56.657  0.00  0.00     0.047 A 
ATOM     12  C   UNL d   1      44.928  26.826  57.002  0.00  0.00     0.118 A 
ATOM     13  C   UNL d   1      45.146  26.824  57.808  0.00  0.00     0.118 A 
ATOM     14  C   UNL d   1      44.402  30.846  56.267  0.00  0.00     0.003 A 
ATOM     15  C   UNL d   1      44.686  31.753  57.585  0.00  0.00     0.018 A 
ATOM     16  C   UNL d   1      44.324  31.669  56.223  0.00  0.00     0.000 A 
ATOM     17  C   UNL d   1      44.468  32.130  56.892  0.00  0.00     0.002 A 
ENDROOT
BRANCH   3  18
ATOM     18  C   UNL d   1      45.160  30.668  59.009  0.00  0.00     0.082 C 
ATOM     19  C   UNL d   1      44.564  30.745  59.576  0.00  0.00     0.021 C 
ENDBRANCH   3  18
BRANCH  13  20
ATOM     20  O   UNL d   1      45.300  26.114  58.163  0.00  0.00    -0.326 OA
ATOM     21  C   UNL d   1      45.091  25.977  58.954  0.00  0.00     0.181 C 
ENDBRANCH  13  20
BRANCH  12  22
ATOM     22  O   UNL d   1      44.863  26.120  56.551  0.00  0.00    -0.326 OA
ATOM     23  C   UNL d   1      44.382  26.108  55.869  0.00  0.00     0.181 C 
ENDBRANCH  12  22
TORSDOF 3
ENDMDL
MODEL 6
REMARK VINA RESULT:      -6.9      2.143      4.079
REMARK  3 active torsions:
REMARK  status: ('A' for Active; 'I' for Inactive)
REMARK    1  A    between atoms: C_14  and  N_3 
REMARK    2  A    between atoms: O_17  and  C_12 
REMARK    3  A    between atoms: O_16  and  C_13 
ROOT
ATOM      1  C   UNL d   1      53.271  32.449  53.649  0.00  0.00     0.166 A 
ATOM      2  C   UNL d   1      52.598  32.065  53.306  0.00  0.00     0.117 A 
ATOM      3  N   UNL d   1      53.865  31.875  53.742  0.00  0.00    -0.289 N 
ATOM      4  N   UNL d   1      53.217  33.267  53.818  0.00  0.00    -0.225 NA
ATOM      5  N   UNL d   1      51.918  32.492  53.147  0.00  0.00    -0.241 NA
ATOM      6  C   UNL d   1      52.811  31.279  53.204  0.00  0.00     0.037 A 
ATOM      7  C   UNL d   1      53.583  31.163  53.470  0.00  0.00     0.067 A 
ATOM      8  C   UNL d   1      52.540  33.693  53.660  0.00  0.00     0.103 A 
ATOM      9  C   UNL d   1      51.890  33.306  53.325  0.00  0.00     0.101 A 
ATOM     10  C   UNL d   1      52.517  34.479  53.833  0.00  0.00     0.047 A 
ATOM     11  C   UNL d   1      51.210  33.731  53.165  0.00  0.00     0.047 A 
ATOM     12  C   UNL d   1      51.156  34.550  53.334  0.00  0.00     0.118 A 
ATOM     13  C   UNL d   1      51.831  34.907  53.672  0.00  0.00     0.118 A 
ATOM     14  C   UNL d   1      52.384  30.641  52.895  0.00  0.00     0.003 A 
ATOM     15  C   UNL d   1      53.905  30.413  53.419  0.00  0.00     0.018 A 
ATOM     16  C   UNL d   1      52.725  29.888  52.850  0.00  0.00     0.000 A 
ATOM     17  C   UNL d   1      53.497  29.772  53.116  0.00  0.00     0.002 A 
ENDROOT
BRANCH   3  18
ATOM     18  C   UNL d   1      54.601  32.008  54.052  0.00  0.00     0.082 C 
ATOM     19  C   UNL d   1      55.128  32.511  53.663  0.00  0.00     0.021 C 
ENDBRANCH   3  18
BRANCH  13  20
ATOM     20  O   UNL d   1      51.803  35.697  53.845  0.00  0.00    -0.326 OA
ATOM     21  C   UNL d   1      52.334  36.036  54.385  0.00  0.00     0.181 C 
ENDBRANCH  13  20
BRANCH  12  22
ATOM     22  O   UNL d   1      50.454  34.980  53.168  0.00  0.00    -0.326 OA
ATOM     23  C   UNL d   1      49.849  34.626  52.715  0.00  0.00     0.181 C 
ENDBRANCH  12  22
TORSDOF 3
ENDMDL
MODEL 7
REMARK VINA RESULT:      -6.7     10.221     11.017
REMARK  3 active torsions:
REMARK  status: ('A' for Active; 'I' for Inactive)
REMARK    1  A    between atoms: C_14  and  N_3 
REMARK    2  A    between atoms: O_17  and  C_12 
REMARK    3  A    between atoms: O_16  and  C_13 
ROOT
ATOM      1  C   UNL d   1      44.700  29.042  58.894  0.00  0.00     0.166 A 
ATOM      2  C   UNL d   1      44.692  29.868  58.706  0.00  0.00     0.117 A 
ATOM      3  N   UNL d   1      44.708  28.622  58.176  0.00  0.00    -0.289 N 
ATOM      4  N   UNL d   1      44.699  28.820  59.701  0.00  0.00    -0.225 NA
ATOM      5  N   UNL d   1      44.683  30.426  59.304  0.00  0.00    -0.241 NA
ATOM      6  C   UNL d   1      44.695  29.915  57.886  0.00  0.00     0.037 A 
ATOM      7  C   UNL d   1      44.704  29.156  57.563  0.00  0.00     0.067 A 
ATOM      8  C   UNL d   1      44.690  29.375  60.298  0.00  0.00     0.103 A 
ATOM      9  C   UNL d   1      44.682  30.178  60.100  0.00  0.00     0.101 A 
ATOM     10  C   UNL d   1      44.689  29.131  61.065  0.00  0.00     0.047 A 
ATOM     11  C   UNL d   1      44.673  30.737  60.697  0.00  0.00     0.047 A 
ATOM     12  C   UNL d   1      44.672  30.515  61.505  0.00  0.00     0.118 A 
ATOM     13  C   UNL d   1      44.680  29.695  61.666  0.00  0.00     0.118 A 
ATOM     14  C   UNL d   1      44.690  30.574  57.384  0.00  0.00     0.003 A 
ATOM     15  C   UNL d   1      44.709  29.078  56.749  0.00  0.00     0.018 A 
ATOM     16  C   UNL d   1      44.695  30.477  56.562  0.00  0.00     0.000 A 
ATOM     17  C   UNL d   1      44.704  29.718  56.240  0.00  0.00     0.002 A 
ENDROOT
BRANCH   3  18
ATOM     18  C   UNL d   1      44.717  27.816  58.105  0.00  0.00     0.082 C 
ATOM     19  C   UNL d   1      45.436  27.412  58.076  0.00  0.00     0.021 C 
ENDBRANCH   3  18
BRANCH  13  20
ATOM     20  O   UNL d   1      44.680  29.455  62.439  0.00  0.00    -0.326 OA
ATOM     21  C   UNL d   1      44.762  28.655  62.639  0.00  0.00     0.181 C 
ENDBRANCH  13  20
BRANCH  12  22
ATOM     22  O   UNL d   1      44.663  31.094  62.112  0.00  0.00    -0.326 OA
ATOM     23  C   UNL d   1      44.314  31.838  61.970  0.00  0.00     0.181 C 
ENDBRANCH  12  22
TORSDOF 3
ENDMDL
MODEL 8
REMARK VINA RESULT:      -6.6     10.862     11.434
REMARK  3 active torsions:
REMARK  status: ('A' for Active; 'I' for Inactive)
REMARK    1  A    between atoms: C_14  and  N_3 
REMARK    2  A    between atoms: O_17  and  C_12 
REMARK    3  A    between atoms: O_16  and  C_13 
ROOT
ATOM      1  C   UNL d   1      44.520  29.767  61.306  0.00  0.00     0.166 A 
ATOM      2  C   UNL d   1      44.493  30.607  61.197  0.00  0.00     0.117 A 
ATOM      3  N   UNL d   1      44.474  29.619  62.122  0.00  0.00    -0.289 N 
ATOM      4  N   UNL d   1      44.583  29.282  60.626  0.00  0.00    -0.225 NA
ATOM      5  N   UNL d   1      44.529  30.925  60.443  0.00  0.00    -0.241 NA
ATOM      6  C   UNL d   1      44.432  30.933  61.948  0.00  0.00     0.037 A 
ATOM      7  C   UNL d   1      44.421  30.331  62.512  0.00  0.00     0.067 A 
ATOM      8  C   UNL d   1      44.618  29.597  59.876  0.00  0.00     0.103 A 
ATOM      9  C   UNL d   1      44.591  30.419  59.784  0.00  0.00     0.101 A 
ATOM     10  C   UNL d   1      44.679  29.106  59.241  0.00  0.00     0.047 A 
ATOM     11  C   UNL d   1      44.626  30.739  59.032  0.00  0.00     0.047 A 
ATOM     12  C   UNL d   1      44.689  30.253  58.352  0.00  0.00     0.118 A 
ATOM     13  C   UNL d   1      44.714  29.429  58.484  0.00  0.00     0.118 A 
ATOM     14  C   UNL d   1      44.385  31.723  62.190  0.00  0.00     0.003 A 
ATOM     15  C   UNL d   1      44.362  30.537  63.301  0.00  0.00     0.018 A 
ATOM     16  C   UNL d   1      44.326  31.914  62.993  0.00  0.00     0.000 A 
ATOM     17  C   UNL d   1      44.314  31.312  63.557  0.00  0.00     0.002 A 
ENDROOT
BRANCH   3  18
ATOM     18  C   UNL d   1      44.481  28.887  62.468  0.00  0.00     0.082 C 
ATOM     19  C   UNL d   1      45.192  28.566  62.740  0.00  0.00     0.021 C 
ENDBRANCH   3  18
BRANCH  13  20
ATOM     20  O   UNL d   1      44.775  28.938  57.843  0.00  0.00    -0.326 OA
ATOM     21  C   UNL d   1      44.811  28.115  57.936  0.00  0.00     0.181 C 
ENDBRANCH  13  20
BRANCH  12  22
ATOM     22  O   UNL d   1      44.725  30.588  57.583  0.00  0.00    -0.326 OA
ATOM     23  C   UNL d   1      44.746  31.417  57.494  0.00  0.00     0.181 C 
ENDBRANCH  12  22
TORSDOF 3
ENDMDL
MODEL 9
REMARK VINA RESULT:      -6.4      9.425     10.298
REMARK  3 active torsions:
REMARK  status: ('A' for Active; 'I' for Inactive)
REMARK    1  A    between atoms: C_14  and  N_3 
REMARK    2  A    between atoms: O_17  and  C_12 
REMARK    3  A    between atoms: O_16  and  C_13 
ROOT
ATOM      1  C   UNL d   1      44.906  28.498  57.117  0.00  0.00     0.166 A 
ATOM      2  C   UNL d   1      44.896  28.391  57.958  0.00  0.00     0.117 A 
ATOM      3  N   UNL d   1      44.976  29.313  56.969  0.00  0.00    -0.289 N 
ATOM      4  N   UNL d   1      44.849  27.818  56.631  0.00  0.00    -0.225 NA
ATOM      5  N   UNL d   1      44.832  27.639  58.276  0.00  0.00    -0.241 NA
ATOM      6  C   UNL d   1      44.960  29.142  58.284  0.00  0.00     0.037 A 
ATOM      7  C   UNL d   1      45.008  29.703  57.681  0.00  0.00     0.067 A 
ATOM      8  C   UNL d   1      44.785  27.069  56.947  0.00  0.00     0.103 A 
ATOM      9  C   UNL d   1      44.776  26.980  57.769  0.00  0.00     0.101 A 
ATOM     10  C   UNL d   1      44.731  26.435  56.455  0.00  0.00     0.047 A 
ATOM     11  C   UNL d   1      44.712  26.230  58.089  0.00  0.00     0.047 A 
ATOM     12  C   UNL d   1      44.654  25.550  57.603  0.00  0.00     0.118 A 
ATOM     13  C   UNL d   1      44.666  25.679  56.778  0.00  0.00     0.118 A 
ATOM     14  C   UNL d   1      44.980  29.386  59.074  0.00  0.00     0.003 A 
ATOM     15  C   UNL d   1      45.075  30.492  57.888  0.00  0.00     0.018 A 
ATOM     16  C   UNL d   1      45.048  30.188  59.266  0.00  0.00     0.000 A 
ATOM     17  C   UNL d   1      45.096  30.750  58.664  0.00  0.00     0.002 A 
ENDROOT
BRANCH   3  18
ATOM     18  C   UNL d   1      45.006  29.656  56.237  0.00  0.00     0.082 C 
ATOM     19  C   UNL d   1      44.314  29.930  55.880  0.00  0.00     0.021 C 
ENDBRANCH   3  18
BRANCH  13  20
ATOM     20  O   UNL d   1      44.612  25.039  56.287  0.00  0.00    -0.326 OA
ATOM     21  C   UNL d   1      44.567  25.132  55.464  0.00  0.00     0.181 C 
ENDBRANCH  13  20
BRANCH  12  22
ATOM     22  O   UNL d   1      44.588  24.783  57.938  0.00  0.00    -0.326 OA
ATOM     23  C   UNL d   1      44.462  24.700  58.758  0.00  0.00     0.181 C 
ENDBRANCH  12  22
TORSDOF 3
ENDMDL
