MODEL 1
REMARK VINA RESULT:      -9.7      0.000      0.000
REMARK  4 active torsions:
REMARK  status: ('A' for Active; 'I' for Inactive)
REMARK    1  A    between atoms: N_2  and  C_1 
REMARK    2  A    between atoms: N_11  and  C_6 
REMARK    3  A    between atoms: C_13  and  N_11 
REMARK    4  A    between atoms: O_20  and  C_14 
ROOT
ATOM      1  C   UNL d   1      52.328  33.487  53.473  0.00  0.00     0.752 A 
ATOM      2  N   UNL d   1      52.666  32.814  53.134  0.00  0.00    -0.040 NA
ATOM      3  C   UNL d   1      53.395  32.540  53.396  0.00  0.00     0.182 A 
ATOM      4  N   UNL d   1      52.727  33.883  54.079  0.00  0.00    -0.059 NA
ATOM      5  C   UNL d   1      53.794  32.936  54.002  0.00  0.00     0.059 A 
ATOM      6  C   UNL d   1      53.459  33.610  54.345  0.00  0.00     0.103 A 
ATOM      7  C   UNL d   1      53.858  34.007  54.950  0.00  0.00     0.021 C 
ENDROOT
BRANCH   3   8
ATOM      8  N   UNL d   1      53.731  31.870  53.058  0.00  0.00    -0.226 NA
BRANCH   8   9
ATOM      9  C   UNL d   1      53.530  31.114  53.331  0.00  0.00     0.083 A 
ATOM     10  C   UNL d   1      52.945  30.685  52.928  0.00  0.00     0.021 A 
ATOM     11  C   UNL d   1      52.746  29.927  53.203  0.00  0.00     0.026 A 
ATOM     12  C   UNL d   1      53.122  29.610  53.862  0.00  0.00     0.094 A 
ATOM     13  C   UNL d   1      53.702  30.047  54.255  0.00  0.00     0.026 A 
ATOM     14  C   UNL d   1      53.908  30.801  53.990  0.00  0.00     0.021 A 
BRANCH  12  15
ATOM     15  O   UNL d   1      52.921  28.863  54.128  0.00  0.00    -0.328 OA
ATOM     16  C   UNL d   1      53.307  28.538  54.774  0.00  0.00     0.181 C 
ENDBRANCH  12  15
ENDBRANCH   8   9
ENDBRANCH   3   8
BRANCH   1  17
ATOM     17  N   UNL d   1      51.671  33.742  53.243  0.00  0.00    -0.058 N 
ATOM     18  N   UNL d   1      50.376  33.769  53.352  0.00  0.00    -0.151 NA
ATOM     19  C   UNL d   1      50.342  34.262  52.774  0.00  0.00     0.103 A 
ATOM     20  C   UNL d   1      49.681  34.519  52.541  0.00  0.00     0.022 C 
ATOM     21  C   UNL d   1      50.976  34.485  52.442  0.00  0.00     0.041 A 
ATOM     22  C   UNL d   1      51.638  34.230  52.672  0.00  0.00     0.102 A 
ATOM     23  C   UNL d   1      52.275  34.455  52.337  0.00  0.00     0.021 C 
ENDBRANCH   1  17
TORSDOF 4
ENDMDL
MODEL 2
REMARK VINA RESULT:      -9.2      1.762      4.186
REMARK  4 active torsions:
REMARK  status: ('A' for Active; 'I' for Inactive)
REMARK    1  A    between atoms: N_2  and  C_1 
REMARK    2  A    between atoms: N_11  and  C_6 
REMARK    3  A    between atoms: C_13  and  N_11 
REMARK    4  A    between atoms: O_20  and  C_14 
ROOT
ATOM      1  C   UNL d   1      53.648  32.273  53.884  0.00  0.00     0.752 A 
ATOM      2  N   UNL d   1      53.125  32.605  53.337  0.00  0.00    -0.040 NA
ATOM      3  C   UNL d   1      52.663  32.122  52.860  0.00  0.00     0.182 A 
ATOM      4  N   UNL d   1      53.703  31.450  53.948  0.00  0.00    -0.059 NA
ATOM      5  C   UNL d   1      52.719  31.300  52.923  0.00  0.00     0.059 A 
ATOM      6  C   UNL d   1      53.240  30.963  53.469  0.00  0.00     0.103 A 
ATOM      7  C   UNL d   1      53.295  30.140  53.533  0.00  0.00     0.021 C 
ENDROOT
BRANCH   3   8
ATOM      8  N   UNL d   1      52.143  32.454  52.316  0.00  0.00    -0.226 NA
BRANCH   8   9
ATOM      9  C   UNL d   1      51.621  33.055  52.544  0.00  0.00     0.083 A 
ATOM     10  C   UNL d   1      51.748  33.825  52.261  0.00  0.00     0.021 A 
ATOM     11  C   UNL d   1      51.222  34.425  52.492  0.00  0.00     0.026 A 
ATOM     12  C   UNL d   1      50.589  34.259  52.990  0.00  0.00     0.094 A 
ATOM     13  C   UNL d   1      50.473  33.488  53.264  0.00  0.00     0.026 A 
ATOM     14  C   UNL d   1      50.989  32.883  53.041  0.00  0.00     0.021 A 
BRANCH  12  15
ATOM     15  O   UNL d   1      50.076  34.854  53.212  0.00  0.00    -0.328 OA
ATOM     16  C   UNL d   1      49.372  34.965  52.806  0.00  0.00     0.181 C 
ENDBRANCH  12  15
ENDBRANCH   8   9
ENDBRANCH   3   8
BRANCH   1  17
ATOM     17  N   UNL d   1      54.069  32.700  54.319  0.00  0.00    -0.058 N 
ATOM     18  N   UNL d   1      54.264  33.297  55.458  0.00  0.00    -0.151 NA
ATOM     19  C   UNL d   1      54.925  33.567  55.198  0.00  0.00     0.103 A 
ATOM     20  C   UNL d   1      55.350  33.997  55.635  0.00  0.00     0.022 C 
ATOM     21  C   UNL d   1      55.145  33.397  54.502  0.00  0.00     0.041 A 
ATOM     22  C   UNL d   1      54.723  32.967  54.062  0.00  0.00     0.102 A 
ATOM     23  C   UNL d   1      54.945  32.797  53.361  0.00  0.00     0.021 C 
ENDBRANCH   1  17
TORSDOF 4
ENDMDL
MODEL 3
REMARK VINA RESULT:      -8.6      1.688      4.103
REMARK  4 active torsions:
REMARK  status: ('A' for Active; 'I' for Inactive)
REMARK    1  A    between atoms: N_2  and  C_1 
REMARK    2  A    between atoms: N_11  and  C_6 
REMARK    3  A    between atoms: C_13  and  N_11 
REMARK    4  A    between atoms: O_20  and  C_14 
ROOT
ATOM      1  C   UNL d   1      53.356  32.327  53.886  0.00  0.00     0.752 A 
ATOM      2  N   UNL d   1      53.050  32.926  53.406  0.00  0.00    -0.040 NA
ATOM      3  C   UNL d   1      53.189  33.715  53.590  0.00  0.00     0.182 A 
ATOM      4  N   UNL d   1      53.803  32.526  54.552  0.00  0.00    -0.059 NA
ATOM      5  C   UNL d   1      53.636  33.914  54.256  0.00  0.00     0.059 A 
ATOM      6  C   UNL d   1      53.944  33.317  54.739  0.00  0.00     0.103 A 
ATOM      7  C   UNL d   1      54.391  33.516  55.406  0.00  0.00     0.021 C 
ENDROOT
BRANCH   3   8
ATOM      8  N   UNL d   1      52.885  34.311  53.112  0.00  0.00    -0.226 NA
BRANCH   8   9
ATOM      9  C   UNL d   1      52.073  34.348  52.950  0.00  0.00     0.083 A 
ATOM     10  C   UNL d   1      51.804  34.126  52.197  0.00  0.00     0.021 A 
ATOM     11  C   UNL d   1      50.990  34.164  52.037  0.00  0.00     0.026 A 
ATOM     12  C   UNL d   1      50.462  34.417  52.614  0.00  0.00     0.094 A 
ATOM     13  C   UNL d   1      50.742  34.636  53.361  0.00  0.00     0.026 A 
ATOM     14  C   UNL d   1      51.549  34.601  53.530  0.00  0.00     0.021 A 
BRANCH  12  15
ATOM     15  O   UNL d   1      49.662  34.452  52.450  0.00  0.00    -0.328 OA
ATOM     16  C   UNL d   1      49.404  34.538  51.677  0.00  0.00     0.181 C 
ENDBRANCH  12  15
ENDBRANCH   8   9
ENDBRANCH   3   8
BRANCH   1  17
ATOM     17  N   UNL d   1      53.237  31.613  53.728  0.00  0.00    -0.058 N 
ATOM     18  N   UNL d   1      52.469  30.565  53.778  0.00  0.00    -0.151 NA
ATOM     19  C   UNL d   1      52.999  30.165  53.407  0.00  0.00     0.103 A 
ATOM     20  C   UNL d   1      52.879  29.446  53.247  0.00  0.00     0.022 C 
ATOM     21  C   UNL d   1      53.637  30.499  53.203  0.00  0.00     0.041 A 
ATOM     22  C   UNL d   1      53.760  31.218  53.360  0.00  0.00     0.102 A 
ATOM     23  C   UNL d   1      54.404  31.553  53.155  0.00  0.00     0.021 C 
ENDBRANCH   1  17
TORSDOF 4
ENDMDL
MODEL 4
REMARK VINA RESULT:      -8.5      0.990      2.722
REMARK  4 active torsions:
REMARK  status: ('A' for Active; 'I' for Inactive)
REMARK    1  A    between atoms: N_2  and  C_1 
REMARK    2  A    between atoms: N_11  and  C_6 
REMARK    3  A    between atoms: C_13  and  N_11 
REMARK    4  A    between atoms: O_20  and  C_14 
ROOT
ATOM      1  C   UNL d   1      53.423  33.194  53.658  0.00  0.00     0.752 A 
ATOM      2  N   UNL d   1      53.398  32.449  53.300  0.00  0.00    -0.040 NA
ATOM      3  C   UNL d   1      52.755  32.234  52.837  0.00  0.00     0.182 A 
ATOM      4  N   UNL d   1      52.796  33.721  53.548  0.00  0.00    -0.059 NA
ATOM      5  C   UNL d   1      52.128  32.761  52.726  0.00  0.00     0.059 A 
ATOM      6  C   UNL d   1      52.148  33.507  53.083  0.00  0.00     0.103 A 
ATOM      7  C   UNL d   1      51.521  34.034  52.972  0.00  0.00     0.021 C 
ENDROOT
BRANCH   3   8
ATOM      8  N   UNL d   1      52.731  31.494  52.481  0.00  0.00    -0.226 NA
BRANCH   8   9
ATOM      9  C   UNL d   1      52.817  30.805  52.933  0.00  0.00     0.083 A 
ATOM     10  C   UNL d   1      52.143  30.466  53.279  0.00  0.00     0.021 A 
ATOM     11  C   UNL d   1      52.232  29.775  53.732  0.00  0.00     0.026 A 
ATOM     12  C   UNL d   1      52.973  29.436  53.835  0.00  0.00     0.094 A 
ATOM     13  C   UNL d   1      53.637  29.783  53.486  0.00  0.00     0.026 A 
ATOM     14  C   UNL d   1      53.560  30.469  53.034  0.00  0.00     0.021 A 
BRANCH  12  15
ATOM     15  O   UNL d   1      53.054  28.756  54.282  0.00  0.00    -0.328 OA
ATOM     16  C   UNL d   1      53.402  28.790  55.024  0.00  0.00     0.181 C 
ENDBRANCH  12  15
ENDBRANCH   8   9
ENDBRANCH   3   8
BRANCH   1  17
ATOM     17  N   UNL d   1      53.999  33.397  54.078  0.00  0.00    -0.058 N 
ATOM     18  N   UNL d   1      55.260  33.691  54.189  0.00  0.00    -0.151 NA
ATOM     19  C   UNL d   1      55.163  33.809  54.933  0.00  0.00     0.103 A 
ATOM     20  C   UNL d   1      55.742  34.014  55.357  0.00  0.00     0.022 C 
ATOM     21  C   UNL d   1      54.483  33.718  55.235  0.00  0.00     0.041 A 
ATOM     22  C   UNL d   1      53.902  33.514  54.815  0.00  0.00     0.102 A 
ATOM     23  C   UNL d   1      53.219  33.423  55.121  0.00  0.00     0.021 C 
ENDBRANCH   1  17
TORSDOF 4
ENDMDL
