MODEL 1
REMARK VINA RESULT:      66.0      0.000      0.000
REMARK  10 active torsions:
REMARK  status: ('A' for Active; 'I' for Inactive)
REMARK    1  A    between atoms: N_11  and  C_1 
REMARK    2  A    between atoms: C_12  and  C_2 
REMARK    3  A    between atoms: C_4  and  S_15 
REMARK    4  A    between atoms: C_18  and  C_6 
REMARK       I    between atoms: C_16  and  N_11 
REMARK    5  A    between atoms: O_28  and  C_12 
REMARK       I    between atoms: C_13  and  N_17 
REMARK    6  A    between atoms: C_14  and  C_13 
REMARK    7  A    between atoms: S_15  and  C_26 
REMARK    8  A    between atoms: C_26  and  C_16 
REMARK    9  A    between atoms: N_17  and  C_18 
REMARK   10  A    between atoms: C_32  and  O_28 
ROOT
ATOM      1  C   UNL d   1      14.057  14.970  -3.521  0.00  0.00     0.101 C 
ENDROOT
BRANCH   1   2
ATOM      2  S   UNL d   1      13.697  15.326  -4.110  0.00  0.00    -0.043 SA
BRANCH   2   3
ATOM      3  C   UNL d   1      14.074  16.007  -4.414  0.00  0.00     0.202 A 
ATOM      4  N   UNL d   1      13.721  16.440  -5.026  0.00  0.00    -0.265 N 
ATOM      5  C   UNL d   1      14.218  17.074  -5.206  0.00  0.00     0.190 A 
ATOM      6  C   UNL d   1      12.981  16.265  -5.404  0.00  0.00     0.103 C 
ATOM      7  N   UNL d   1      14.883  17.038  -4.705  0.00  0.00    -0.126 NA
ATOM      8  N   UNL d   1      14.794  16.380  -4.217  0.00  0.00    -0.121 NA
BRANCH   5   9
ATOM      9  C   UNL d   1      14.084  17.649  -5.783  0.00  0.00     0.141 C 
BRANCH   9  10
ATOM     10  N   UNL d   1      14.409  18.400  -5.704  0.00  0.00    -0.202 NA
ATOM     11  C   UNL d   1      14.014  19.059  -6.005  0.00  0.00     0.302 C 
ATOM     12  O   UNL d   1      13.287  18.959  -6.388  0.00  0.00    -0.263 OA
BRANCH  11  13
ATOM     13  C   UNL d   1      14.346  19.826  -5.925  0.00  0.00     0.158 A 
ATOM     14  O   UNL d   1      15.172  20.010  -5.814  0.00  0.00    -0.300 OA
ATOM     15  C   UNL d   1      15.247  20.853  -5.761  0.00  0.00     0.123 A 
ATOM     16  C   UNL d   1      14.471  21.195  -5.838  0.00  0.00     0.029 A 
ATOM     17  C   UNL d   1      13.916  20.563  -5.939  0.00  0.00     0.032 A 
ENDBRANCH  11  13
ENDBRANCH   9  10
ENDBRANCH   5   9
ENDBRANCH   2   3
ENDBRANCH   1   2
BRANCH   1  18
ATOM     18  C   UNL d   1      14.061  14.126  -3.294  0.00  0.00     0.286 C 
ATOM     19  N   UNL d   1      14.345  13.860  -2.366  0.00  0.00    -0.201 NA
ATOM     20  O   UNL d   1      13.843  13.571  -3.817  0.00  0.00    -0.265 OA
BRANCH  19  21
ATOM     21  C   UNL d   1      14.576  14.450  -1.810  0.00  0.00     0.119 A 
ATOM     22  C   UNL d   1      14.573  14.298  -1.077  0.00  0.00     0.088 A 
ATOM     23  C   UNL d   1      14.988  15.495  -0.811  0.00  0.00     0.013 A 
ATOM     24  C   UNL d   1      15.189  16.003  -0.310  0.00  0.00     0.001 A 
ATOM     25  C   UNL d   1      14.991  15.647  -1.548  0.00  0.00     0.031 A 
ATOM     26  C   UNL d   1      15.403  16.691  -0.541  0.00  0.00     0.001 A 
ATOM     27  C   UNL d   1      15.406  16.844  -1.283  0.00  0.00     0.006 A 
ATOM     28  S   UNL d   1      14.789  15.134  -2.046  0.00  0.00    -0.068 SA
BRANCH  22  29
ATOM     29  C   UNL d   1      14.387  13.654  -0.645  0.00  0.00     0.302 C 
ATOM     30  O   UNL d   1      13.706  13.571  -0.417  0.00  0.00    -0.259 OA
BRANCH  29  31
ATOM     31  O   UNL d   1      14.988  13.098  -0.474  0.00  0.00    -0.271 OA
BRANCH  31  32
ATOM     32  C   UNL d   1      15.027  12.313  -0.192  0.00  0.00     0.126 C 
ATOM     33  C   UNL d   1      15.628  11.783  -0.014  0.00  0.00     0.029 C 
ENDBRANCH  31  32
ENDBRANCH  29  31
ENDBRANCH  22  29
ENDBRANCH  19  21
ENDBRANCH   1  18
TORSDOF 10
ENDMDL
