MODEL 1
REMARK VINA RESULT:      39.2      0.000      0.000
REMARK  5 active torsions:
REMARK  status: ('A' for Active; 'I' for Inactive)
REMARK    1  A    between atoms: C_4  and  S_1 
REMARK    2  A    between atoms: N_6  and  S_1 
REMARK    3  A    between atoms: C_3  and  C_2 
REMARK    4  A    between atoms: C_10  and  N_6 
REMARK    5  A    between atoms: C_17  and  C_10 
ROOT
ATOM      1  C   UNL d   1      57.831  49.519  50.451  0.00  0.00     0.083 A 
ATOM      2  C   UNL d   1      59.224  49.474  50.792  0.00  0.00     0.105 A 
ATOM      3  C   UNL d   1      58.431  49.440  51.021  0.00  0.00     0.018 A 
ATOM      4  C   UNL d   1      58.029  49.630  49.657  0.00  0.00     0.062 A 
ATOM      5  C   UNL d   1      59.419  49.585  50.002  0.00  0.00     0.014 A 
ATOM      6  C   UNL d   1      58.819  49.663  49.431  0.00  0.00     0.012 A 
ATOM      7 CL   UNL d   1      57.435  49.708  49.091  0.00  0.00    -0.082 Cl
ENDROOT
BRANCH   2   8
ATOM      8  S   UNL d   1      59.825  49.397  51.352  0.00  0.00     0.285 S 
ATOM      9  O   UNL d   1      60.423  49.318  51.900  0.00  0.00    -0.198 OA
ATOM     10  O   UNL d   1      59.338  49.707  51.928  0.00  0.00    -0.198 OA
BRANCH   8  11
ATOM     11  N   UNL d   1      60.319  49.083  50.772  0.00  0.00    -0.155 NA
BRANCH  11  12
ATOM     12  C   UNL d   1      61.034  48.721  50.988  0.00  0.00     0.137 C 
BRANCH  12  13
ATOM     13  C   UNL d   1      61.211  47.967  50.707  0.00  0.00     0.120 A 
ATOM     14  O   UNL d   1      61.367  47.750  49.922  0.00  0.00    -0.304 OA
ATOM     15  C   UNL d   1      61.514  46.945  49.906  0.00  0.00     0.123 A 
ATOM     16  C   UNL d   1      61.453  46.652  50.669  0.00  0.00     0.029 A 
ATOM     17  C   UNL d   1      61.265  47.281  51.169  0.00  0.00     0.028 A 
ENDBRANCH  12  13
ENDBRANCH  11  12
ENDBRANCH   8  11
ENDBRANCH   2   8
BRANCH   1  18
ATOM     18  C   UNL d   1      57.042  49.485  50.676  0.00  0.00     0.420 C 
ATOM     19  F   UNL d   1      56.332  49.594  50.194  0.00  0.00    -0.166 F 
ATOM     20  F   UNL d   1      56.311  49.455  50.883  0.00  0.00    -0.166 F 
ATOM     21  F   UNL d   1      56.702  49.333  51.452  0.00  0.00    -0.166 F 
ENDBRANCH   1  18
TORSDOF 5
ENDMDL
MODEL 2
REMARK VINA RESULT:      40.8      2.642      4.086
REMARK  5 active torsions:
REMARK  status: ('A' for Active; 'I' for Inactive)
REMARK    1  A    between atoms: C_4  and  S_1 
REMARK    2  A    between atoms: N_6  and  S_1 
REMARK    3  A    between atoms: C_3  and  C_2 
REMARK    4  A    between atoms: C_10  and  N_6 
REMARK    5  A    between atoms: C_17  and  C_10 
ROOT
ATOM      1  C   UNL d   1      60.723  48.176  51.137  0.00  0.00     0.083 A 
ATOM      2  C   UNL d   1      59.906  49.187  50.527  0.00  0.00     0.105 A 
ATOM      3  C   UNL d   1      60.245  48.434  50.506  0.00  0.00     0.018 A 
ATOM      4  C   UNL d   1      60.857  48.674  51.782  0.00  0.00     0.062 A 
ATOM      5  C   UNL d   1      60.041  49.680  51.170  0.00  0.00     0.014 A 
ATOM      6  C   UNL d   1      60.518  49.423  51.801  0.00  0.00     0.012 A 
ATOM      7 CL   UNL d   1      61.330  48.420  52.407  0.00  0.00    -0.082 Cl
ENDROOT
BRANCH   2   8
ATOM      8  S   UNL d   1      59.432  49.448  49.906  0.00  0.00     0.285 S 
ATOM      9  O   UNL d   1      58.956  49.706  49.296  0.00  0.00    -0.198 OA
ATOM     10  O   UNL d   1      60.087  49.525  49.427  0.00  0.00    -0.198 OA
BRANCH   8  11
ATOM     11  N   UNL d   1      58.767  49.372  50.387  0.00  0.00    -0.155 NA
BRANCH  11  12
ATOM     12  C   UNL d   1      58.139  48.883  50.154  0.00  0.00     0.137 C 
BRANCH  12  13
ATOM     13  C   UNL d   1      57.362  49.131  50.272  0.00  0.00     0.120 A 
ATOM     14  O   UNL d   1      56.883  48.974  50.931  0.00  0.00    -0.304 OA
ATOM     15  C   UNL d   1      56.157  49.329  50.807  0.00  0.00     0.123 A 
ATOM     16  C   UNL d   1      56.171  49.707  50.079  0.00  0.00     0.029 A 
ATOM     17  C   UNL d   1      56.915  49.587  49.744  0.00  0.00     0.028 A 
ENDBRANCH  12  13
ENDBRANCH  11  12
ENDBRANCH   8  11
ENDBRANCH   2   8
BRANCH   1  18
ATOM     18  C   UNL d   1      61.061  47.428  51.119  0.00  0.00     0.420 C 
ATOM     19  F   UNL d   1      60.984  46.781  51.687  0.00  0.00    -0.166 F 
ATOM     20  F   UNL d   1      61.373  46.736  51.104  0.00  0.00    -0.166 F 
ATOM     21  F   UNL d   1      61.585  47.081  50.532  0.00  0.00    -0.166 F 
ENDBRANCH   1  18
TORSDOF 5
ENDMDL
