MODEL 1
REMARK VINA RESULT:      -4.6      0.000      0.000
REMARK  7 active torsions:
REMARK  status: ('A' for Active; 'I' for Inactive)
REMARK    1  A    between atoms: N_2  and  S_1 
REMARK    2  A    between atoms: C_3  and  S_1 
REMARK    3  A    between atoms: C_16  and  N_2 
REMARK    4  A    between atoms: C_4  and  C_10 
REMARK       I    between atoms: N_7  and  C_4 
REMARK    5  A    between atoms: C_17  and  N_7 
REMARK    6  A    between atoms: C_9  and  C_17 
REMARK    7  A    between atoms: O_23  and  C_20 
ROOT
ATOM      1  C   UNL d   1      57.683   0.500  31.921  0.00  0.00     0.058 A 
ATOM      2  C   UNL d   1      58.111   0.337  30.337  0.00  0.00     0.094 A 
ATOM      3  C   UNL d   1      58.452   0.673  31.679  0.00  0.00     0.006 A 
ATOM      4  C   UNL d   1      57.127   0.243  31.368  0.00  0.00     0.006 A 
ATOM      5  C   UNL d   1      58.669   0.593  30.886  0.00  0.00     0.020 A 
ATOM      6  C   UNL d   1      57.335   0.160  30.575  0.00  0.00     0.020 A 
ENDROOT
BRANCH   2   7
ATOM      7  N   UNL d   1      58.321   0.255  29.550  0.00  0.00    -0.158 NA
BRANCH   7   8
ATOM      8  S   UNL d   1      58.798  -0.379  29.315  0.00  0.00     0.285 S 
ATOM      9  O   UNL d   1      59.475   0.075  29.464  0.00  0.00    -0.198 OA
ATOM     10  O   UNL d   1      58.131  -0.834  29.166  0.00  0.00    -0.198 OA
BRANCH   8  11
ATOM     11  C   UNL d   1      59.278  -1.005  29.084  0.00  0.00     0.107 A 
ATOM     12  C   UNL d   1      58.991  -1.777  29.122  0.00  0.00     0.037 A 
ATOM     13  C   UNL d   1      59.469  -2.416  28.889  0.00  0.00     0.095 A 
ATOM     14  C   UNL d   1      60.234  -2.271  28.620  0.00  0.00     0.024 A 
ATOM     15  C   UNL d   1      60.524  -1.499  28.581  0.00  0.00     0.003 A 
ATOM     16  C   UNL d   1      60.046  -0.865  28.813  0.00  0.00     0.013 A 
BRANCH  13  17
ATOM     17  O   UNL d   1      59.178  -3.199  28.928  0.00  0.00    -0.328 OA
ATOM     18  C   UNL d   1      59.609  -3.814  28.575  0.00  0.00     0.181 C 
ENDBRANCH  13  17
ENDBRANCH   8  11
ENDBRANCH   7   8
ENDBRANCH   2   7
BRANCH   1  19
ATOM     19  C   UNL d   1      57.462   0.581  32.722  0.00  0.00     0.279 C 
ATOM     20  N   UNL d   1      56.667   0.601  32.926  0.00  0.00    -0.204 NA
ATOM     21  O   UNL d   1      58.045   0.641  33.311  0.00  0.00    -0.265 OA
BRANCH  20  22
ATOM     22  C   UNL d   1      56.447   0.681  33.723  0.00  0.00     0.127 C 
BRANCH  22  23
ATOM     23  C   UNL d   1      55.641   0.643  33.936  0.00  0.00     0.119 A 
ATOM     24  O   UNL d   1      55.004   0.670  33.420  0.00  0.00    -0.304 OA
ATOM     25  C   UNL d   1      54.319   0.614  33.872  0.00  0.00     0.123 A 
ATOM     26  C   UNL d   1      54.537   0.554  34.654  0.00  0.00     0.029 A 
ATOM     27  C   UNL d   1      55.358   0.572  34.695  0.00  0.00     0.028 A 
ENDBRANCH  22  23
ENDBRANCH  20  22
ENDBRANCH   1  19
TORSDOF 7
ENDMDL
