MODEL 1
REMARK VINA RESULT:      -1.5      0.000      0.000
REMARK  4 active torsions:
REMARK  status: ('A' for Active; 'I' for Inactive)
REMARK    1  A    between atoms: C_11  and  C_3 
REMARK    2  A    between atoms: N_10  and  C_4 
REMARK    3  A    between atoms: C_15  and  N_10 
REMARK    4  A    between atoms: C_16  and  C_15 
ROOT
ATOM      1  C   UNL d   1      30.130  17.210 -24.352  0.00  0.00     0.167 A 
ATOM      2  N   UNL d   1      30.733  17.714 -24.674  0.00  0.00    -0.195 N 
ATOM      3  C   UNL d   1      29.350  17.425 -24.409  0.00  0.00     0.057 A 
ATOM      4  C   UNL d   1      31.502  17.488 -24.609  0.00  0.00     0.167 A 
ATOM      5  N   UNL d   1      29.729  18.625 -25.096  0.00  0.00    -0.161 NA
ATOM      6  N   UNL d   1      30.336  16.514 -23.986  0.00  0.00    -0.227 NA
ATOM      7  C   UNL d   1      31.721  16.785 -24.240  0.00  0.00     0.058 A 
ATOM      8  C   UNL d   1      29.144  18.137 -24.784  0.00  0.00     0.124 A 
ATOM      9  C   UNL d   1      31.127  16.289 -23.923  0.00  0.00     0.086 A 
ATOM     10  C   UNL d   1      31.346  15.554 -23.537  0.00  0.00     0.021 C 
ENDROOT
BRANCH   4  11
ATOM     11  N   UNL d   1      32.115  17.993 -24.932  0.00  0.00    -0.224 NA
BRANCH  11  12
ATOM     12  C   UNL d   1      32.905  18.287 -24.766  0.00  0.00     0.120 C 
BRANCH  12  13
ATOM     13  C   UNL d   1      33.012  19.087 -24.481  0.00  0.00     0.101 A 
ATOM     14  N   UNL d   1      33.014  19.233 -23.631  0.00  0.00    -0.242 NA
ATOM     15  C   UNL d   1      33.122  20.033 -23.347  0.00  0.00     0.099 A 
ATOM     16  C   UNL d   1      33.227  20.680 -23.903  0.00  0.00     0.021 A 
ATOM     17  C   UNL d   1      33.224  20.526 -24.744  0.00  0.00     0.003 A 
ATOM     18  C   UNL d   1      33.116  19.725 -25.029  0.00  0.00     0.021 A 
ENDBRANCH  12  13
ENDBRANCH  11  12
ENDBRANCH   4  11
BRANCH   3  19
ATOM     19  C   UNL d   1      28.765  16.936 -24.097  0.00  0.00     0.005 A 
ATOM     20  C   UNL d   1      28.486  16.308 -24.532  0.00  0.00     0.001 A 
ATOM     21  C   UNL d   1      27.902  15.820 -24.220  0.00  0.00     0.011 A 
ATOM     22  C   UNL d   1      27.604  15.968 -23.478  0.00  0.00     0.058 A 
ATOM     23  C   UNL d   1      27.892  16.604 -23.047  0.00  0.00     0.011 A 
ATOM     24 CL   UNL d   1      26.992  15.457 -23.151  0.00  0.00    -0.082 Cl
ATOM     25  C   UNL d   1      28.467  17.084 -23.354  0.00  0.00     0.001 A 
ENDBRANCH   3  19
TORSDOF 4
ENDMDL
MODEL 2
REMARK VINA RESULT:      -1.4      3.077      5.513
REMARK  4 active torsions:
REMARK  status: ('A' for Active; 'I' for Inactive)
REMARK    1  A    between atoms: C_11  and  C_3 
REMARK    2  A    between atoms: N_10  and  C_4 
REMARK    3  A    between atoms: C_15  and  N_10 
REMARK    4  A    between atoms: C_16  and  C_15 
ROOT
ATOM      1  C   UNL d   1      32.906  20.229 -22.540  0.00  0.00     0.167 A 
ATOM      2  N   UNL d   1      33.058  19.410 -22.703  0.00  0.00    -0.195 N 
ATOM      3  C   UNL d   1      32.874  20.490 -21.773  0.00  0.00     0.057 A 
ATOM      4  C   UNL d   1      33.087  19.167 -23.470  0.00  0.00     0.167 A 
ATOM      5  N   UNL d   1      33.137  19.160 -21.308  0.00  0.00    -0.161 NA
ATOM      6  N   UNL d   1      32.793  20.751 -23.153  0.00  0.00    -0.227 NA
ATOM      7  C   UNL d   1      32.974  19.687 -24.098  0.00  0.00     0.058 A 
ATOM      8  C   UNL d   1      32.990  19.954 -21.149  0.00  0.00     0.124 A 
ATOM      9  C   UNL d   1      32.825  20.493 -23.937  0.00  0.00     0.086 A 
ATOM     10  C   UNL d   1      32.706  21.043 -24.585  0.00  0.00     0.021 C 
ENDROOT
BRANCH   4  11
ATOM     11  N   UNL d   1      33.240  18.340 -23.640  0.00  0.00    -0.224 NA
BRANCH  11  12
ATOM     12  C   UNL d   1      33.084  17.732 -24.225  0.00  0.00     0.120 C 
BRANCH  12  13
ATOM     13  C   UNL d   1      32.751  16.981 -23.984  0.00  0.00     0.101 A 
ATOM     14  N   UNL d   1      33.239  16.432 -23.531  0.00  0.00    -0.242 NA
ATOM     15  C   UNL d   1      32.905  15.681 -23.290  0.00  0.00     0.099 A 
ATOM     16  C   UNL d   1      32.095  15.480 -23.498  0.00  0.00     0.021 A 
ATOM     17  C   UNL d   1      31.620  16.031 -23.947  0.00  0.00     0.003 A 
ATOM     18  C   UNL d   1      31.953  16.783 -24.188  0.00  0.00     0.021 A 
ENDBRANCH  12  13
ENDBRANCH  11  12
ENDBRANCH   4  11
BRANCH   3  19
ATOM     19  C   UNL d   1      32.726  21.285 -21.614  0.00  0.00     0.005 A 
ATOM     20  C   UNL d   1      32.068  21.497 -21.187  0.00  0.00     0.001 A 
ATOM     21  C   UNL d   1      31.920  22.291 -21.029  0.00  0.00     0.011 A 
ATOM     22  C   UNL d   1      32.434  22.861 -21.300  0.00  0.00     0.058 A 
ATOM     23  C   UNL d   1      33.096  22.636 -21.730  0.00  0.00     0.011 A 
ATOM     24 CL   UNL d   1      32.280  23.692 -21.133  0.00  0.00    -0.082 Cl
ATOM     25  C   UNL d   1      33.241  21.855 -21.886  0.00  0.00     0.001 A 
ENDBRANCH   3  19
TORSDOF 4
ENDMDL
MODEL 3
REMARK VINA RESULT:      -1.1      2.611      4.328
REMARK  4 active torsions:
REMARK  status: ('A' for Active; 'I' for Inactive)
REMARK    1  A    between atoms: C_11  and  C_3 
REMARK    2  A    between atoms: N_10  and  C_4 
REMARK    3  A    between atoms: C_15  and  N_10 
REMARK    4  A    between atoms: C_16  and  C_15 
ROOT
ATOM      1  C   UNL d   1      32.862  19.052 -23.212  0.00  0.00     0.167 A 
ATOM      2  N   UNL d   1      33.053  19.675 -22.668  0.00  0.00    -0.195 N 
ATOM      3  C   UNL d   1      32.864  18.281 -22.962  0.00  0.00     0.057 A 
ATOM      4  C   UNL d   1      33.046  20.436 -22.931  0.00  0.00     0.167 A 
ATOM      5  N   UNL d   1      33.239  18.707 -21.646  0.00  0.00    -0.161 NA
ATOM      6  N   UNL d   1      32.677  19.231 -23.984  0.00  0.00    -0.227 NA
ATOM      7  C   UNL d   1      32.860  20.627 -23.710  0.00  0.00     0.058 A 
ATOM      8  C   UNL d   1      33.054  18.104 -22.173  0.00  0.00     0.124 A 
ATOM      9  C   UNL d   1      32.672  20.013 -24.246  0.00  0.00     0.086 A 
ATOM     10  C   UNL d   1      32.477  20.202 -25.060  0.00  0.00     0.021 C 
ENDROOT
BRANCH   4  11
ATOM     11  N   UNL d   1      33.239  21.069 -22.385  0.00  0.00    -0.224 NA
BRANCH  11  12
ATOM     12  C   UNL d   1      33.115  21.320 -21.574  0.00  0.00     0.120 C 
BRANCH  12  13
ATOM     13  C   UNL d   1      32.849  22.117 -21.408  0.00  0.00     0.101 A 
ATOM     14  N   UNL d   1      32.191  22.234 -20.862  0.00  0.00    -0.242 NA
ATOM     15  C   UNL d   1      31.925  23.032 -20.697  0.00  0.00     0.099 A 
ATOM     16  C   UNL d   1      32.310  23.702 -21.072  0.00  0.00     0.021 A 
ATOM     17  C   UNL d   1      32.961  23.576 -21.612  0.00  0.00     0.003 A 
ATOM     18  C   UNL d   1      33.227  22.779 -21.777  0.00  0.00     0.021 A 
ENDBRANCH  12  13
ENDBRANCH  11  12
ENDBRANCH   4  11
BRANCH   3  19
ATOM     19  C   UNL d   1      32.678  17.677 -23.490  0.00  0.00     0.005 A 
ATOM     20  C   UNL d   1      33.240  17.410 -24.015  0.00  0.00     0.001 A 
ATOM     21  C   UNL d   1      33.054  16.806 -24.542  0.00  0.00     0.011 A 
ATOM     22  C   UNL d   1      32.310  16.478 -24.537  0.00  0.00     0.058 A 
ATOM     23  C   UNL d   1      31.751  16.754 -24.004  0.00  0.00     0.011 A 
ATOM     24 CL   UNL d   1      32.116  15.846 -25.089  0.00  0.00    -0.082 Cl
ATOM     25  C   UNL d   1      31.933  17.348 -23.485  0.00  0.00     0.001 A 
ENDBRANCH   3  19
TORSDOF 4
ENDMDL
