MODEL 1
REMARK VINA RESULT:      -6.4      0.000      0.000
REMARK  3 active torsions:
REMARK  status: ('A' for Active; 'I' for Inactive)
REMARK    1  A    between atoms: C_11  and  C_2 
REMARK    2  A    between atoms: C_12  and  C_3 
REMARK    3  A    between atoms: N_7  and  C_6 
ROOT
ATOM      1  C   UNL d   1      52.367  32.193  53.531  0.00  0.00     0.078 A 
ATOM      2  C   UNL d   1      53.297  33.136  54.066  0.00  0.00     0.029 A 
ATOM      3  C   UNL d   1      52.741  33.741  53.954  0.00  0.00     0.102 A 
ATOM      4  C   UNL d   1      51.813  32.800  53.421  0.00  0.00     0.187 A 
ATOM      5  O   UNL d   1      52.007  33.567  53.634  0.00  0.00    -0.289 OA
ATOM      6  C   UNL d   1      52.173  31.414  53.316  0.00  0.00     0.153 A 
ATOM      7  N   UNL d   1      51.074  32.625  53.099  0.00  0.00    -0.200 NA
ATOM      8  N   UNL d   1      51.434  31.251  52.996  0.00  0.00    -0.206 NA
ATOM      9  C   UNL d   1      50.877  31.856  52.884  0.00  0.00     0.202 A 
ENDROOT
BRANCH   2  10
ATOM     10  C   UNL d   1      54.036  33.311  54.388  0.00  0.00     0.002 A 
ATOM     11  C   UNL d   1      54.659  33.502  53.898  0.00  0.00     0.000 A 
ATOM     12  C   UNL d   1      55.398  33.676  54.225  0.00  0.00     0.000 A 
ATOM     13  C   UNL d   1      55.507  33.657  55.047  0.00  0.00     0.000 A 
ATOM     14  C   UNL d   1      54.872  33.463  55.538  0.00  0.00     0.000 A 
ATOM     15  C   UNL d   1      54.132  33.289  55.212  0.00  0.00     0.000 A 
ENDBRANCH   2  10
BRANCH   3  16
ATOM     16  C   UNL d   1      52.928  34.513  54.166  0.00  0.00     0.023 A 
ATOM     17  C   UNL d   1      53.245  35.016  53.603  0.00  0.00     0.002 A 
ATOM     18  C   UNL d   1      53.433  35.789  53.813  0.00  0.00     0.000 A 
ATOM     19  C   UNL d   1      53.299  36.046  54.586  0.00  0.00     0.000 A 
ATOM     20  C   UNL d   1      52.979  35.530  55.144  0.00  0.00     0.000 A 
ATOM     21  C   UNL d   1      52.797  34.767  54.926  0.00  0.00     0.002 A 
ENDBRANCH   3  16
BRANCH   6  22
ATOM     22  N   UNL d   1      52.725  30.810  53.426  0.00  0.00    -0.285 N 
ATOM     23  C   UNL d   1      53.294  30.655  52.855  0.00  0.00     0.108 A 
ATOM     24  C   UNL d   1      53.848  30.049  52.965  0.00  0.00     0.142 A 
ATOM     25  O   UNL d   1      53.832  29.596  53.647  0.00  0.00    -0.300 OA
ATOM     26  C   UNL d   1      53.251  29.753  54.230  0.00  0.00     0.142 A 
ATOM     27  C   UNL d   1      52.703  30.355  54.120  0.00  0.00     0.108 A 
ENDBRANCH   6  22
TORSDOF 3
ENDMDL
MODEL 2
REMARK VINA RESULT:      -6.3      1.115      3.015
REMARK  3 active torsions:
REMARK  status: ('A' for Active; 'I' for Inactive)
REMARK    1  A    between atoms: C_11  and  C_2 
REMARK    2  A    between atoms: C_12  and  C_3 
REMARK    3  A    between atoms: N_7  and  C_6 
ROOT
ATOM      1  C   UNL d   1      52.450  32.849  53.260  0.00  0.00     0.078 A 
ATOM      2  C   UNL d   1      53.165  33.835  54.006  0.00  0.00     0.029 A 
ATOM      3  C   UNL d   1      53.752  33.275  54.175  0.00  0.00     0.102 A 
ATOM      4  C   UNL d   1      53.039  32.291  53.431  0.00  0.00     0.187 A 
ATOM      5  O   UNL d   1      53.683  32.511  53.886  0.00  0.00    -0.289 OA
ATOM      6  C   UNL d   1      51.795  32.629  52.799  0.00  0.00     0.153 A 
ATOM      7  N   UNL d   1      52.970  31.522  53.141  0.00  0.00    -0.200 NA
ATOM      8  N   UNL d   1      51.736  31.860  52.515  0.00  0.00    -0.206 NA
ATOM      9  C   UNL d   1      52.324  31.298  52.684  0.00  0.00     0.202 A 
ENDROOT
BRANCH   2  10
ATOM     10  C   UNL d   1      53.234  34.604  54.296  0.00  0.00     0.002 A 
ATOM     11  C   UNL d   1      52.969  34.782  55.047  0.00  0.00     0.000 A 
ATOM     12  C   UNL d   1      53.040  35.554  55.334  0.00  0.00     0.000 A 
ATOM     13  C   UNL d   1      53.379  36.146  54.862  0.00  0.00     0.000 A 
ATOM     14  C   UNL d   1      53.646  35.960  54.103  0.00  0.00     0.000 A 
ATOM     15  C   UNL d   1      53.575  35.188  53.815  0.00  0.00     0.000 A 
ENDBRANCH   2  10
BRANCH   3  16
ATOM     16  C   UNL d   1      54.403  33.488  54.632  0.00  0.00     0.023 A 
ATOM     17  C   UNL d   1      54.362  33.410  55.445  0.00  0.00     0.002 A 
ATOM     18  C   UNL d   1      55.012  33.624  55.903  0.00  0.00     0.000 A 
ATOM     19  C   UNL d   1      55.693  33.912  55.537  0.00  0.00     0.000 A 
ATOM     20  C   UNL d   1      55.721  33.985  54.716  0.00  0.00     0.000 A 
ATOM     21  C   UNL d   1      55.073  33.772  54.272  0.00  0.00     0.002 A 
ENDBRANCH   3  16
BRANCH   6  22
ATOM     22  N   UNL d   1      51.209  33.184  52.629  0.00  0.00    -0.285 N 
ATOM     23  C   UNL d   1      51.251  33.642  51.949  0.00  0.00     0.108 A 
ATOM     24  C   UNL d   1      50.662  34.200  51.778  0.00  0.00     0.142 A 
ATOM     25  O   UNL d   1      50.030  34.300  52.289  0.00  0.00    -0.300 OA
ATOM     26  C   UNL d   1      49.986  33.833  52.983  0.00  0.00     0.142 A 
ATOM     27  C   UNL d   1      50.570  33.281  53.151  0.00  0.00     0.108 A 
ENDBRANCH   6  22
TORSDOF 3
ENDMDL
MODEL 3
REMARK VINA RESULT:      -4.9      1.694      4.577
REMARK  3 active torsions:
REMARK  status: ('A' for Active; 'I' for Inactive)
REMARK    1  A    between atoms: C_11  and  C_2 
REMARK    2  A    between atoms: C_12  and  C_3 
REMARK    3  A    between atoms: N_7  and  C_6 
ROOT
ATOM      1  C   UNL d   1      53.928  33.632  54.506  0.00  0.00     0.078 A 
ATOM      2  C   UNL d   1      52.950  32.901  53.763  0.00  0.00     0.029 A 
ATOM      3  C   UNL d   1      53.425  32.224  53.814  0.00  0.00     0.102 A 
ATOM      4  C   UNL d   1      54.400  32.953  54.555  0.00  0.00     0.187 A 
ATOM      5  O   UNL d   1      54.143  32.257  54.208  0.00  0.00    -0.289 OA
ATOM      6  C   UNL d   1      54.185  34.340  54.856  0.00  0.00     0.153 A 
ATOM      7  N   UNL d   1      55.122  32.986  54.951  0.00  0.00    -0.200 NA
ATOM      8  N   UNL d   1      54.907  34.361  55.249  0.00  0.00    -0.206 NA
ATOM      9  C   UNL d   1      55.383  33.683  55.300  0.00  0.00     0.202 A 
ENDROOT
BRANCH   2  10
ATOM     10  C   UNL d   1      52.228  32.869  53.366  0.00  0.00     0.002 A 
ATOM     11  C   UNL d   1      51.559  32.618  53.759  0.00  0.00     0.000 A 
ATOM     12  C   UNL d   1      50.836  32.587  53.357  0.00  0.00     0.000 A 
ATOM     13  C   UNL d   1      50.791  32.810  52.560  0.00  0.00     0.000 A 
ATOM     14  C   UNL d   1      51.472  33.063  52.168  0.00  0.00     0.000 A 
ATOM     15  C   UNL d   1      52.195  33.095  52.568  0.00  0.00     0.000 A 
ENDBRANCH   2  10
BRANCH   3  16
ATOM     16  C   UNL d   1      53.174  31.521  53.468  0.00  0.00     0.023 A 
ATOM     17  C   UNL d   1      52.766  30.976  53.921  0.00  0.00     0.002 A 
ATOM     18  C   UNL d   1      52.514  30.273  53.577  0.00  0.00     0.000 A 
ATOM     19  C   UNL d   1      52.676  30.127  52.781  0.00  0.00     0.000 A 
ATOM     20  C   UNL d   1      53.089  30.684  52.334  0.00  0.00     0.000 A 
ATOM     21  C   UNL d   1      53.334  31.377  52.685  0.00  0.00     0.002 A 
ENDBRANCH   3  16
BRANCH   6  22
ATOM     22  N   UNL d   1      53.715  35.016  54.808  0.00  0.00    -0.285 N 
ATOM     23  C   UNL d   1      53.150  35.175  55.383  0.00  0.00     0.108 A 
ATOM     24  C   UNL d   1      52.678  35.854  55.334  0.00  0.00     0.142 A 
ATOM     25  O   UNL d   1      52.770  36.375  54.709  0.00  0.00    -0.300 OA
ATOM     26  C   UNL d   1      53.345  36.214  54.122  0.00  0.00     0.142 A 
ATOM     27  C   UNL d   1      53.813  35.541  54.172  0.00  0.00     0.108 A 
ENDBRANCH   6  22
TORSDOF 3
ENDMDL
MODEL 4
REMARK VINA RESULT:      -4.8      2.038      3.838
REMARK  3 active torsions:
REMARK  status: ('A' for Active; 'I' for Inactive)
REMARK    1  A    between atoms: C_11  and  C_2 
REMARK    2  A    between atoms: C_12  and  C_3 
REMARK    3  A    between atoms: N_7  and  C_6 
ROOT
ATOM      1  C   UNL d   1      53.090  34.766  54.298  0.00  0.00     0.078 A 
ATOM      2  C   UNL d   1      52.329  33.845  53.514  0.00  0.00     0.029 A 
ATOM      3  C   UNL d   1      51.844  34.468  53.262  0.00  0.00     0.102 A 
ATOM      4  C   UNL d   1      52.603  35.387  54.044  0.00  0.00     0.187 A 
ATOM      5  O   UNL d   1      51.986  35.230  53.529  0.00  0.00    -0.289 OA
ATOM      6  C   UNL d   1      53.717  34.921  54.821  0.00  0.00     0.153 A 
ATOM      7  N   UNL d   1      52.745  36.153  54.312  0.00  0.00    -0.200 NA
ATOM      8  N   UNL d   1      53.849  35.689  55.081  0.00  0.00    -0.206 NA
ATOM      9  C   UNL d   1      53.364  36.313  54.829  0.00  0.00     0.202 A 
ENDROOT
BRANCH   2  10
ATOM     10  C   UNL d   1      52.187  33.078  53.247  0.00  0.00     0.002 A 
ATOM     11  C   UNL d   1      51.604  32.627  53.594  0.00  0.00     0.000 A 
ATOM     12  C   UNL d   1      51.464  31.858  53.322  0.00  0.00     0.000 A 
ATOM     13  C   UNL d   1      51.915  31.546  52.700  0.00  0.00     0.000 A 
ATOM     14  C   UNL d   1      52.505  32.008  52.352  0.00  0.00     0.000 A 
ATOM     15  C   UNL d   1      52.645  32.777  52.623  0.00  0.00     0.000 A 
ENDBRANCH   2  10
BRANCH   3  16
ATOM     16  C   UNL d   1      51.222  34.319  52.745  0.00  0.00     0.023 A 
ATOM     17  C   UNL d   1      50.473  34.185  53.048  0.00  0.00     0.002 A 
ATOM     18  C   UNL d   1      49.851  34.036  52.531  0.00  0.00     0.000 A 
ATOM     19  C   UNL d   1      49.988  34.023  51.718  0.00  0.00     0.000 A 
ATOM     20  C   UNL d   1      50.747  34.158  51.425  0.00  0.00     0.000 A 
ATOM     21  C   UNL d   1      51.357  34.305  51.944  0.00  0.00     0.002 A 
ENDBRANCH   3  16
BRANCH   6  22
ATOM     22  N   UNL d   1      54.202  34.303  55.074  0.00  0.00    -0.285 N 
ATOM     23  C   UNL d   1      53.965  33.811  55.687  0.00  0.00     0.108 A 
ATOM     24  C   UNL d   1      54.452  33.190  55.941  0.00  0.00     0.142 A 
ATOM     25  O   UNL d   1      55.177  33.062  55.582  0.00  0.00    -0.300 OA
ATOM     26  C   UNL d   1      55.418  33.563  54.956  0.00  0.00     0.142 A 
ATOM     27  C   UNL d   1      54.935  34.178  54.705  0.00  0.00     0.108 A 
ENDBRANCH   6  22
TORSDOF 3
ENDMDL
MODEL 5
REMARK VINA RESULT:      -4.5      1.522      3.847
REMARK  3 active torsions:
REMARK  status: ('A' for Active; 'I' for Inactive)
REMARK    1  A    between atoms: C_11  and  C_2 
REMARK    2  A    between atoms: C_12  and  C_3 
REMARK    3  A    between atoms: N_7  and  C_6 
ROOT
ATOM      1  C   UNL d   1      51.858  33.817  53.326  0.00  0.00     0.078 A 
ATOM      2  C   UNL d   1      52.778  32.747  53.547  0.00  0.00     0.029 A 
ATOM      3  C   UNL d   1      52.250  32.224  53.181  0.00  0.00     0.102 A 
ATOM      4  C   UNL d   1      51.332  33.291  52.960  0.00  0.00     0.187 A 
ATOM      5  O   UNL d   1      51.535  32.500  52.892  0.00  0.00    -0.289 OA
ATOM      6  C   UNL d   1      51.655  34.620  53.397  0.00  0.00     0.153 A 
ATOM      7  N   UNL d   1      50.612  33.569  52.670  0.00  0.00    -0.200 NA
ATOM      8  N   UNL d   1      50.935  34.886  53.104  0.00  0.00    -0.206 NA
ATOM      9  C   UNL d   1      50.406  34.362  52.737  0.00  0.00     0.202 A 
ENDROOT
BRANCH   2  10
ATOM     10  C   UNL d   1      53.498  32.469  53.838  0.00  0.00     0.002 A 
ATOM     11  C   UNL d   1      54.152  32.444  53.351  0.00  0.00     0.000 A 
ATOM     12  C   UNL d   1      54.872  32.165  53.646  0.00  0.00     0.000 A 
ATOM     13  C   UNL d   1      54.931  31.911  54.433  0.00  0.00     0.000 A 
ATOM     14  C   UNL d   1      54.266  31.939  54.922  0.00  0.00     0.000 A 
ATOM     15  C   UNL d   1      53.545  32.218  54.628  0.00  0.00     0.000 A 
ENDBRANCH   2  10
BRANCH   3  16
ATOM     16  C   UNL d   1      52.446  31.428  53.108  0.00  0.00     0.023 A 
ATOM     17  C   UNL d   1      52.195  30.900  53.681  0.00  0.00     0.002 A 
ATOM     18  C   UNL d   1      52.391  30.105  53.610  0.00  0.00     0.000 A 
ATOM     19  C   UNL d   1      52.836  29.850  52.964  0.00  0.00     0.000 A 
ATOM     20  C   UNL d   1      53.084  30.391  52.393  0.00  0.00     0.000 A 
ATOM     21  C   UNL d   1      52.885  31.177  52.473  0.00  0.00     0.002 A 
ENDBRANCH   3  16
BRANCH   6  22
ATOM     22  N   UNL d   1      52.179  35.144  53.762  0.00  0.00    -0.285 N 
ATOM     23  C   UNL d   1      52.819  35.450  53.348  0.00  0.00     0.108 A 
ATOM     24  C   UNL d   1      53.345  35.976  53.714  0.00  0.00     0.142 A 
ATOM     25  O   UNL d   1      53.230  36.196  54.494  0.00  0.00    -0.300 OA
ATOM     26  C   UNL d   1      52.578  35.884  54.916  0.00  0.00     0.142 A 
ATOM     27  C   UNL d   1      52.057  35.363  54.553  0.00  0.00     0.108 A 
ENDBRANCH   6  22
TORSDOF 3
ENDMDL
MODEL 6
REMARK VINA RESULT:      -3.8      1.618      3.154
REMARK  3 active torsions:
REMARK  status: ('A' for Active; 'I' for Inactive)
REMARK    1  A    between atoms: C_11  and  C_2 
REMARK    2  A    between atoms: C_12  and  C_3 
REMARK    3  A    between atoms: N_7  and  C_6 
ROOT
ATOM      1  C   UNL d   1      53.166  32.490  53.541  0.00  0.00     0.078 A 
ATOM      2  C   UNL d   1      52.367  33.668  53.410  0.00  0.00     0.029 A 
ATOM      3  C   UNL d   1      51.884  33.274  52.864  0.00  0.00     0.102 A 
ATOM      4  C   UNL d   1      52.681  32.099  52.994  0.00  0.00     0.187 A 
ATOM      5  O   UNL d   1      52.046  32.496  52.662  0.00  0.00    -0.289 OA
ATOM      6  C   UNL d   1      53.811  32.091  53.880  0.00  0.00     0.153 A 
ATOM      7  N   UNL d   1      52.843  31.317  52.791  0.00  0.00    -0.200 NA
ATOM      8  N   UNL d   1      53.963  31.311  53.670  0.00  0.00    -0.206 NA
ATOM      9  C   UNL d   1      53.479  30.916  53.123  0.00  0.00     0.202 A 
ENDROOT
BRANCH   2  10
ATOM     10  C   UNL d   1      52.205  34.450  53.614  0.00  0.00     0.002 A 
ATOM     11  C   UNL d   1      51.636  34.617  54.174  0.00  0.00     0.000 A 
ATOM     12  C   UNL d   1      51.477  35.403  54.375  0.00  0.00     0.000 A 
ATOM     13  C   UNL d   1      51.893  36.020  54.010  0.00  0.00     0.000 A 
ATOM     14  C   UNL d   1      52.468  35.846  53.443  0.00  0.00     0.000 A 
ATOM     15  C   UNL d   1      52.628  35.060  53.241  0.00  0.00     0.000 A 
ENDBRANCH   2  10
BRANCH   3  16
ATOM     16  C   UNL d   1      51.245  33.665  52.526  0.00  0.00     0.023 A 
ATOM     17  C   UNL d   1      51.344  34.049  51.809  0.00  0.00     0.002 A 
ATOM     18  C   UNL d   1      50.705  34.440  51.471  0.00  0.00     0.000 A 
ATOM     19  C   UNL d   1      49.975  34.442  51.856  0.00  0.00     0.000 A 
ATOM     20  C   UNL d   1      49.888  34.052  52.577  0.00  0.00     0.000 A 
ATOM     21  C   UNL d   1      50.526  33.667  52.905  0.00  0.00     0.002 A 
ENDBRANCH   3  16
BRANCH   6  22
ATOM     22  N   UNL d   1      54.293  32.480  54.425  0.00  0.00    -0.285 N 
ATOM     23  C   UNL d   1      54.120  32.458  55.227  0.00  0.00     0.108 A 
ATOM     24  C   UNL d   1      54.605  32.849  55.774  0.00  0.00     0.142 A 
ATOM     25  O   UNL d   1      55.264  33.263  55.518  0.00  0.00    -0.300 OA
ATOM     26  C   UNL d   1      55.440  33.286  54.700  0.00  0.00     0.142 A 
ATOM     27  C   UNL d   1      54.959  32.898  54.159  0.00  0.00     0.108 A 
ENDBRANCH   6  22
TORSDOF 3
ENDMDL
