MODEL 1
REMARK VINA RESULT:      -8.5      0.000      0.000
REMARK  4 active torsions:
REMARK  status: ('A' for Active; 'I' for Inactive)
REMARK       I    between atoms: C_6  and  N_7 
REMARK    1  A    between atoms: C_8  and  C_6 
REMARK    2  A    between atoms: N_7  and  C_14 
REMARK    3  A    between atoms: C_14  and  C_13 
REMARK    4  A    between atoms: O_17  and  C_15 
ROOT
ATOM      1  C   UNL d   1      51.710  34.174  52.472  0.00  0.00     0.279 C 
ATOM      2  N   UNL d   1      51.967  33.452  52.771  0.00  0.00    -0.206 NA
ATOM      3  O   UNL d   1      52.261  34.720  52.191  0.00  0.00    -0.265 OA
ENDROOT
BRANCH   2   4
ATOM      4  C   UNL d   1      52.769  33.269  52.793  0.00  0.00     0.102 C 
BRANCH   4   5
ATOM      5  C   UNL d   1      53.028  32.579  53.164  0.00  0.00     0.019 A 
ATOM      6  C   UNL d   1      53.561  32.618  53.792  0.00  0.00     0.003 A 
ATOM      7  C   UNL d   1      53.817  31.919  54.160  0.00  0.00     0.019 A 
ATOM      8  C   UNL d   1      53.541  31.188  53.899  0.00  0.00     0.081 A 
ATOM      9  C   UNL d   1      53.008  31.149  53.270  0.00  0.00     0.019 A 
ATOM     10  N   UNL d   1      53.699  30.424  54.156  0.00  0.00    -0.246 NA
ATOM     11  C   UNL d   1      52.751  31.840  52.902  0.00  0.00     0.003 A 
ATOM     12  C   UNL d   1      52.836  30.352  53.138  0.00  0.00     0.021 A 
ATOM     13  C   UNL d   1      53.262  29.907  53.684  0.00  0.00     0.082 A 
ATOM     14  C   UNL d   1      53.253  29.083  53.749  0.00  0.00     0.021 C 
ENDBRANCH   4   5
ENDBRANCH   2   4
BRANCH   1  15
ATOM     15  C   UNL d   1      50.906  34.349  52.454  0.00  0.00     0.060 A 
ATOM     16  C   UNL d   1      50.481  34.263  51.752  0.00  0.00     0.029 A 
ATOM     17  C   UNL d   1      49.678  34.438  51.736  0.00  0.00     0.094 A 
ATOM     18  C   UNL d   1      49.293  34.703  52.432  0.00  0.00     0.024 A 
ATOM     19  C   UNL d   1      49.719  34.788  53.134  0.00  0.00     0.002 A 
ATOM     20  C   UNL d   1      50.534  34.610  53.147  0.00  0.00     0.005 A 
BRANCH  17  21
ATOM     21  O   UNL d   1      49.244  34.354  51.035  0.00  0.00    -0.328 OA
ATOM     22  C   UNL d   1      48.520  34.743  50.942  0.00  0.00     0.181 C 
ENDBRANCH  17  21
ENDBRANCH   1  15
TORSDOF 4
ENDMDL
MODEL 2
REMARK VINA RESULT:      -8.3      2.862      5.087
REMARK  4 active torsions:
REMARK  status: ('A' for Active; 'I' for Inactive)
REMARK       I    between atoms: C_6  and  N_7 
REMARK    1  A    between atoms: C_8  and  C_6 
REMARK    2  A    between atoms: N_7  and  C_14 
REMARK    3  A    between atoms: C_14  and  C_13 
REMARK    4  A    between atoms: O_17  and  C_15 
ROOT
ATOM      1  C   UNL d   1      53.926  31.011  53.389  0.00  0.00     0.279 C 
ATOM      2  N   UNL d   1      53.746  31.707  53.788  0.00  0.00    -0.206 NA
ATOM      3  O   UNL d   1      54.572  30.988  52.876  0.00  0.00    -0.265 OA
ENDROOT
BRANCH   2   4
ATOM      4  C   UNL d   1      54.205  32.382  53.680  0.00  0.00     0.102 C 
BRANCH   4   5
ATOM      5  C   UNL d   1      54.034  33.072  54.099  0.00  0.00     0.019 A 
ATOM      6  C   UNL d   1      54.352  33.194  54.850  0.00  0.00     0.003 A 
ATOM      7  C   UNL d   1      54.174  33.892  55.264  0.00  0.00     0.019 A 
ATOM      8  C   UNL d   1      53.683  34.461  54.927  0.00  0.00     0.081 A 
ATOM      9  C   UNL d   1      53.366  34.339  54.176  0.00  0.00     0.019 A 
ATOM     10  N   UNL d   1      53.421  35.187  55.208  0.00  0.00    -0.246 NA
ATOM     11  C   UNL d   1      53.539  33.648  53.761  0.00  0.00     0.003 A 
ATOM     12  C   UNL d   1      52.903  34.997  53.991  0.00  0.00     0.021 A 
ATOM     13  C   UNL d   1      52.938  35.519  54.627  0.00  0.00     0.082 A 
ATOM     14  C   UNL d   1      52.555  36.249  54.676  0.00  0.00     0.021 C 
ENDBRANCH   4   5
ENDBRANCH   2   4
BRANCH   1  15
ATOM     15  C   UNL d   1      53.461  30.341  53.502  0.00  0.00     0.060 A 
ATOM     16  C   UNL d   1      53.682  29.775  54.060  0.00  0.00     0.029 A 
ATOM     17  C   UNL d   1      53.217  29.107  54.172  0.00  0.00     0.094 A 
ATOM     18  C   UNL d   1      52.520  29.002  53.719  0.00  0.00     0.024 A 
ATOM     19  C   UNL d   1      52.298  29.568  53.161  0.00  0.00     0.002 A 
ATOM     20  C   UNL d   1      52.772  30.245  53.050  0.00  0.00     0.005 A 
BRANCH  17  21
ATOM     21  O   UNL d   1      53.433  28.534  54.731  0.00  0.00    -0.328 OA
ATOM     22  C   UNL d   1      53.241  28.633  55.529  0.00  0.00     0.181 C 
ENDBRANCH  17  21
ENDBRANCH   1  15
TORSDOF 4
ENDMDL
MODEL 3
REMARK VINA RESULT:      -8.1      1.794      4.984
REMARK  4 active torsions:
REMARK  status: ('A' for Active; 'I' for Inactive)
REMARK       I    between atoms: C_6  and  N_7 
REMARK    1  A    between atoms: C_8  and  C_6 
REMARK    2  A    between atoms: N_7  and  C_14 
REMARK    3  A    between atoms: C_14  and  C_13 
REMARK    4  A    between atoms: O_17  and  C_15 
ROOT
ATOM      1  C   UNL d   1      53.549  31.668  53.373  0.00  0.00     0.279 C 
ATOM      2  N   UNL d   1      52.946  32.224  53.317  0.00  0.00    -0.206 NA
ATOM      3  O   UNL d   1      54.336  31.914  53.357  0.00  0.00    -0.265 OA
ENDROOT
BRANCH   2   4
ATOM      4  C   UNL d   1      53.121  33.025  53.245  0.00  0.00     0.102 C 
BRANCH   4   5
ATOM      5  C   UNL d   1      52.515  33.585  53.255  0.00  0.00     0.019 A 
ATOM      6  C   UNL d   1      52.631  34.318  53.617  0.00  0.00     0.003 A 
ATOM      7  C   UNL d   1      52.016  34.876  53.623  0.00  0.00     0.019 A 
ATOM      8  C   UNL d   1      51.293  34.701  53.269  0.00  0.00     0.081 A 
ATOM      9  C   UNL d   1      51.178  33.968  52.907  0.00  0.00     0.019 A 
ATOM     10  N   UNL d   1      50.604  35.141  53.195  0.00  0.00    -0.246 NA
ATOM     11  C   UNL d   1      51.785  33.411  52.899  0.00  0.00     0.003 A 
ATOM     12  C   UNL d   1      50.409  33.957  52.606  0.00  0.00     0.021 A 
ATOM     13  C   UNL d   1      50.056  34.679  52.784  0.00  0.00     0.082 A 
ATOM     14  C   UNL d   1      49.287  34.904  52.586  0.00  0.00     0.021 C 
ENDBRANCH   4   5
ENDBRANCH   2   4
BRANCH   1  15
ATOM     15  C   UNL d   1      53.365  30.868  53.444  0.00  0.00     0.060 A 
ATOM     16  C   UNL d   1      53.450  30.488  54.171  0.00  0.00     0.029 A 
ATOM     17  C   UNL d   1      53.266  29.691  54.240  0.00  0.00     0.094 A 
ATOM     18  C   UNL d   1      52.993  29.265  53.572  0.00  0.00     0.024 A 
ATOM     19  C   UNL d   1      52.908  29.645  52.845  0.00  0.00     0.002 A 
ATOM     20  C   UNL d   1      53.096  30.455  52.777  0.00  0.00     0.005 A 
BRANCH  17  21
ATOM     21  O   UNL d   1      53.349  29.303  54.968  0.00  0.00    -0.328 OA
ATOM     22  C   UNL d   1      53.424  28.480  54.997  0.00  0.00     0.181 C 
ENDBRANCH  17  21
ENDBRANCH   1  15
TORSDOF 4
ENDMDL
MODEL 4
REMARK VINA RESULT:      -8.1      0.767      1.240
REMARK  4 active torsions:
REMARK  status: ('A' for Active; 'I' for Inactive)
REMARK       I    between atoms: C_6  and  N_7 
REMARK    1  A    between atoms: C_8  and  C_6 
REMARK    2  A    between atoms: N_7  and  C_14 
REMARK    3  A    between atoms: C_14  and  C_13 
REMARK    4  A    between atoms: O_17  and  C_15 
ROOT
ATOM      1  C   UNL d   1      52.154  33.515  52.865  0.00  0.00     0.279 C 
ATOM      2  N   UNL d   1      52.192  32.697  52.943  0.00  0.00    -0.206 NA
ATOM      3  O   UNL d   1      52.847  33.961  52.880  0.00  0.00    -0.265 OA
ENDROOT
BRANCH   2   4
ATOM      4  C   UNL d   1      52.918  32.319  53.035  0.00  0.00     0.102 C 
BRANCH   4   5
ATOM      5  C   UNL d   1      52.949  31.505  53.163  0.00  0.00     0.019 A 
ATOM      6  C   UNL d   1      52.754  30.979  52.558  0.00  0.00     0.003 A 
ATOM      7  C   UNL d   1      52.788  30.161  52.696  0.00  0.00     0.019 A 
ATOM      8  C   UNL d   1      53.016  29.874  53.433  0.00  0.00     0.081 A 
ATOM      9  C   UNL d   1      53.211  30.399  54.039  0.00  0.00     0.019 A 
ATOM     10  N   UNL d   1      53.096  29.106  53.717  0.00  0.00    -0.246 NA
ATOM     11  C   UNL d   1      53.179  31.212  53.907  0.00  0.00     0.003 A 
ATOM     12  C   UNL d   1      53.414  29.952  54.702  0.00  0.00     0.021 A 
ATOM     13  C   UNL d   1      53.343  29.156  54.503  0.00  0.00     0.082 A 
ATOM     14  C   UNL d   1      53.493  28.516  55.004  0.00  0.00     0.021 C 
ENDBRANCH   4   5
ENDBRANCH   2   4
BRANCH   1  15
ATOM     15  C   UNL d   1      51.424  33.884  52.774  0.00  0.00     0.060 A 
ATOM     16  C   UNL d   1      51.090  33.958  52.023  0.00  0.00     0.029 A 
ATOM     17  C   UNL d   1      50.362  34.327  51.933  0.00  0.00     0.094 A 
ATOM     18  C   UNL d   1      49.959  34.628  52.604  0.00  0.00     0.024 A 
ATOM     19  C   UNL d   1      50.293  34.555  53.355  0.00  0.00     0.002 A 
ATOM     20  C   UNL d   1      51.033  34.179  53.443  0.00  0.00     0.005 A 
BRANCH  17  21
ATOM     21  O   UNL d   1      50.020  34.404  51.182  0.00  0.00    -0.328 OA
ATOM     22  C   UNL d   1      49.198  34.444  51.098  0.00  0.00     0.181 C 
ENDBRANCH  17  21
ENDBRANCH   1  15
TORSDOF 4
ENDMDL
MODEL 5
REMARK VINA RESULT:      -7.9      1.377      4.857
REMARK  4 active torsions:
REMARK  status: ('A' for Active; 'I' for Inactive)
REMARK       I    between atoms: C_6  and  N_7 
REMARK    1  A    between atoms: C_8  and  C_6 
REMARK    2  A    between atoms: N_7  and  C_14 
REMARK    3  A    between atoms: C_14  and  C_13 
REMARK    4  A    between atoms: O_17  and  C_15 
ROOT
ATOM      1  C   UNL d   1      52.994  33.118  53.072  0.00  0.00     0.279 C 
ATOM      2  N   UNL d   1      52.202  33.316  52.971  0.00  0.00    -0.206 NA
ATOM      3  O   UNL d   1      53.581  33.660  52.867  0.00  0.00    -0.265 OA
ENDROOT
BRANCH   2   4
ATOM      4  C   UNL d   1      51.990  34.050  52.666  0.00  0.00     0.102 C 
BRANCH   4   5
ATOM      5  C   UNL d   1      51.195  34.237  52.548  0.00  0.00     0.019 A 
ATOM      6  C   UNL d   1      50.722  34.469  53.183  0.00  0.00     0.003 A 
ATOM      7  C   UNL d   1      49.923  34.655  53.056  0.00  0.00     0.019 A 
ATOM      8  C   UNL d   1      49.602  34.610  52.299  0.00  0.00     0.081 A 
ATOM      9  C   UNL d   1      50.075  34.378  51.663  0.00  0.00     0.019 A 
ATOM     10  N   UNL d   1      48.844  34.760  52.020  0.00  0.00    -0.246 NA
ATOM     11  C   UNL d   1      50.868  34.192  51.785  0.00  0.00     0.003 A 
ATOM     12  C   UNL d   1      49.604  34.385  50.985  0.00  0.00     0.021 A 
ATOM     13  C   UNL d   1      48.846  34.621  51.206  0.00  0.00     0.082 A 
ATOM     14  C   UNL d   1      48.198  34.703  50.700  0.00  0.00     0.021 C 
ENDBRANCH   4   5
ENDBRANCH   2   4
BRANCH   1  15
ATOM     15  C   UNL d   1      53.198  32.381  53.378  0.00  0.00     0.060 A 
ATOM     16  C   UNL d   1      52.993  31.694  52.970  0.00  0.00     0.029 A 
ATOM     17  C   UNL d   1      53.197  30.960  53.276  0.00  0.00     0.094 A 
ATOM     18  C   UNL d   1      53.612  30.910  54.003  0.00  0.00     0.024 A 
ATOM     19  C   UNL d   1      53.817  31.597  54.411  0.00  0.00     0.002 A 
ATOM     20  C   UNL d   1      53.608  32.342  54.097  0.00  0.00     0.005 A 
BRANCH  17  21
ATOM     21  O   UNL d   1      52.995  30.265  52.872  0.00  0.00    -0.328 OA
ATOM     22  C   UNL d   1      52.727  29.602  53.286  0.00  0.00     0.181 C 
ENDBRANCH  17  21
ENDBRANCH   1  15
TORSDOF 4
ENDMDL
MODEL 6
REMARK VINA RESULT:      -7.8      1.230      2.144
REMARK  4 active torsions:
REMARK  status: ('A' for Active; 'I' for Inactive)
REMARK       I    between atoms: C_6  and  N_7 
REMARK    1  A    between atoms: C_8  and  C_6 
REMARK    2  A    between atoms: N_7  and  C_14 
REMARK    3  A    between atoms: C_14  and  C_13 
REMARK    4  A    between atoms: O_17  and  C_15 
ROOT
ATOM      1  C   UNL d   1      53.409  33.288  53.249  0.00  0.00     0.279 C 
ATOM      2  N   UNL d   1      53.170  32.502  53.299  0.00  0.00    -0.206 NA
ATOM      3  O   UNL d   1      54.199  33.466  53.094  0.00  0.00    -0.265 OA
ENDROOT
BRANCH   2   4
ATOM      4  C   UNL d   1      53.713  31.892  53.196  0.00  0.00     0.102 C 
BRANCH   4   5
ATOM      5  C   UNL d   1      53.498  31.113  53.360  0.00  0.00     0.019 A 
ATOM      6  C   UNL d   1      53.051  30.680  52.818  0.00  0.00     0.003 A 
ATOM      7  C   UNL d   1      52.839  29.896  52.991  0.00  0.00     0.019 A 
ATOM      8  C   UNL d   1      53.074  29.550  53.700  0.00  0.00     0.081 A 
ATOM      9  C   UNL d   1      53.522  29.982  54.242  0.00  0.00     0.019 A 
ATOM     10  N   UNL d   1      52.945  28.799  54.008  0.00  0.00    -0.246 NA
ATOM     11  C   UNL d   1      53.734  30.761  54.075  0.00  0.00     0.003 A 
ATOM     12  C   UNL d   1      53.670  29.493  54.891  0.00  0.00     0.021 A 
ATOM     13  C   UNL d   1      53.315  28.765  54.745  0.00  0.00     0.082 A 
ATOM     14  C   UNL d   1      53.326  28.111  55.250  0.00  0.00     0.021 C 
ENDBRANCH   4   5
ENDBRANCH   2   4
BRANCH   1  15
ATOM     15  C   UNL d   1      52.859  33.892  53.353  0.00  0.00     0.060 A 
ATOM     16  C   UNL d   1      52.180  33.917  52.886  0.00  0.00     0.029 A 
ATOM     17  C   UNL d   1      51.633  34.520  52.992  0.00  0.00     0.094 A 
ATOM     18  C   UNL d   1      51.765  35.109  53.574  0.00  0.00     0.024 A 
ATOM     19  C   UNL d   1      52.445  35.083  54.041  0.00  0.00     0.002 A 
ATOM     20  C   UNL d   1      52.999  34.469  53.931  0.00  0.00     0.005 A 
BRANCH  17  21
ATOM     21  O   UNL d   1      50.948  34.552  52.526  0.00  0.00    -0.328 OA
ATOM     22  C   UNL d   1      50.219  34.316  52.836  0.00  0.00     0.181 C 
ENDBRANCH  17  21
ENDBRANCH   1  15
TORSDOF 4
ENDMDL
MODEL 7
REMARK VINA RESULT:      -7.5      1.849      2.494
REMARK  4 active torsions:
REMARK  status: ('A' for Active; 'I' for Inactive)
REMARK       I    between atoms: C_6  and  N_7 
REMARK    1  A    between atoms: C_8  and  C_6 
REMARK    2  A    between atoms: N_7  and  C_14 
REMARK    3  A    between atoms: C_14  and  C_13 
REMARK    4  A    between atoms: O_17  and  C_15 
ROOT
ATOM      1  C   UNL d   1      49.976  34.484  52.064  0.00  0.00     0.279 C 
ATOM      2  N   UNL d   1      50.577  34.488  52.625  0.00  0.00    -0.206 NA
ATOM      3  O   UNL d   1      50.089  34.097  51.345  0.00  0.00    -0.265 OA
ENDROOT
BRANCH   2   4
ATOM      4  C   UNL d   1      51.292  34.109  52.475  0.00  0.00     0.102 C 
BRANCH   4   5
ATOM      5  C   UNL d   1      51.914  34.164  53.015  0.00  0.00     0.019 A 
ATOM      6  C   UNL d   1      52.217  34.901  53.228  0.00  0.00     0.003 A 
ATOM      7  C   UNL d   1      52.842  34.948  53.772  0.00  0.00     0.019 A 
ATOM      8  C   UNL d   1      53.160  34.262  54.099  0.00  0.00     0.081 A 
ATOM      9  C   UNL d   1      52.856  33.525  53.886  0.00  0.00     0.019 A 
ATOM     10  N   UNL d   1      53.768  34.149  54.640  0.00  0.00    -0.246 NA
ATOM     11  C   UNL d   1      52.236  33.474  53.347  0.00  0.00     0.003 A 
ATOM     12  C   UNL d   1      53.282  32.951  54.300  0.00  0.00     0.021 A 
ATOM     13  C   UNL d   1      53.843  33.336  54.764  0.00  0.00     0.082 A 
ATOM     14  C   UNL d   1      54.388  32.972  55.267  0.00  0.00     0.021 C 
ENDBRANCH   4   5
ENDBRANCH   2   4
BRANCH   1  15
ATOM     15  C   UNL d   1      49.264  34.865  52.223  0.00  0.00     0.060 A 
ATOM     16  C   UNL d   1      48.655  34.852  51.666  0.00  0.00     0.029 A 
ATOM     17  C   UNL d   1      47.946  35.233  51.826  0.00  0.00     0.094 A 
ATOM     18  C   UNL d   1      47.841  35.635  52.554  0.00  0.00     0.024 A 
ATOM     19  C   UNL d   1      48.449  35.648  53.111  0.00  0.00     0.002 A 
ATOM     20  C   UNL d   1      49.169  35.260  52.946  0.00  0.00     0.005 A 
BRANCH  17  21
ATOM     21  O   UNL d   1      47.330  35.225  51.271  0.00  0.00    -0.328 OA
ATOM     22  C   UNL d   1      46.614  35.605  51.433  0.00  0.00     0.181 C 
ENDBRANCH  17  21
ENDBRANCH   1  15
TORSDOF 4
ENDMDL
MODEL 8
REMARK VINA RESULT:      -7.5      2.066      5.524
REMARK  4 active torsions:
REMARK  status: ('A' for Active; 'I' for Inactive)
REMARK       I    between atoms: C_6  and  N_7 
REMARK    1  A    between atoms: C_8  and  C_6 
REMARK    2  A    between atoms: N_7  and  C_14 
REMARK    3  A    between atoms: C_14  and  C_13 
REMARK    4  A    between atoms: O_17  and  C_15 
ROOT
ATOM      1  C   UNL d   1      51.466  34.127  52.605  0.00  0.00     0.279 C 
ATOM      2  N   UNL d   1      50.726  34.456  52.749  0.00  0.00    -0.206 NA
ATOM      3  O   UNL d   1      51.607  33.732  51.894  0.00  0.00    -0.265 OA
ENDROOT
BRANCH   2   4
ATOM      4  C   UNL d   1      50.125  34.395  52.191  0.00  0.00     0.102 C 
BRANCH   4   5
ATOM      5  C   UNL d   1      49.414  34.799  52.301  0.00  0.00     0.019 A 
ATOM      6  C   UNL d   1      49.265  35.197  53.008  0.00  0.00     0.003 A 
ATOM      7  C   UNL d   1      48.546  35.601  53.110  0.00  0.00     0.019 A 
ATOM      8  C   UNL d   1      47.984  35.606  52.508  0.00  0.00     0.081 A 
ATOM      9  C   UNL d   1      48.133  35.208  51.801  0.00  0.00     0.019 A 
ATOM     10  N   UNL d   1      47.241  35.954  52.461  0.00  0.00    -0.246 NA
ATOM     11  C   UNL d   1      48.844  34.805  51.695  0.00  0.00     0.003 A 
ATOM     12  C   UNL d   1      47.475  35.311  51.313  0.00  0.00     0.021 A 
ATOM     13  C   UNL d   1      46.927  35.771  51.720  0.00  0.00     0.082 A 
ATOM     14  C   UNL d   1      46.188  36.009  51.437  0.00  0.00     0.021 C 
ENDBRANCH   4   5
ENDBRANCH   2   4
BRANCH   1  15
ATOM     15  C   UNL d   1      52.062  34.193  53.169  0.00  0.00     0.060 A 
ATOM     16  C   UNL d   1      52.318  33.524  53.579  0.00  0.00     0.029 A 
ATOM     17  C   UNL d   1      52.913  33.592  54.141  0.00  0.00     0.094 A 
ATOM     18  C   UNL d   1      53.259  34.339  54.297  0.00  0.00     0.024 A 
ATOM     19  C   UNL d   1      53.004  35.008  53.886  0.00  0.00     0.002 A 
ATOM     20  C   UNL d   1      52.399  34.936  53.316  0.00  0.00     0.005 A 
BRANCH  17  21
ATOM     21  O   UNL d   1      53.175  32.924  54.557  0.00  0.00    -0.328 OA
ATOM     22  C   UNL d   1      53.981  32.814  54.706  0.00  0.00     0.181 C 
ENDBRANCH  17  21
ENDBRANCH   1  15
TORSDOF 4
ENDMDL
MODEL 9
REMARK VINA RESULT:      -7.5      1.863      2.712
REMARK  4 active torsions:
REMARK  status: ('A' for Active; 'I' for Inactive)
REMARK       I    between atoms: C_6  and  N_7 
REMARK    1  A    between atoms: C_8  and  C_6 
REMARK    2  A    between atoms: N_7  and  C_14 
REMARK    3  A    between atoms: C_14  and  C_13 
REMARK    4  A    between atoms: O_17  and  C_15 
ROOT
ATOM      1  C   UNL d   1      49.977  34.502  52.078  0.00  0.00     0.279 C 
ATOM      2  N   UNL d   1      50.575  34.509  52.643  0.00  0.00    -0.206 NA
ATOM      3  O   UNL d   1      50.084  34.086  51.374  0.00  0.00    -0.265 OA
ENDROOT
BRANCH   2   4
ATOM      4  C   UNL d   1      51.280  34.105  52.512  0.00  0.00     0.102 C 
BRANCH   4   5
ATOM      5  C   UNL d   1      51.902  34.168  53.050  0.00  0.00     0.019 A 
ATOM      6  C   UNL d   1      52.186  34.910  53.273  0.00  0.00     0.003 A 
ATOM      7  C   UNL d   1      52.813  34.965  53.815  0.00  0.00     0.019 A 
ATOM      8  C   UNL d   1      53.150  34.283  54.129  0.00  0.00     0.081 A 
ATOM      9  C   UNL d   1      52.866  33.542  53.907  0.00  0.00     0.019 A 
ATOM     10  N   UNL d   1      53.764  34.178  54.666  0.00  0.00    -0.246 NA
ATOM     11  C   UNL d   1      52.244  33.482  53.369  0.00  0.00     0.003 A 
ATOM     12  C   UNL d   1      53.309  32.973  54.309  0.00  0.00     0.021 A 
ATOM     13  C   UNL d   1      53.862  33.366  54.776  0.00  0.00     0.082 A 
ATOM     14  C   UNL d   1      54.419  33.009  55.271  0.00  0.00     0.021 C 
ENDBRANCH   4   5
ENDBRANCH   2   4
BRANCH   1  15
ATOM     15  C   UNL d   1      49.275  34.910  52.218  0.00  0.00     0.060 A 
ATOM     16  C   UNL d   1      49.136  35.251  52.956  0.00  0.00     0.029 A 
ATOM     17  C   UNL d   1      48.435  35.657  53.093  0.00  0.00     0.094 A 
ATOM     18  C   UNL d   1      47.864  35.724  52.483  0.00  0.00     0.024 A 
ATOM     19  C   UNL d   1      48.004  35.383  51.745  0.00  0.00     0.002 A 
ATOM     20  C   UNL d   1      48.716  34.971  51.608  0.00  0.00     0.005 A 
BRANCH  17  21
ATOM     21  O   UNL d   1      48.288  36.002  53.832  0.00  0.00    -0.328 OA
ATOM     22  C   UNL d   1      47.591  36.428  53.964  0.00  0.00     0.181 C 
ENDBRANCH  17  21
ENDBRANCH   1  15
TORSDOF 4
ENDMDL
