MODEL 1
REMARK VINA RESULT:      85.6      0.000      0.000
REMARK  5 active torsions:
REMARK  status: ('A' for Active; 'I' for Inactive)
REMARK    1  A    between atoms: C_2  and  C_1 
REMARK    2  A    between atoms: O_16  and  C_13 
REMARK    3  A    between atoms: C_21  and  O_16 
REMARK    4  A    between atoms: O_22  and  C_17 
REMARK    5  A    between atoms: C_20  and  C_21 
ROOT
ATOM      1  C   UNL d   1     -51.319  26.516  33.675  0.00  0.00     0.030 A 
ATOM      2  C   UNL d   1     -51.394  25.698  33.595  0.00  0.00     0.027 A 
ATOM      3  C   UNL d   1     -52.131  25.369  33.420  0.00  0.00     0.103 A 
ATOM      4  O   UNL d   1     -52.791  25.854  33.327  0.00  0.00    -0.273 OA
ATOM      5  C   UNL d   1     -52.718  26.671  33.408  0.00  0.00     0.300 A 
ATOM      6  C   UNL d   1     -51.980  27.000  33.582  0.00  0.00     0.071 A 
ATOM      7  C   UNL d   1     -50.733  25.201  33.687  0.00  0.00     0.027 A 
ATOM      8  C   UNL d   1     -50.823  24.393  33.604  0.00  0.00     0.100 A 
ATOM      9  C   UNL d   1     -52.210  24.549  33.338  0.00  0.00     0.027 A 
ATOM     10  C   UNL d   1     -51.558  24.061  33.430  0.00  0.00     0.025 A 
ATOM     11  O   UNL d   1     -53.370  27.161  33.317  0.00  0.00    -0.259 OA
ATOM     12  C   UNL d   1     -51.636  23.252  33.349  0.00  0.00     0.002 C 
ENDROOT
BRANCH   1  13
ATOM     13  C   UNL d   1     -50.580  26.838  33.849  0.00  0.00     0.100 A 
ATOM     14  O   UNL d   1     -50.336  27.099  34.594  0.00  0.00    -0.305 OA
ATOM     15  C   UNL d   1     -49.565  27.380  34.527  0.00  0.00     0.122 A 
ATOM     16  C   UNL d   1     -49.044  27.703  35.075  0.00  0.00     0.117 A 
ATOM     17  C   UNL d   1     -49.330  27.294  33.741  0.00  0.00     0.027 A 
ATOM     18  C   UNL d   1     -48.295  27.939  34.845  0.00  0.00     0.026 A 
ATOM     19  C   UNL d   1     -48.055  27.855  34.061  0.00  0.00     0.002 A 
ATOM     20  C   UNL d   1     -48.575  27.531  33.507  0.00  0.00     0.002 A 
ATOM     21  C   UNL d   1     -49.956  26.960  33.324  0.00  0.00     0.027 A 
BRANCH  16  22
ATOM     22  O   UNL d   1     -49.276  27.788  35.851  0.00  0.00    -0.326 OA
ATOM     23  C   UNL d   1     -48.829  28.250  36.368  0.00  0.00     0.181 C 
ENDBRANCH  16  22
ENDBRANCH   1  13
BRANCH   8  24
ATOM     24  O   UNL d   1     -50.160  23.905  33.697  0.00  0.00    -0.302 OA
BRANCH  24  25
ATOM     25  C   UNL d   1     -49.402  24.220  33.613  0.00  0.00     0.165 C 
BRANCH  25  26
ATOM     26  C   UNL d   1     -48.770  23.888  34.020  0.00  0.00     0.220 C 
ATOM     27  O   UNL d   1     -48.005  24.164  33.882  0.00  0.00    -0.284 OA
ATOM     28  C   UNL d   1     -48.891  23.292  34.555  0.00  0.00     0.048 C 
ENDBRANCH  25  26
ENDBRANCH  24  25
ENDBRANCH   8  24
TORSDOF 5
ENDMDL
