MODEL 1
REMARK VINA RESULT:      45.6      0.000      0.000
REMARK  6 active torsions:
REMARK  status: ('A' for Active; 'I' for Inactive)
REMARK    1  A    between atoms: C_6  and  N_2 
REMARK    2  A    between atoms: C_7  and  C_3 
REMARK    3  A    between atoms: C_14  and  C_6 
REMARK    4  A    between atoms: C_8  and  O_16 
REMARK    5  A    between atoms: C_19  and  C_14 
REMARK    6  A    between atoms: O_16  and  C_19 
ROOT
ATOM      1  N   UNL d   1     -59.111 -99.401 -44.633  0.00  0.00    -0.224 NA
ATOM      2  N   UNL d   1     -57.881 -98.955 -44.311  0.00  0.00    -0.286 N 
ATOM      3  C   UNL d   1     -58.352 -99.225 -44.939  0.00  0.00     0.191 A 
ATOM      4  C   UNL d   1     -58.341 -98.962 -43.616  0.00  0.00     0.083 A 
ATOM      5  C   UNL d   1     -59.097 -99.236 -43.812  0.00  0.00     0.099 A 
ATOM      6  C   UNL d   1     -58.177 -98.758 -42.832  0.00  0.00     0.019 A 
ATOM      7  C   UNL d   1     -59.681 -99.305 -43.234  0.00  0.00     0.021 A 
ATOM      8  C   UNL d   1     -58.762 -98.827 -42.254  0.00  0.00     0.002 A 
ATOM      9  C   UNL d   1     -59.513 -99.100 -42.457  0.00  0.00     0.002 A 
ENDROOT
BRANCH   2  10
ATOM     10  C   UNL d   1     -57.112 -98.758 -44.528  0.00  0.00     0.084 C 
BRANCH  10  11
ATOM     11  C   UNL d   1     -56.820 -99.010 -45.249  0.00  0.00     0.046 C 
BRANCH  11  12
ATOM     12  C   UNL d   1     -56.068 -98.770 -45.480  0.00  0.00     0.124 C 
BRANCH  12  13
ATOM     13  O   UNL d   1     -55.429 -99.285 -45.396  0.00  0.00    -0.305 OA
BRANCH  13  14
ATOM     14  C   UNL d   1     -55.252 -99.605 -44.657  0.00  0.00     0.100 A 
ATOM     15  C   UNL d   1     -54.947 -99.122 -44.059  0.00  0.00     0.025 A 
ATOM     16  C   UNL d   1     -54.771 -99.440 -43.324  0.00  0.00     0.002 A 
ATOM     17  C   UNL d   1     -54.897-100.245 -43.178  0.00  0.00     0.000 A 
ATOM     18  C   UNL d   1     -55.204-100.728 -43.782  0.00  0.00     0.002 A 
ATOM     19  C   UNL d   1     -54.722-100.565 -42.444  0.00  0.00     0.000 C 
ATOM     20  C   UNL d   1     -55.380-100.405 -44.519  0.00  0.00     0.025 A 
ENDBRANCH  13  14
ENDBRANCH  12  13
ENDBRANCH  11  12
ENDBRANCH  10  11
ENDBRANCH   2  10
BRANCH   3  21
ATOM     21  C   UNL d   1     -58.117 -99.306 -45.726  0.00  0.00     0.271 C 
ATOM     22  O   UNL d   1     -58.597 -99.018 -46.331  0.00  0.00    -0.280 OA
ENDBRANCH   3  21
TORSDOF 6
ENDMDL
