MODEL 1
REMARK VINA RESULT:      -4.3      0.000      0.000
REMARK  7 active torsions:
REMARK  status: ('A' for Active; 'I' for Inactive)
REMARK    1  A    between atoms: N_2  and  C_1 
REMARK    2  A    between atoms: C_5  and  C_1 
REMARK    3  A    between atoms: O_4  and  N_2 
REMARK    4  A    between atoms: C_3  and  O_4 
REMARK    5  A    between atoms: C_6  and  C_3 
REMARK    6  A    between atoms: C_17  and  C_14 
REMARK    7  A    between atoms: C_18  and  C_17 
ROOT
ATOM      1  C   UNL d   1      57.359   0.002  30.719  0.00  0.00     0.319 C 
ATOM      2  O   UNL d   1      56.945   0.682  30.487  0.00  0.00    -0.257 OA
ENDROOT
BRANCH   1   3
ATOM      3  O   UNL d   1      57.136  -0.405  31.399  0.00  0.00    -0.168 OA
BRANCH   3   4
ATOM      4  N   UNL d   1      56.465  -0.174  31.818  0.00  0.00    -0.100 NA
BRANCH   4   5
ATOM      5  C   UNL d   1      56.247  -0.577  32.502  0.00  0.00     0.228 C 
ATOM      6  N   UNL d   1      56.302  -1.398  32.530  0.00  0.00    -0.123 N 
BRANCH   5   7
ATOM      7  C   UNL d   1      55.976  -0.159  33.160  0.00  0.00     0.121 A 
ATOM      8  N   UNL d   1      56.518   0.229  33.656  0.00  0.00    -0.241 NA
ATOM      9  C   UNL d   1      56.244   0.651  34.319  0.00  0.00     0.099 A 
ATOM     10  C   UNL d   1      55.430   0.682  34.480  0.00  0.00     0.021 A 
ATOM     11  C   UNL d   1      54.896   0.297  33.987  0.00  0.00     0.003 A 
ATOM     12  C   UNL d   1      55.167  -0.121  33.330  0.00  0.00     0.022 A 
ENDBRANCH   5   7
ENDBRANCH   4   5
ENDBRANCH   3   4
ENDBRANCH   1   3
BRANCH   1  13
ATOM     13  C   UNL d   1      57.999  -0.267  30.263  0.00  0.00     0.065 A 
ATOM     14  C   UNL d   1      58.631   0.243  30.115  0.00  0.00     0.005 A 
ATOM     15  C   UNL d   1      59.267  -0.020  29.664  0.00  0.00     0.000 A 
ATOM     16  C   UNL d   1      59.272  -0.793  29.361  0.00  0.00     0.000 A 
ATOM     17  C   UNL d   1      58.637  -1.297  29.513  0.00  0.00     0.000 A 
ATOM     18  C   UNL d   1      57.996  -1.028  29.969  0.00  0.00     0.005 A 
BRANCH  16  19
ATOM     19  C   UNL d   1      59.914  -1.052  28.908  0.00  0.00     0.000 C 
BRANCH  19  20
ATOM     20  C   UNL d   1      60.303  -1.752  29.107  0.00  0.00     0.000 C 
ATOM     21  C   UNL d   1      61.116  -1.825  29.001  0.00  0.00     0.000 C 
ENDBRANCH  19  20
ENDBRANCH  16  19
ENDBRANCH   1  13
TORSDOF 7
ENDMDL
MODEL 2
REMARK VINA RESULT:      -4.1      1.999      5.133
REMARK  7 active torsions:
REMARK  status: ('A' for Active; 'I' for Inactive)
REMARK    1  A    between atoms: N_2  and  C_1 
REMARK    2  A    between atoms: C_5  and  C_1 
REMARK    3  A    between atoms: O_4  and  N_2 
REMARK    4  A    between atoms: C_3  and  O_4 
REMARK    5  A    between atoms: C_6  and  C_3 
REMARK    6  A    between atoms: C_17  and  C_14 
REMARK    7  A    between atoms: C_18  and  C_17 
ROOT
ATOM      1  C   UNL d   1      58.030   0.014  30.277  0.00  0.00     0.319 C 
ATOM      2  O   UNL d   1      57.664   0.387  29.633  0.00  0.00    -0.257 OA
ENDROOT
BRANCH   1   3
ATOM      3  O   UNL d   1      58.744  -0.382  30.173  0.00  0.00    -0.168 OA
BRANCH   3   4
ATOM      4  N   UNL d   1      58.912  -0.750  29.454  0.00  0.00    -0.100 NA
BRANCH   4   5
ATOM      5  C   UNL d   1      59.673  -1.026  29.300  0.00  0.00     0.228 C 
ATOM      6  N   UNL d   1      60.312  -0.510  29.340  0.00  0.00    -0.123 N 
BRANCH   5   7
ATOM      7  C   UNL d   1      59.793  -1.819  29.107  0.00  0.00     0.121 A 
ATOM      8  N   UNL d   1      60.567  -2.118  29.053  0.00  0.00    -0.241 NA
ATOM      9  C   UNL d   1      60.688  -2.919  28.858  0.00  0.00     0.099 A 
ATOM     10  C   UNL d   1      60.035  -3.412  28.718  0.00  0.00     0.021 A 
ATOM     11  C   UNL d   1      59.271  -3.113  28.773  0.00  0.00     0.003 A 
ATOM     12  C   UNL d   1      59.151  -2.320  28.966  0.00  0.00     0.022 A 
ENDBRANCH   5   7
ENDBRANCH   4   5
ENDBRANCH   3   4
ENDBRANCH   1   3
BRANCH   1  13
ATOM     13  C   UNL d   1      57.675   0.042  31.027  0.00  0.00     0.065 A 
ATOM     14  C   UNL d   1      57.893   0.637  31.555  0.00  0.00     0.005 A 
ATOM     15  C   UNL d   1      57.543   0.667  32.299  0.00  0.00     0.000 A 
ATOM     16  C   UNL d   1      56.974   0.102  32.516  0.00  0.00     0.000 A 
ATOM     17  C   UNL d   1      56.761  -0.490  31.983  0.00  0.00     0.000 A 
ATOM     18  C   UNL d   1      57.117  -0.518  31.232  0.00  0.00     0.005 A 
BRANCH  16  19
ATOM     19  C   UNL d   1      56.626   0.138  33.265  0.00  0.00     0.000 C 
BRANCH  19  20
ATOM     20  C   UNL d   1      55.804   0.133  33.338  0.00  0.00     0.000 C 
ATOM     21  C   UNL d   1      55.447   0.257  34.070  0.00  0.00     0.000 C 
ENDBRANCH  19  20
ENDBRANCH  16  19
ENDBRANCH   1  13
TORSDOF 7
ENDMDL
MODEL 3
REMARK VINA RESULT:      -1.8      9.572     10.225
REMARK  7 active torsions:
REMARK  status: ('A' for Active; 'I' for Inactive)
REMARK    1  A    between atoms: N_2  and  C_1 
REMARK    2  A    between atoms: C_5  and  C_1 
REMARK    3  A    between atoms: O_4  and  N_2 
REMARK    4  A    between atoms: C_3  and  O_4 
REMARK    5  A    between atoms: C_6  and  C_3 
REMARK    6  A    between atoms: C_17  and  C_14 
REMARK    7  A    between atoms: C_18  and  C_17 
ROOT
ATOM      1  C   UNL d   1      58.374  -9.526  32.601  0.00  0.00     0.319 C 
ATOM      2  O   UNL d   1      57.596  -9.298  32.775  0.00  0.00    -0.257 OA
ENDROOT
BRANCH   1   3
ATOM      3  O   UNL d   1      58.567  -9.791  31.846  0.00  0.00    -0.168 OA
BRANCH   3   4
ATOM      4  N   UNL d   1      57.995  -9.802  31.252  0.00  0.00    -0.100 NA
BRANCH   4   5
ATOM      5  C   UNL d   1      58.223  -9.809  30.461  0.00  0.00     0.228 C 
ATOM      6  N   UNL d   1      59.022  -9.817  30.264  0.00  0.00    -0.123 N 
BRANCH   5   7
ATOM      7  C   UNL d   1      57.651  -9.807  29.866  0.00  0.00     0.121 A 
ATOM      8  N   UNL d   1      57.884  -9.794  29.069  0.00  0.00    -0.241 NA
ATOM      9  C   UNL d   1      57.306  -9.792  28.469  0.00  0.00     0.099 A 
ATOM     10  C   UNL d   1      56.501  -9.803  28.672  0.00  0.00     0.021 A 
ATOM     11  C   UNL d   1      56.274  -9.816  29.463  0.00  0.00     0.003 A 
ATOM     12  C   UNL d   1      56.846  -9.818  30.057  0.00  0.00     0.022 A 
ENDBRANCH   5   7
ENDBRANCH   4   5
ENDBRANCH   3   4
ENDBRANCH   1   3
BRANCH   1  13
ATOM     13  C   UNL d   1      58.958  -9.484  33.190  0.00  0.00     0.065 A 
ATOM     14  C   UNL d   1      58.752  -9.643  33.973  0.00  0.00     0.005 A 
ATOM     15  C   UNL d   1      59.328  -9.603  34.559  0.00  0.00     0.000 A 
ATOM     16  C   UNL d   1      60.111  -9.405  34.364  0.00  0.00     0.000 A 
ATOM     17  C   UNL d   1      60.309  -9.247  33.578  0.00  0.00     0.000 A 
ATOM     18  C   UNL d   1      59.724  -9.288  32.989  0.00  0.00     0.005 A 
BRANCH  16  19
ATOM     19  C   UNL d   1      60.684  -9.366  34.957  0.00  0.00     0.000 C 
BRANCH  19  20
ATOM     20  C   UNL d   1      60.699  -8.725  35.476  0.00  0.00     0.000 C 
ATOM     21  C   UNL d   1      61.127  -8.762  36.178  0.00  0.00     0.000 C 
ENDBRANCH  19  20
ENDBRANCH  16  19
ENDBRANCH   1  13
TORSDOF 7
ENDMDL
