MODEL 1
REMARK VINA RESULT:     106.8      0.000      0.000
REMARK  3 active torsions:
REMARK  status: ('A' for Active; 'I' for Inactive)
REMARK    1  A    between atoms: C_2  and  C_1 
REMARK    2  A    between atoms: C_3  and  C_2 
REMARK    3  A    between atoms: C_8  and  C_2 
ROOT
ATOM      1  C   UNL d   1      57.593  48.671  50.859  0.00  0.00     0.018 C 
ENDROOT
BRANCH   1   2
ATOM      2  C   UNL d   1      57.221  48.078  50.412  0.00  0.00     0.078 A 
ATOM      3  C   UNL d   1      56.769  48.308  49.664  0.00  0.00     0.195 A 
ATOM      4  C   UNL d   1      56.438  47.682  49.288  0.00  0.00     0.019 A 
ATOM      5  O   UNL d   1      56.676  48.924  49.385  0.00  0.00    -0.287 OA
ATOM      6  C   UNL d   1      56.485  46.897  49.532  0.00  0.00     0.043 A 
ATOM      7  C   UNL d   1      56.899  46.699  50.215  0.00  0.00     0.019 A 
ATOM      8  C   UNL d   1      56.294  46.097  49.410  0.00  0.00     0.009 C 
ATOM      9  C   UNL d   1      56.033  46.883  48.836  0.00  0.00     0.009 C 
ATOM     10  C   UNL d   1      57.266  47.290  50.655  0.00  0.00     0.195 A 
ATOM     11  O   UNL d   1      57.683  47.085  51.345  0.00  0.00    -0.287 OA
ENDBRANCH   1   2
BRANCH   1  12
ATOM     12  C   UNL d   1      58.375  48.891  50.687  0.00  0.00     0.078 A 
ATOM     13  C   UNL d   1      58.997  48.563  51.098  0.00  0.00     0.195 A 
ATOM     14  C   UNL d   1      59.770  48.777  50.931  0.00  0.00     0.019 A 
ATOM     15  O   UNL d   1      58.840  48.001  51.696  0.00  0.00    -0.287 OA
ATOM     16  C   UNL d   1      59.926  49.328  50.345  0.00  0.00     0.043 A 
ATOM     17  C   UNL d   1      59.302  49.670  49.919  0.00  0.00     0.019 A 
ATOM     18  C   UNL d   1      60.607  49.675  50.025  0.00  0.00     0.009 C 
ATOM     19  C   UNL d   1      60.702  49.167  50.586  0.00  0.00     0.009 C 
ATOM     20  C   UNL d   1      58.520  49.451  50.090  0.00  0.00     0.195 A 
ATOM     21  O   UNL d   1      58.166  49.675  49.816  0.00  0.00    -0.287 OA
ENDBRANCH   1  12
BRANCH   1  22
ATOM     22  C   UNL d   1      57.194  49.039  51.467  0.00  0.00     0.030 A 
ATOM     23  S   UNL d   1      57.455  49.450  52.137  0.00  0.00    -0.086 SA
ATOM     24  C   UNL d   1      56.796  49.701  52.557  0.00  0.00     0.035 A 
ATOM     25  C   UNL d   1      56.127  49.455  52.162  0.00  0.00     0.007 A 
ATOM     26  C   UNL d   1      56.372  49.047  51.491  0.00  0.00     0.007 A 
ENDBRANCH   1  22
TORSDOF 3
ENDMDL
MODEL 2
REMARK VINA RESULT:     108.6      2.708      4.379
REMARK  3 active torsions:
REMARK  status: ('A' for Active; 'I' for Inactive)
REMARK    1  A    between atoms: C_2  and  C_1 
REMARK    2  A    between atoms: C_3  and  C_2 
REMARK    3  A    between atoms: C_8  and  C_2 
ROOT
ATOM      1  C   UNL d   1      60.654  48.493  50.612  0.00  0.00     0.018 C 
ENDROOT
BRANCH   1   2
ATOM      2  C   UNL d   1      60.804  48.814  51.363  0.00  0.00     0.078 A 
ATOM      3  C   UNL d   1      60.108  49.023  51.900  0.00  0.00     0.195 A 
ATOM      4  C   UNL d   1      60.333  49.326  52.607  0.00  0.00     0.019 A 
ATOM      5  O   UNL d   1      59.438  48.959  51.788  0.00  0.00    -0.287 OA
ATOM      6  C   UNL d   1      61.110  49.448  52.851  0.00  0.00     0.043 A 
ATOM      7  C   UNL d   1      61.736  49.254  52.353  0.00  0.00     0.019 A 
ATOM      8  C   UNL d   1      61.646  49.707  53.432  0.00  0.00     0.009 C 
ATOM      9  C   UNL d   1      60.640  49.704  53.485  0.00  0.00     0.009 C 
ATOM     10  C   UNL d   1      61.583  48.937  51.610  0.00  0.00     0.195 A 
ATOM     11  O   UNL d   1      62.219  48.742  51.110  0.00  0.00    -0.287 OA
ENDBRANCH   1   2
BRANCH   1  12
ATOM     12  C   UNL d   1      60.911  47.726  50.429  0.00  0.00     0.078 A 
ATOM     13  C   UNL d   1      60.539  47.076  50.750  0.00  0.00     0.195 A 
ATOM     14  C   UNL d   1      60.791  46.317  50.572  0.00  0.00     0.019 A 
ATOM     15  O   UNL d   1      59.893  47.191  51.267  0.00  0.00    -0.287 OA
ATOM     16  C   UNL d   1      61.424  46.202  50.065  0.00  0.00     0.043 A 
ATOM     17  C   UNL d   1      61.813  46.855  49.731  0.00  0.00     0.019 A 
ATOM     18  C   UNL d   1      61.828  45.546  49.761  0.00  0.00     0.009 C 
ATOM     19  C   UNL d   1      61.246  45.412  50.235  0.00  0.00     0.009 C 
ATOM     20  C   UNL d   1      61.555  47.623  49.913  0.00  0.00     0.195 A 
ATOM     21  O   UNL d   1      61.811  47.996  49.695  0.00  0.00    -0.287 OA
ENDBRANCH   1  12
BRANCH   1  22
ATOM     22  C   UNL d   1      60.254  48.930  50.051  0.00  0.00     0.030 A 
ATOM     23  S   UNL d   1      60.514  49.401  49.421  0.00  0.00    -0.086 SA
ATOM     24  C   UNL d   1      59.855  49.707  49.041  0.00  0.00     0.035 A 
ATOM     25  C   UNL d   1      59.186  49.437  49.421  0.00  0.00     0.007 A 
ATOM     26  C   UNL d   1      59.432  48.958  50.043  0.00  0.00     0.007 A 
ENDBRANCH   1  22
TORSDOF 3
ENDMDL
