MODEL 1
REMARK VINA RESULT:      54.4      0.000      0.000
REMARK  3 active torsions:
REMARK  status: ('A' for Active; 'I' for Inactive)
REMARK    1  A    between atoms: N_10  and  C_3 
REMARK    2  A    between atoms: C_11  and  C_5 
REMARK    3  A    between atoms: C_13  and  N_10 
ROOT
ATOM      1  N   UNL d   1      13.952  13.956  -3.143  0.00  0.00    -0.184 N 
ATOM      2  C   UNL d   1      13.758  14.298  -3.884  0.00  0.00     0.168 A 
ATOM      3  C   UNL d   1      13.772  13.161  -3.000  0.00  0.00     0.217 A 
ATOM      4  N   UNL d   1      14.493  15.195  -2.713  0.00  0.00    -0.162 NA
ATOM      5  C   UNL d   1      13.933  15.073  -4.025  0.00  0.00     0.055 A 
ATOM      6  N   UNL d   1      13.391  13.833  -4.456  0.00  0.00    -0.227 NA
ATOM      7  C   UNL d   1      13.411  12.716  -3.574  0.00  0.00     0.066 A 
ATOM      8  C   UNL d   1      14.302  15.532  -3.442  0.00  0.00     0.104 A 
ATOM      9  C   UNL d   1      13.213  13.050  -4.318  0.00  0.00     0.087 A 
ATOM     10  C   UNL d   1      13.171  11.941  -3.596  0.00  0.00     0.006 A 
ATOM     11  C   UNL d   1      14.475  16.317  -3.593  0.00  0.00     0.023 C 
ATOM     12  C   UNL d   1      12.858  12.473  -4.779  0.00  0.00     0.019 A 
ATOM     13  C   UNL d   1      12.833  11.779  -4.322  0.00  0.00     0.002 A 
ENDROOT
BRANCH   3  14
ATOM     14  N   UNL d   1      13.967  12.813  -2.253  0.00  0.00    -0.383 NA
BRANCH  14  15
ATOM     15  C   UNL d   1      14.163  12.468  -1.508  0.00  0.00     0.134 A 
ATOM     16  C   UNL d   1      14.967  12.471  -1.251  0.00  0.00     0.032 A 
ATOM     17  C   UNL d   1      15.169  12.130  -0.511  0.00  0.00     0.003 A 
ATOM     18  C   UNL d   1      14.568  11.781  -0.018  0.00  0.00     0.000 A 
ATOM     19  C   UNL d   1      13.770  11.785  -0.288  0.00  0.00     0.003 A 
ATOM     20  C   UNL d   1      13.565  12.127  -1.031  0.00  0.00     0.032 A 
ENDBRANCH  14  15
ENDBRANCH   3  14
BRANCH   5  21
ATOM     21  C   UNL d   1      13.743  15.408  -4.750  0.00  0.00     0.004 A 
ATOM     22  C   UNL d   1      14.325  15.518  -5.319  0.00  0.00     0.000 A 
ATOM     23  C   UNL d   1      14.140  15.851  -6.043  0.00  0.00     0.000 A 
ATOM     24  C   UNL d   1      13.363  16.078  -6.203  0.00  0.00     0.000 A 
ATOM     25  C   UNL d   1      12.783  15.973  -5.647  0.00  0.00     0.000 A 
ATOM     26  C   UNL d   1      12.975  15.634  -4.912  0.00  0.00     0.000 A 
ENDBRANCH   5  21
TORSDOF 3
ENDMDL
MODEL 2
REMARK VINA RESULT:      55.2      0.725      4.426
REMARK  3 active torsions:
REMARK  status: ('A' for Active; 'I' for Inactive)
REMARK    1  A    between atoms: N_10  and  C_3 
REMARK    2  A    between atoms: C_11  and  C_5 
REMARK    3  A    between atoms: C_13  and  N_10 
ROOT
ATOM      1  N   UNL d   1      14.035  13.994  -3.014  0.00  0.00    -0.184 N 
ATOM      2  C   UNL d   1      14.092  13.390  -2.435  0.00  0.00     0.168 A 
ATOM      3  C   UNL d   1      13.698  13.825  -3.750  0.00  0.00     0.217 A 
ATOM      4  N   UNL d   1      14.646  14.910  -2.119  0.00  0.00    -0.162 NA
ATOM      5  C   UNL d   1      14.421  13.555  -1.717  0.00  0.00     0.055 A 
ATOM      6  N   UNL d   1      13.810  12.638  -2.612  0.00  0.00    -0.227 NA
ATOM      7  C   UNL d   1      13.424  13.078  -3.910  0.00  0.00     0.066 A 
ATOM      8  C   UNL d   1      14.702  14.316  -1.549  0.00  0.00     0.104 A 
ATOM      9  C   UNL d   1      13.477  12.468  -3.336  0.00  0.00     0.087 A 
ATOM     10  C   UNL d   1      13.073  12.751  -4.565  0.00  0.00     0.006 A 
ATOM     11  C   UNL d   1      15.034  14.474  -0.818  0.00  0.00     0.023 C 
ATOM     12  C   UNL d   1      13.158  11.782  -3.653  0.00  0.00     0.019 A 
ATOM     13  C   UNL d   1      12.907  11.964  -4.423  0.00  0.00     0.002 A 
ENDROOT
BRANCH   3  14
ATOM     14  N   UNL d   1      13.638  14.432  -4.338  0.00  0.00    -0.383 NA
BRANCH  14  15
ATOM     15  C   UNL d   1      13.579  15.040  -4.920  0.00  0.00     0.134 A 
ATOM     16  C   UNL d   1      12.839  15.429  -5.037  0.00  0.00     0.032 A 
ATOM     17  C   UNL d   1      12.772  16.034  -5.614  0.00  0.00     0.003 A 
ATOM     18  C   UNL d   1      13.447  16.259  -6.083  0.00  0.00     0.000 A 
ATOM     19  C   UNL d   1      14.179  15.863  -5.956  0.00  0.00     0.003 A 
ATOM     20  C   UNL d   1      14.247  15.254  -5.376  0.00  0.00     0.032 A 
ENDBRANCH  14  15
ENDBRANCH   3  14
BRANCH   5  21
ATOM     21  C   UNL d   1      14.477  12.963  -1.150  0.00  0.00     0.004 A 
ATOM     22  C   UNL d   1      13.886  12.875  -0.586  0.00  0.00     0.000 A 
ATOM     23  C   UNL d   1      13.938  12.287  -0.020  0.00  0.00     0.000 A 
ATOM     24  C   UNL d   1      14.588  11.780  -0.015  0.00  0.00     0.000 A 
ATOM     25  C   UNL d   1      15.176  11.860  -0.567  0.00  0.00     0.000 A 
ATOM     26  C   UNL d   1      15.119  12.459  -1.141  0.00  0.00     0.000 A 
ENDBRANCH   5  21
TORSDOF 3
ENDMDL
