MODEL 1
REMARK VINA RESULT:      10.5      0.000      0.000
REMARK  3 active torsions:
REMARK  status: ('A' for Active; 'I' for Inactive)
REMARK    1  A    between atoms: C_8  and  C_1 
REMARK    2  A    between atoms: N_5  and  C_2 
REMARK       I    between atoms: C_7  and  N_5 
REMARK    3  A    between atoms: C_10  and  C_7 
ROOT
ATOM      1  C   UNL d   1      46.365 -18.441  43.776  0.00  0.00     0.212 A 
ATOM      2  C   UNL d   1      46.302 -17.228  44.333  0.00  0.00     0.297 A 
ATOM      3  O   UNL d   1      46.394 -17.628  43.618  0.00  0.00    -0.253 OA
ATOM      4  N   UNL d   1      46.255 -18.533  44.583  0.00  0.00    -0.119 NA
ATOM      5  N   UNL d   1      46.217 -17.785  44.927  0.00  0.00    -0.101 NA
ENDROOT
BRANCH   2   6
ATOM      6  N   UNL d   1      46.298 -16.409  44.424  0.00  0.00    -0.165 NA
ATOM      7  C   UNL d   1      45.592 -16.002  44.457  0.00  0.00     0.282 C 
ATOM      8  O   UNL d   1      44.871 -16.404  44.401  0.00  0.00    -0.265 OA
BRANCH   7   9
ATOM      9  C   UNL d   1      45.589 -15.178  44.548  0.00  0.00     0.060 A 
ATOM     10  C   UNL d   1      44.891 -14.747  44.457  0.00  0.00     0.034 A 
ATOM     11  C   UNL d   1      44.895 -13.930  44.548  0.00  0.00     0.140 A 
ATOM     12  F   UNL d   1      44.187 -13.490  44.456  0.00  0.00    -0.204 F 
ATOM     13  C   UNL d   1      45.595 -13.534  44.732  0.00  0.00     0.030 A 
ATOM     14  C   UNL d   1      46.290 -13.965  44.823  0.00  0.00     0.003 A 
ATOM     15  C   UNL d   1      46.291 -14.779  44.733  0.00  0.00     0.005 A 
ENDBRANCH   7   9
ENDBRANCH   2   6
BRANCH   1  16
ATOM     16  C   UNL d   1      46.434 -19.044  43.213  0.00  0.00     0.072 A 
ATOM     17  S   UNL d   1      46.306 -19.845  43.343  0.00  0.00    -0.083 SA
ATOM     18  C   UNL d   1      46.437 -20.241  42.633  0.00  0.00     0.035 A 
ATOM     19  C   UNL d   1      46.647 -19.682  42.059  0.00  0.00     0.008 A 
ATOM     20  C   UNL d   1      46.644 -18.938  42.422  0.00  0.00     0.011 A 
ENDBRANCH   1  16
TORSDOF 3
ENDMDL
