MODEL 1
REMARK VINA RESULT:      -2.1      0.000      0.000
REMARK  6 active torsions:
REMARK  status: ('A' for Active; 'I' for Inactive)
REMARK    1  A    between atoms: N_3  and  C_1 
REMARK    2  A    between atoms: S_2  and  C_9 
REMARK    3  A    between atoms: N_10  and  S_2 
REMARK       I    between atoms: C_8  and  N_3 
REMARK    4  A    between atoms: C_20  and  N_4 
REMARK    5  A    between atoms: C_13  and  C_8 
REMARK    6  A    between atoms: O_22  and  C_14 
ROOT
ATOM      1  N   UNL d   1     -41.472-122.587 -51.689  0.00  0.00    -0.184 NA
ATOM      2  C   UNL d   1     -41.849-123.172 -51.234  0.00  0.00     0.281 C 
ATOM      3  O   UNL d   1     -42.226-123.802 -51.608  0.00  0.00    -0.265 OA
ENDROOT
BRANCH   1   4
ATOM      4  C   UNL d   1     -41.479-122.644 -52.521  0.00  0.00     0.182 A 
ATOM      5  N   UNL d   1     -41.653-122.035 -53.037  0.00  0.00    -0.283 N 
ATOM      6  C   UNL d   1     -41.599-122.319 -53.809  0.00  0.00     0.094 A 
ATOM      7  C   UNL d   1     -41.715-121.953 -54.552  0.00  0.00     0.111 A 
ATOM      8  C   UNL d   1     -41.392-123.110 -53.774  0.00  0.00     0.050 A 
ATOM      9  C   UNL d   1     -41.618-122.395 -55.236  0.00  0.00     0.026 A 
ATOM     10  C   UNL d   1     -41.410-123.188 -55.209  0.00  0.00     0.003 A 
ATOM     11  C   UNL d   1     -41.296-123.549 -54.472  0.00  0.00     0.008 A 
ATOM     12  S   UNL d   1     -41.315-123.320 -52.980  0.00  0.00    -0.048 SA
BRANCH   5  13
ATOM     13  C   UNL d   1     -41.849-121.262 -52.830  0.00  0.00     0.082 C 
ATOM     14  C   UNL d   1     -41.244-120.926 -52.386  0.00  0.00     0.021 C 
ENDBRANCH   5  13
BRANCH   7  15
ATOM     15  O   UNL d   1     -41.921-121.168 -54.589  0.00  0.00    -0.327 OA
ATOM     16  C   UNL d   1     -42.082-120.818 -55.309  0.00  0.00     0.181 C 
ENDBRANCH   7  15
ENDBRANCH   1   4
BRANCH   2  17
ATOM     17  C   UNL d   1     -41.844-123.120 -50.408  0.00  0.00     0.058 A 
ATOM     18  C   UNL d   1     -42.554-123.159 -49.995  0.00  0.00     0.005 A 
ATOM     19  C   UNL d   1     -42.555-123.107 -49.172  0.00  0.00     0.013 A 
ATOM     20  C   UNL d   1     -41.837-123.016 -48.763  0.00  0.00     0.104 A 
ATOM     21  C   UNL d   1     -41.124-122.977 -49.190  0.00  0.00     0.013 A 
ATOM     22  C   UNL d   1     -41.122-123.029 -50.013  0.00  0.00     0.005 A 
BRANCH  20  23
ATOM     23  S   UNL d   1     -41.835-122.964 -47.941  0.00  0.00     0.271 S 
ATOM     24  O   UNL d   1     -41.372-123.658 -47.937  0.00  0.00    -0.200 OA
ATOM     25  O   UNL d   1     -42.289-122.284 -47.949  0.00  0.00    -0.200 OA
BRANCH  23  26
ATOM     26  N   UNL d   1     -41.829-122.916 -47.120  0.00  0.00    -0.226 N 
ATOM     27  C   UNL d   1     -42.466-122.558 -46.724  0.00  0.00     0.111 C 
ATOM     28  C   UNL d   1     -41.210-123.214 -46.680  0.00  0.00     0.111 C 
ENDBRANCH  23  26
ENDBRANCH  20  23
ENDBRANCH   2  17
TORSDOF 6
ENDMDL
MODEL 2
REMARK VINA RESULT:      -0.5      1.303      5.750
REMARK  6 active torsions:
REMARK  status: ('A' for Active; 'I' for Inactive)
REMARK    1  A    between atoms: N_3  and  C_1 
REMARK    2  A    between atoms: S_2  and  C_9 
REMARK    3  A    between atoms: N_10  and  S_2 
REMARK       I    between atoms: C_8  and  N_3 
REMARK    4  A    between atoms: C_20  and  N_4 
REMARK    5  A    between atoms: C_13  and  C_8 
REMARK    6  A    between atoms: O_22  and  C_14 
ROOT
ATOM      1  N   UNL d   1     -42.306-123.065 -50.598  0.00  0.00    -0.184 NA
ATOM      2  C   UNL d   1     -41.782-122.569 -51.012  0.00  0.00     0.281 C 
ATOM      3  O   UNL d   1     -41.162-122.203 -50.612  0.00  0.00    -0.265 OA
ENDROOT
BRANCH   1   4
ATOM      4  C   UNL d   1     -42.199-123.186 -49.780  0.00  0.00     0.182 A 
ATOM      5  N   UNL d   1     -42.791-123.181 -49.217  0.00  0.00    -0.283 N 
ATOM      6  C   UNL d   1     -42.455-123.322 -48.478  0.00  0.00     0.094 A 
ATOM      7  C   UNL d   1     -42.785-123.379 -47.712  0.00  0.00     0.111 A 
ATOM      8  C   UNL d   1     -41.648-123.416 -48.580  0.00  0.00     0.050 A 
ATOM      9  C   UNL d   1     -42.294-123.528 -47.073  0.00  0.00     0.026 A 
ATOM     10  C   UNL d   1     -41.484-123.622 -47.168  0.00  0.00     0.003 A 
ATOM     11  C   UNL d   1     -41.159-123.566 -47.927  0.00  0.00     0.008 A 
ATOM     12  S   UNL d   1     -41.480-123.333 -49.384  0.00  0.00    -0.048 SA
BRANCH   5  13
ATOM     13  C   UNL d   1     -43.594-123.057 -49.357  0.00  0.00     0.082 C 
ATOM     14  C   UNL d   1     -43.941-123.746 -49.640  0.00  0.00     0.021 C 
ENDBRANCH   5  13
BRANCH   7  15
ATOM     15  O   UNL d   1     -43.586-123.286 -47.608  0.00  0.00    -0.327 OA
ATOM     16  C   UNL d   1     -43.931-123.458 -46.888  0.00  0.00     0.181 C 
ENDBRANCH   7  15
ENDBRANCH   1   4
BRANCH   2  17
ATOM     17  C   UNL d   1     -41.885-122.446 -51.824  0.00  0.00     0.058 A 
ATOM     18  C   UNL d   1     -42.114-121.705 -52.095  0.00  0.00     0.005 A 
ATOM     19  C   UNL d   1     -42.218-121.576 -52.903  0.00  0.00     0.013 A 
ATOM     20  C   UNL d   1     -42.090-122.197 -53.440  0.00  0.00     0.104 A 
ATOM     21  C   UNL d   1     -41.857-122.944 -53.155  0.00  0.00     0.013 A 
ATOM     22  C   UNL d   1     -41.753-123.073 -52.347  0.00  0.00     0.005 A 
BRANCH  20  23
ATOM     23  S   UNL d   1     -42.192-122.072 -54.248  0.00  0.00     0.271 S 
ATOM     24  O   UNL d   1     -42.828-122.611 -54.211  0.00  0.00    -0.200 OA
ATOM     25  O   UNL d   1     -41.568-121.544 -54.280  0.00  0.00    -0.200 OA
BRANCH  23  26
ATOM     26  N   UNL d   1     -42.298-121.951 -55.054  0.00  0.00    -0.226 N 
ATOM     27  C   UNL d   1     -41.660-121.693 -55.520  0.00  0.00     0.111 C 
ATOM     28  C   UNL d   1     -43.021-122.078 -55.413  0.00  0.00     0.111 C 
ENDBRANCH  23  26
ENDBRANCH  20  23
ENDBRANCH   2  17
TORSDOF 6
ENDMDL
