MODEL 1
REMARK VINA RESULT:      45.9      0.000      0.000
REMARK  7 active torsions:
REMARK  status: ('A' for Active; 'I' for Inactive)
REMARK    1  A    between atoms: N_2  and  S_1 
REMARK    2  A    between atoms: C_3  and  S_1 
REMARK    3  A    between atoms: C_4  and  C_7 
REMARK       I    between atoms: N_5  and  C_4 
REMARK    4  A    between atoms: C_15  and  N_5 
REMARK    5  A    between atoms: C_6  and  C_11 
REMARK    6  A    between atoms: O_20  and  C_6 
REMARK    7  A    between atoms: C_28  and  O_20 
ROOT
ATOM      1  C   UNL d   1      13.564  12.429  -3.084  0.00  0.00     0.104 A 
ATOM      2  C   UNL d   1      13.270  13.364  -4.129  0.00  0.00     0.059 A 
ATOM      3  C   UNL d   1      13.528  13.199  -3.381  0.00  0.00     0.018 A 
ATOM      4  C   UNL d   1      13.315  11.780  -3.596  0.00  0.00     0.013 A 
ATOM      5  C   UNL d   1      13.021  12.715  -4.640  0.00  0.00     0.005 A 
ATOM      6  C   UNL d   1      13.053  11.958  -4.358  0.00  0.00     0.001 A 
ENDROOT
BRANCH   2   7
ATOM      7  C   UNL d   1      13.246  14.141  -4.396  0.00  0.00     0.279 C 
ATOM      8  N   UNL d   1      13.699  14.376  -5.035  0.00  0.00    -0.208 NA
ATOM      9  O   UNL d   1      12.771  14.741  -4.050  0.00  0.00    -0.265 OA
BRANCH   8  10
ATOM     10  C   UNL d   1      13.677  15.168  -5.311  0.00  0.00     0.085 A 
ATOM     11  C   UNL d   1      13.267  15.355  -6.025  0.00  0.00     0.019 A 
ATOM     12  C   UNL d   1      13.261  16.182  -6.285  0.00  0.00     0.007 A 
ATOM     13  C   UNL d   1      13.661  16.781  -5.826  0.00  0.00     0.064 A 
ATOM     14  C   UNL d   1      14.058  16.585  -5.129  0.00  0.00     0.007 A 
ATOM     15  C   UNL d   1      14.076  15.780  -4.855  0.00  0.00     0.019 A 
BRANCH  13  16
ATOM     16  C   UNL d   1      13.664  17.561  -6.057  0.00  0.00     0.300 C 
ATOM     17  O   UNL d   1      13.017  17.939  -6.342  0.00  0.00    -0.259 OA
BRANCH  16  18
ATOM     18  O   UNL d   1      14.318  18.052  -6.030  0.00  0.00    -0.271 OA
BRANCH  18  19
ATOM     19  C   UNL d   1      14.222  18.860  -6.066  0.00  0.00     0.126 C 
ATOM     20  C   UNL d   1      14.791  19.340  -5.777  0.00  0.00     0.029 C 
ENDBRANCH  18  19
ENDBRANCH  16  18
ENDBRANCH  13  16
ENDBRANCH   8  10
ENDBRANCH   2   7
BRANCH   1  21
ATOM     21  S   UNL d   1      13.831  12.279  -2.316  0.00  0.00     0.272 S 
ATOM     22  O   UNL d   1      14.504  12.770  -2.430  0.00  0.00    -0.200 OA
ATOM     23  O   UNL d   1      13.180  11.795  -2.187  0.00  0.00    -0.200 OA
BRANCH  21  24
ATOM     24  N   UNL d   1      14.086  12.123  -1.554  0.00  0.00    -0.225 N 
ATOM     25  C   UNL d   1      14.875  12.155  -1.381  0.00  0.00     0.118 A 
ATOM     26  C   UNL d   1      15.144  12.002  -0.623  0.00  0.00     0.142 A 
ATOM     27  O   UNL d   1      14.619  11.815  -0.034  0.00  0.00    -0.300 OA
ATOM     28  C   UNL d   1      13.802  11.780  -0.205  0.00  0.00     0.142 A 
ATOM     29  C   UNL d   1      13.538  11.935  -0.967  0.00  0.00     0.118 A 
ENDBRANCH  21  24
ENDBRANCH   1  21
TORSDOF 7
ENDMDL
