MODEL 1
REMARK VINA RESULT:      -4.9      0.000      0.000
REMARK  1 active torsions:
REMARK  status: ('A' for Active; 'I' for Inactive)
REMARK    1  A    between atoms: C_10  and  N_2 
ROOT
ATOM      1  C   UNL d   1      58.024   0.071  30.441  0.00  0.00     0.174 A 
ATOM      2  N   UNL d   1      57.456   0.167  31.746  0.00  0.00    -0.224 N 
ATOM      3  C   UNL d   1      57.389  -0.035  30.952  0.00  0.00     0.292 A 
ATOM      4  C   UNL d   1      58.727   0.378  30.720  0.00  0.00     0.115 A 
ATOM      5  C   UNL d   1      58.158   0.475  32.030  0.00  0.00     0.356 A 
ATOM      6  N   UNL d   1      58.794   0.581  31.514  0.00  0.00    -0.190 NA
ATOM      7  O   UNL d   1      58.111  -0.081  29.630  0.00  0.00    -0.301 OA
ATOM      8  C   UNL d   1      59.259   0.421  30.085  0.00  0.00     0.043 A 
ATOM      9  C   UNL d   1      58.878   0.137  29.411  0.00  0.00     0.102 A 
ATOM     10  O   UNL d   1      56.664  -0.352  30.669  0.00  0.00    -0.264 OA
ATOM     11  O   UNL d   1      58.232   0.682  32.835  0.00  0.00    -0.244 OA
ATOM     12  C   UNL d   1      60.032   0.681  30.045  0.00  0.00     0.004 A 
ATOM     13  C   UNL d   1      59.270   0.112  28.696  0.00  0.00     0.025 A 
ATOM     14  C   UNL d   1      60.437   0.659  29.320  0.00  0.00     0.000 A 
ATOM     15  C   UNL d   1      60.056   0.375  28.646  0.00  0.00     0.002 A 
ENDROOT
BRANCH   2  16
ATOM     16  C   UNL d   1      56.815   0.059  32.261  0.00  0.00     0.071 A 
ATOM     17  C   UNL d   1      56.301   0.682  32.419  0.00  0.00     0.018 A 
ATOM     18  C   UNL d   1      55.664   0.571  32.931  0.00  0.00     0.002 A 
ATOM     19  C   UNL d   1      55.544  -0.164  33.283  0.00  0.00     0.000 A 
ATOM     20  C   UNL d   1      56.051  -0.788  33.129  0.00  0.00     0.002 A 
ATOM     21  C   UNL d   1      54.903  -0.275  33.797  0.00  0.00     0.000 C 
ATOM     22  C   UNL d   1      56.691  -0.674  32.614  0.00  0.00     0.018 A 
ENDBRANCH   2  16
TORSDOF 1
ENDMDL
MODEL 2
REMARK VINA RESULT:      -4.4      1.245      1.859
REMARK  1 active torsions:
REMARK  status: ('A' for Active; 'I' for Inactive)
REMARK    1  A    between atoms: C_10  and  N_2 
ROOT
ATOM      1  C   UNL d   1      57.795  -0.378  31.077  0.00  0.00     0.174 A 
ATOM      2  N   UNL d   1      56.798  -0.534  32.084  0.00  0.00    -0.224 N 
ATOM      3  C   UNL d   1      57.384  -0.083  31.724  0.00  0.00     0.292 A 
ATOM      4  C   UNL d   1      57.624  -1.121  30.786  0.00  0.00     0.115 A 
ATOM      5  C   UNL d   1      56.622  -1.278  31.797  0.00  0.00     0.356 A 
ATOM      6  N   UNL d   1      57.038  -1.571  31.146  0.00  0.00    -0.190 NA
ATOM      7  O   UNL d   1      58.402  -0.052  30.613  0.00  0.00    -0.301 OA
ATOM      8  C   UNL d   1      58.121  -1.266  30.139  0.00  0.00     0.043 A 
ATOM      9  C   UNL d   1      58.603  -0.605  30.032  0.00  0.00     0.102 A 
ATOM     10  O   UNL d   1      57.557   0.681  32.026  0.00  0.00    -0.264 OA
ATOM     11  O   UNL d   1      56.029  -1.739  32.159  0.00  0.00    -0.244 OA
ATOM     12  C   UNL d   1      58.190  -1.912  29.644  0.00  0.00     0.004 A 
ATOM     13  C   UNL d   1      59.153  -0.589  29.430  0.00  0.00     0.025 A 
ATOM     14  C   UNL d   1      58.749  -1.903  29.029  0.00  0.00     0.000 A 
ATOM     15  C   UNL d   1      59.230  -1.241  28.922  0.00  0.00     0.002 A 
ENDROOT
BRANCH   2  16
ATOM     16  C   UNL d   1      56.383  -0.235  32.738  0.00  0.00     0.071 A 
ATOM     17  C   UNL d   1      56.668  -0.356  33.500  0.00  0.00     0.018 A 
ATOM     18  C   UNL d   1      56.255  -0.058  34.147  0.00  0.00     0.002 A 
ATOM     19  C   UNL d   1      55.555   0.362  34.029  0.00  0.00     0.000 A 
ATOM     20  C   UNL d   1      55.266   0.486  33.273  0.00  0.00     0.002 A 
ATOM     21  C   UNL d   1      55.138   0.662  34.680  0.00  0.00     0.000 C 
ATOM     22  C   UNL d   1      55.684   0.185  32.624  0.00  0.00     0.018 A 
ENDBRANCH   2  16
TORSDOF 1
ENDMDL
