MODEL 1
REMARK VINA RESULT:       7.4      0.000      0.000
REMARK  3 active torsions:
REMARK  status: ('A' for Active; 'I' for Inactive)
REMARK       I    between atoms: C_2  and  N_1 
REMARK    1  A    between atoms: C_4  and  N_1 
REMARK    2  A    between atoms: C_5  and  N_1 
REMARK    3  A    between atoms: C_6  and  C_2 
ROOT
ATOM      1  N   UNL d   1     -51.395  24.735  33.322  0.00  0.00    -0.274 N 
ATOM      2  C   UNL d   1     -52.215  24.551  33.315  0.00  0.00     0.276 C 
ATOM      3  O   UNL d   1     -52.763  25.152  33.309  0.00  0.00    -0.266 OA
ENDROOT
BRANCH   1   4
ATOM      4  C   UNL d   1     -51.147  25.520  33.322  0.00  0.00     0.067 A 
ATOM      5  C   UNL d   1     -51.694  26.138  33.308  0.00  0.00     0.018 A 
ATOM      6  C   UNL d   1     -51.410  26.917  33.310  0.00  0.00     0.002 A 
ATOM      7  C   UNL d   1     -50.601  27.074  33.324  0.00  0.00     0.000 A 
ATOM      8  C   UNL d   1     -50.070  26.457  33.337  0.00  0.00     0.002 A 
ATOM      9  C   UNL d   1     -50.336  25.674  33.337  0.00  0.00     0.018 A 
ENDBRANCH   1   4
BRANCH   1  10
ATOM     10  C   UNL d   1     -50.857  24.119  33.328  0.00  0.00     0.067 C 
ATOM     11  C   UNL d   1     -51.150  23.326  33.333  0.00  0.00     0.019 C 
ATOM     12  C   UNL d   1     -50.044  24.238  33.329  0.00  0.00     0.019 C 
ENDBRANCH   1  10
BRANCH   2  13
ATOM     13  C   UNL d   1     -52.448  23.765  33.314  0.00  0.00     0.129 C 
ATOM     14 CL   UNL d   1     -53.257  23.592  33.350  0.00  0.00    -0.076 Cl
ENDBRANCH   2  13
TORSDOF 3
ENDMDL
