MODEL 1
REMARK VINA RESULT:      72.3      0.000      0.000
REMARK  6 active torsions:
REMARK  status: ('A' for Active; 'I' for Inactive)
REMARK    1  A    between atoms: C_5  and  N_1 
REMARK    2  A    between atoms: C_2  and  C_4 
REMARK       I    between atoms: N_3  and  C_2 
REMARK    3  A    between atoms: C_7  and  N_3 
REMARK       I    between atoms: C_4  and  N_8 
REMARK    4  A    between atoms: C_10  and  C_5 
REMARK    5  A    between atoms: C_14  and  C_5 
REMARK    6  A    between atoms: N_8  and  C_10 
ROOT
ATOM      1  C   UNL d   1     -50.343  26.186  33.440  0.00  0.00     0.085 C 
ENDROOT
BRANCH   1   2
ATOM      2  N   UNL d   1     -51.126  25.883  33.407  0.00  0.00    -0.302 N 
ATOM      3  C   UNL d   1     -51.259  25.068  33.416  0.00  0.00     0.080 A 
ATOM      4  C   UNL d   1     -52.028  24.776  33.383  0.00  0.00     0.018 A 
ATOM      5  C   UNL d   1     -52.162  23.957  33.393  0.00  0.00     0.002 A 
ATOM      6  C   UNL d   1     -52.664  25.297  33.341  0.00  0.00     0.003 A 
ATOM      7  C   UNL d   1     -52.931  23.656  33.360  0.00  0.00     0.000 A 
ATOM      8  C   UNL d   1     -53.570  24.186  33.317  0.00  0.00     0.000 A 
ATOM      9  C   UNL d   1     -53.437  25.005  33.308  0.00  0.00     0.000 A 
ATOM     10  C   UNL d   1     -52.531  26.111  33.331  0.00  0.00     0.019 A 
ATOM     11  C   UNL d   1     -51.763  26.404  33.364  0.00  0.00     0.080 A 
ENDBRANCH   1   2
BRANCH   1  12
ATOM     12  C   UNL d   1     -50.217  26.998  33.516  0.00  0.00     0.120 C 
BRANCH  12  13
ATOM     13  N   UNL d   1     -49.731  27.290  34.114  0.00  0.00    -0.201 NA
ATOM     14  C   UNL d   1     -49.521  28.096  34.125  0.00  0.00     0.337 C 
ATOM     15  O   UNL d   1     -49.801  28.603  33.535  0.00  0.00    -0.260 OA
BRANCH  14  16
ATOM     16  C   UNL d   1     -49.037  28.387  34.723  0.00  0.00     0.337 C 
ATOM     17  N   UNL d   1     -48.458  28.956  34.549  0.00  0.00    -0.202 NA
ATOM     18  O   UNL d   1     -49.124  28.113  35.502  0.00  0.00    -0.260 OA
BRANCH  17  19
ATOM     19  C   UNL d   1     -47.971  29.247  35.155  0.00  0.00     0.112 A 
ATOM     20  C   UNL d   1     -47.151  29.189  35.084  0.00  0.00     0.160 A 
ATOM     21  C   UNL d   1     -46.664  29.473  35.675  0.00  0.00     0.061 A 
ATOM     22  F   UNL d   1     -46.806  28.838  34.403  0.00  0.00    -0.203 F 
ATOM     23  C   UNL d   1     -46.997  29.822  36.352  0.00  0.00     0.142 A 
ATOM     24  C   UNL d   1     -47.817  29.879  36.423  0.00  0.00     0.031 A 
ATOM     25  F   UNL d   1     -46.498  30.110  36.954  0.00  0.00    -0.204 F 
ATOM     26  C   UNL d   1     -48.304  29.588  35.817  0.00  0.00     0.024 A 
ENDBRANCH  17  19
ENDBRANCH  14  16
ENDBRANCH  12  13
ENDBRANCH   1  12
BRANCH   1  27
ATOM     27  C   UNL d   1     -49.705  25.668  33.397  0.00  0.00     0.037 A 
ATOM     28  C   UNL d   1     -48.937  25.964  33.372  0.00  0.00     0.100 A 
ATOM     29  N   UNL d   1     -48.299  25.447  33.328  0.00  0.00    -0.242 NA
ATOM     30  C   UNL d   1     -48.429  24.628  33.310  0.00  0.00     0.099 A 
ATOM     31  C   UNL d   1     -49.196  24.331  33.336  0.00  0.00     0.021 A 
ATOM     32  C   UNL d   1     -49.835  24.850  33.379  0.00  0.00     0.005 A 
ENDBRANCH   1  27
TORSDOF 6
ENDMDL
