MODEL 1
REMARK VINA RESULT:      18.3      0.000      0.000
REMARK  5 active torsions:
REMARK  status: ('A' for Active; 'I' for Inactive)
REMARK    1  A    between atoms: N_5  and  S_1 
REMARK    2  A    between atoms: C_10  and  S_1 
REMARK    3  A    between atoms: C_2  and  N_6 
REMARK    4  A    between atoms: C_20  and  N_5 
REMARK    5  A    between atoms: C_7  and  C_14 
REMARK       I    between atoms: N_8  and  C_7 
ROOT
ATOM      1  C   UNL d   1     -41.691-122.331 -49.561  0.00  0.00     0.104 A 
ATOM      2  C   UNL d   1     -41.520-121.314 -50.825  0.00  0.00     0.057 A 
ATOM      3  C   UNL d   1     -41.203-122.516 -50.212  0.00  0.00     0.013 A 
ATOM      4  C   UNL d   1     -42.091-121.627 -49.555  0.00  0.00     0.013 A 
ATOM      5  C   UNL d   1     -41.129-121.995 -50.838  0.00  0.00     0.005 A 
ATOM      6  C   UNL d   1     -42.011-121.112 -50.185  0.00  0.00     0.005 A 
ENDROOT
BRANCH   2   7
ATOM      7  C   UNL d   1     -41.436-120.797 -51.462  0.00  0.00     0.265 C 
ATOM      8  N   UNL d   1     -41.660-121.028 -52.224  0.00  0.00    -0.269 N 
ATOM      9  C   UNL d   1     -41.593-120.533 -52.911  0.00  0.00     0.102 A 
ATOM     10  C   UNL d   1     -41.966-121.776 -52.349  0.00  0.00     0.102 A 
ATOM     11  C   UNL d   1     -41.808-120.752 -53.650  0.00  0.00     0.101 A 
ATOM     12  N   UNL d   1     -42.115-121.509 -53.751  0.00  0.00    -0.281 N 
ATOM     13  C   UNL d   1     -42.205-122.026 -53.152  0.00  0.00     0.101 A 
ATOM     14  O   UNL d   1     -41.123-120.040 -51.323  0.00  0.00    -0.267 OA
BRANCH  12  15
ATOM     15  C   UNL d   1     -42.340-121.756 -54.490  0.00  0.00     0.179 A 
ATOM     16  N   UNL d   1     -42.977-122.287 -54.684  0.00  0.00    -0.222 NA
ATOM     17  C   UNL d   1     -42.960-122.346 -55.507  0.00  0.00     0.089 A 
ATOM     18  C   UNL d   1     -43.424-122.767 -56.039  0.00  0.00     0.020 A 
ATOM     19  C   UNL d   1     -42.342-121.869 -55.760  0.00  0.00     0.050 A 
ATOM     20  C   UNL d   1     -43.285-122.729 -56.883  0.00  0.00     0.002 A 
ATOM     21  C   UNL d   1     -42.643-122.233 -57.129  0.00  0.00     0.001 A 
ATOM     22  C   UNL d   1     -42.176-121.808 -56.580  0.00  0.00     0.008 A 
ATOM     23  S   UNL d   1     -41.978-121.519 -55.115  0.00  0.00    -0.048 SA
ENDBRANCH  12  15
ENDBRANCH   2   7
BRANCH   1  24
ATOM     24  S   UNL d   1     -41.753-122.875 -48.935  0.00  0.00     0.271 S 
ATOM     25  O   UNL d   1     -41.564-122.259 -48.396  0.00  0.00    -0.200 OA
ATOM     26  O   UNL d   1     -41.941-123.492 -49.467  0.00  0.00    -0.200 OA
BRANCH  24  27
ATOM     27  N   UNL d   1     -41.810-123.404 -48.299  0.00  0.00    -0.229 N 
ATOM     28  C   UNL d   1     -41.128-123.797 -48.021  0.00  0.00     0.111 C 
BRANCH  27  29
ATOM     29  C   UNL d   1     -42.540-123.541 -47.943  0.00  0.00     0.075 A 
ATOM     30  C   UNL d   1     -42.603-123.564 -47.118  0.00  0.00     0.018 A 
ATOM     31  C   UNL d   1     -43.331-123.701 -46.762  0.00  0.00     0.002 A 
ATOM     32  C   UNL d   1     -44.011-123.817 -47.223  0.00  0.00     0.000 A 
ATOM     33  C   UNL d   1     -43.937-123.792 -48.051  0.00  0.00     0.002 A 
ATOM     34  C   UNL d   1     -43.207-123.655 -48.407  0.00  0.00     0.018 A 
ENDBRANCH  27  29
ENDBRANCH  24  27
ENDBRANCH   1  24
TORSDOF 5
ENDMDL
