MODEL 1
REMARK VINA RESULT:      -8.3      0.000      0.000
REMARK  4 active torsions:
REMARK  status: ('A' for Active; 'I' for Inactive)
REMARK    1  A    between atoms: C_10  and  N_3 
REMARK    2  A    between atoms: C_12  and  N_7 
REMARK    3  A    between atoms: C_19  and  C_12 
REMARK    4  A    between atoms: C_20  and  C_19 
ROOT
ATOM      1  C   UNL d   1      52.442  32.621  53.207  0.00  0.00     0.172 A 
ATOM      2  C   UNL d   1      52.691  33.398  53.085  0.00  0.00     0.113 A 
ATOM      3  N   UNL d   1      53.122  32.158  53.319  0.00  0.00    -0.212 N 
ATOM      4  N   UNL d   1      51.643  32.438  53.201  0.00  0.00    -0.206 NA
ATOM      5  C   UNL d   1      52.141  33.992  52.957  0.00  0.00     0.270 A 
ATOM      6  N   UNL d   1      53.772  32.651  53.265  0.00  0.00    -0.162 NA
ATOM      7  N   UNL d   1      51.333  33.812  52.949  0.00  0.00    -0.255 N 
ATOM      8  C   UNL d   1      53.520  33.401  53.124  0.00  0.00     0.129 A 
ATOM      9  C   UNL d   1      51.084  33.035  53.071  0.00  0.00     0.187 A 
ATOM     10  O   UNL d   1      52.390  34.769  52.834  0.00  0.00    -0.266 OA
ENDROOT
BRANCH   3  11
ATOM     11  C   UNL d   1      53.176  31.358  53.460  0.00  0.00     0.085 A 
ATOM     12  C   UNL d   1      53.377  31.083  54.213  0.00  0.00     0.021 A 
ATOM     13  C   UNL d   1      53.431  30.274  54.352  0.00  0.00     0.031 A 
ATOM     14  C   UNL d   1      53.290  29.734  53.761  0.00  0.00     0.140 A 
ATOM     15  C   UNL d   1      53.085  30.012  52.993  0.00  0.00     0.031 A 
ATOM     16  F   UNL d   1      53.350  28.913  53.923  0.00  0.00    -0.204 F 
ATOM     17  C   UNL d   1      53.029  30.815  52.845  0.00  0.00     0.021 A 
ENDBRANCH   3  11
BRANCH   7  18
ATOM     18  C   UNL d   1      50.766  34.411  52.819  0.00  0.00     0.085 C 
BRANCH  18  19
ATOM     19  C   UNL d   1      49.959  34.216  52.765  0.00  0.00     0.019 C 
BRANCH  19  20
ATOM     20  C   UNL d   1      49.412  34.804  52.549  0.00  0.00     0.002 C 
ATOM     21  C   UNL d   1      49.158  34.845  51.766  0.00  0.00     0.000 C 
ATOM     22  C   UNL d   1      49.132  35.331  53.106  0.00  0.00     0.000 C 
ENDBRANCH  19  20
ENDBRANCH  18  19
ENDBRANCH   7  18
TORSDOF 4
ENDMDL
MODEL 2
REMARK VINA RESULT:      -8.2      1.913      4.520
REMARK  4 active torsions:
REMARK  status: ('A' for Active; 'I' for Inactive)
REMARK    1  A    between atoms: C_10  and  N_3 
REMARK    2  A    between atoms: C_12  and  N_7 
REMARK    3  A    between atoms: C_19  and  C_12 
REMARK    4  A    between atoms: C_20  and  C_19 
ROOT
ATOM      1  C   UNL d   1      52.335  32.954  53.127  0.00  0.00     0.172 A 
ATOM      2  C   UNL d   1      53.090  32.992  53.459  0.00  0.00     0.113 A 
ATOM      3  N   UNL d   1      52.077  33.734  53.010  0.00  0.00    -0.212 N 
ATOM      4  N   UNL d   1      51.986  32.227  52.977  0.00  0.00    -0.206 NA
ATOM      5  C   UNL d   1      53.495  32.302  53.641  0.00  0.00     0.270 A 
ATOM      6  N   UNL d   1      52.669  34.235  53.268  0.00  0.00    -0.162 NA
ATOM      7  N   UNL d   1      53.147  31.566  53.491  0.00  0.00    -0.255 N 
ATOM      8  C   UNL d   1      53.284  33.794  53.540  0.00  0.00     0.129 A 
ATOM      9  C   UNL d   1      52.392  31.528  53.160  0.00  0.00     0.187 A 
ATOM     10  O   UNL d   1      54.249  32.340  53.972  0.00  0.00    -0.266 OA
ENDROOT
BRANCH   3  11
ATOM     11  C   UNL d   1      51.371  33.996  52.698  0.00  0.00     0.085 A 
ATOM     12  C   UNL d   1      50.740  34.177  53.200  0.00  0.00     0.021 A 
ATOM     13  C   UNL d   1      50.029  34.442  52.882  0.00  0.00     0.031 A 
ATOM     14  C   UNL d   1      49.932  34.529  52.080  0.00  0.00     0.140 A 
ATOM     15  C   UNL d   1      50.574  34.344  51.567  0.00  0.00     0.031 A 
ATOM     16  F   UNL d   1      49.199  34.800  51.775  0.00  0.00    -0.204 F 
ATOM     17  C   UNL d   1      51.285  34.081  51.874  0.00  0.00     0.021 A 
ENDBRANCH   3  11
BRANCH   7  18
ATOM     18  C   UNL d   1      53.553  30.860  53.673  0.00  0.00     0.085 C 
BRANCH  18  19
ATOM     19  C   UNL d   1      53.145  30.136  53.682  0.00  0.00     0.019 C 
BRANCH  19  20
ATOM     20  C   UNL d   1      53.511  29.467  54.014  0.00  0.00     0.002 C 
ATOM     21  C   UNL d   1      53.191  29.134  54.697  0.00  0.00     0.000 C 
ATOM     22  C   UNL d   1      54.177  29.145  53.667  0.00  0.00     0.000 C 
ENDBRANCH  19  20
ENDBRANCH  18  19
ENDBRANCH   7  18
TORSDOF 4
ENDMDL
MODEL 3
REMARK VINA RESULT:      -7.8      1.877      2.483
REMARK  4 active torsions:
REMARK  status: ('A' for Active; 'I' for Inactive)
REMARK    1  A    between atoms: C_10  and  N_3 
REMARK    2  A    between atoms: C_12  and  N_7 
REMARK    3  A    between atoms: C_19  and  C_12 
REMARK    4  A    between atoms: C_20  and  C_19 
ROOT
ATOM      1  C   UNL d   1      52.722  33.084  53.655  0.00  0.00     0.172 A 
ATOM      2  C   UNL d   1      52.271  32.521  53.255  0.00  0.00     0.113 A 
ATOM      3  N   UNL d   1      53.417  32.709  53.911  0.00  0.00    -0.212 N 
ATOM      4  N   UNL d   1      52.448  33.854  53.733  0.00  0.00    -0.206 NA
ATOM      5  C   UNL d   1      51.545  32.728  52.934  0.00  0.00     0.270 A 
ATOM      6  N   UNL d   1      53.383  31.929  53.667  0.00  0.00    -0.162 NA
ATOM      7  N   UNL d   1      51.264  33.502  53.010  0.00  0.00    -0.255 N 
ATOM      8  C   UNL d   1      52.695  31.808  53.271  0.00  0.00     0.129 A 
ATOM      9  C   UNL d   1      51.715  34.065  53.410  0.00  0.00     0.187 A 
ATOM     10  O   UNL d   1      51.094  32.164  52.534  0.00  0.00    -0.266 OA
ENDROOT
BRANCH   3  11
ATOM     11  C   UNL d   1      54.041  33.022  54.329  0.00  0.00     0.085 A 
ATOM     12  C   UNL d   1      54.029  33.018  55.155  0.00  0.00     0.021 A 
ATOM     13  C   UNL d   1      54.661  33.335  55.575  0.00  0.00     0.031 A 
ATOM     14  C   UNL d   1      55.303  33.655  55.193  0.00  0.00     0.140 A 
ATOM     15  C   UNL d   1      55.317  33.661  54.351  0.00  0.00     0.031 A 
ATOM     16  F   UNL d   1      55.938  33.974  55.639  0.00  0.00    -0.204 F 
ATOM     17  C   UNL d   1      54.693  33.348  53.925  0.00  0.00     0.021 A 
ENDBRANCH   3  11
BRANCH   7  18
ATOM     18  C   UNL d   1      50.526  33.720  52.686  0.00  0.00     0.085 C 
BRANCH  18  19
ATOM     19  C   UNL d   1      50.345  34.522  52.566  0.00  0.00     0.019 C 
BRANCH  19  20
ATOM     20  C   UNL d   1      49.583  34.733  52.306  0.00  0.00     0.002 C 
ATOM     21  C   UNL d   1      49.083  35.138  52.820  0.00  0.00     0.000 C 
ATOM     22  C   UNL d   1      49.336  34.540  51.551  0.00  0.00     0.000 C 
ENDBRANCH  19  20
ENDBRANCH  18  19
ENDBRANCH   7  18
TORSDOF 4
ENDMDL
MODEL 4
REMARK VINA RESULT:      -6.7      1.998      2.458
REMARK  4 active torsions:
REMARK  status: ('A' for Active; 'I' for Inactive)
REMARK    1  A    between atoms: C_10  and  N_3 
REMARK    2  A    between atoms: C_12  and  N_7 
REMARK    3  A    between atoms: C_19  and  C_12 
REMARK    4  A    between atoms: C_20  and  C_19 
ROOT
ATOM      1  C   UNL d   1      53.083  31.550  53.563  0.00  0.00     0.172 A 
ATOM      2  C   UNL d   1      52.762  31.993  52.946  0.00  0.00     0.113 A 
ATOM      3  N   UNL d   1      52.974  30.749  53.377  0.00  0.00    -0.212 N 
ATOM      4  N   UNL d   1      53.429  31.927  54.205  0.00  0.00    -0.206 NA
ATOM      5  C   UNL d   1      52.786  32.812  52.970  0.00  0.00     0.270 A 
ATOM      6  N   UNL d   1      52.590  30.710  52.656  0.00  0.00    -0.162 NA
ATOM      7  N   UNL d   1      53.134  33.197  53.615  0.00  0.00    -0.255 N 
ATOM      8  C   UNL d   1      52.459  31.457  52.389  0.00  0.00     0.129 A 
ATOM      9  C   UNL d   1      53.455  32.754  54.233  0.00  0.00     0.187 A 
ATOM     10  O   UNL d   1      52.464  33.255  52.353  0.00  0.00    -0.266 OA
ENDROOT
BRANCH   3  11
ATOM     11  C   UNL d   1      53.192  30.092  53.805  0.00  0.00     0.085 A 
ATOM     12  C   UNL d   1      52.722  29.833  54.434  0.00  0.00     0.021 A 
ATOM     13  C   UNL d   1      52.946  29.169  54.865  0.00  0.00     0.031 A 
ATOM     14  C   UNL d   1      53.622  28.757  54.685  0.00  0.00     0.140 A 
ATOM     15  C   UNL d   1      54.102  29.019  54.044  0.00  0.00     0.031 A 
ATOM     16  F   UNL d   1      53.833  28.081  55.136  0.00  0.00    -0.204 F 
ATOM     17  C   UNL d   1      53.889  29.678  53.610  0.00  0.00     0.021 A 
ENDBRANCH   3  11
BRANCH   7  18
ATOM     18  C   UNL d   1      53.162  34.031  53.648  0.00  0.00     0.085 C 
BRANCH  18  19
ATOM     19  C   UNL d   1      53.229  34.417  54.380  0.00  0.00     0.019 C 
BRANCH  19  20
ATOM     20  C   UNL d   1      53.157  35.245  54.412  0.00  0.00     0.002 C 
ATOM     21  C   UNL d   1      52.526  35.576  54.826  0.00  0.00     0.000 C 
ATOM     22  C   UNL d   1      53.705  35.721  54.038  0.00  0.00     0.000 C 
ENDBRANCH  19  20
ENDBRANCH  18  19
ENDBRANCH   7  18
TORSDOF 4
ENDMDL
MODEL 5
REMARK VINA RESULT:      -6.6      2.450      4.678
REMARK  4 active torsions:
REMARK  status: ('A' for Active; 'I' for Inactive)
REMARK    1  A    between atoms: C_10  and  N_3 
REMARK    2  A    between atoms: C_12  and  N_7 
REMARK    3  A    between atoms: C_19  and  C_12 
REMARK    4  A    between atoms: C_20  and  C_19 
ROOT
ATOM      1  C   UNL d   1      52.883  32.841  53.509  0.00  0.00     0.172 A 
ATOM      2  C   UNL d   1      52.556  32.312  52.966  0.00  0.00     0.113 A 
ATOM      3  N   UNL d   1      52.605  33.598  53.316  0.00  0.00    -0.212 N 
ATOM      4  N   UNL d   1      53.383  32.569  54.100  0.00  0.00    -0.206 NA
ATOM      5  C   UNL d   1      52.730  31.512  53.014  0.00  0.00     0.270 A 
ATOM      6  N   UNL d   1      52.116  33.526  52.664  0.00  0.00    -0.162 NA
ATOM      7  N   UNL d   1      53.234  31.233  53.608  0.00  0.00    -0.255 N 
ATOM      8  C   UNL d   1      52.082  32.753  52.447  0.00  0.00     0.129 A 
ATOM      9  C   UNL d   1      53.560  31.761  54.151  0.00  0.00     0.187 A 
ATOM     10  O   UNL d   1      52.403  30.984  52.471  0.00  0.00    -0.266 OA
ENDROOT
BRANCH   3  11
ATOM     11  C   UNL d   1      52.764  34.308  53.682  0.00  0.00     0.085 A 
ATOM     12  C   UNL d   1      52.335  34.535  54.350  0.00  0.00     0.021 A 
ATOM     13  C   UNL d   1      52.498  35.252  54.717  0.00  0.00     0.031 A 
ATOM     14  C   UNL d   1      53.076  35.748  54.435  0.00  0.00     0.140 A 
ATOM     15  C   UNL d   1      53.515  35.520  53.754  0.00  0.00     0.031 A 
ATOM     16  F   UNL d   1      53.228  36.477  54.823  0.00  0.00    -0.204 F 
ATOM     17  C   UNL d   1      53.360  34.808  53.382  0.00  0.00     0.021 A 
ENDBRANCH   3  11
BRANCH   7  18
ATOM     18  C   UNL d   1      53.415  30.420  53.664  0.00  0.00     0.085 C 
BRANCH  18  19
ATOM     19  C   UNL d   1      53.372  30.033  54.398  0.00  0.00     0.019 C 
BRANCH  19  20
ATOM     20  C   UNL d   1      53.488  29.210  54.432  0.00  0.00     0.002 C 
ATOM     21  C   UNL d   1      53.281  28.805  55.119  0.00  0.00     0.000 C 
ATOM     22  C   UNL d   1      53.803  28.811  53.792  0.00  0.00     0.000 C 
ENDBRANCH  19  20
ENDBRANCH  18  19
ENDBRANCH   7  18
TORSDOF 4
ENDMDL
MODEL 6
REMARK VINA RESULT:      -6.6      1.844      2.299
REMARK  4 active torsions:
REMARK  status: ('A' for Active; 'I' for Inactive)
REMARK    1  A    between atoms: C_10  and  N_3 
REMARK    2  A    between atoms: C_12  and  N_7 
REMARK    3  A    between atoms: C_19  and  C_12 
REMARK    4  A    between atoms: C_20  and  C_19 
ROOT
ATOM      1  C   UNL d   1      52.082  33.813  53.320  0.00  0.00     0.172 A 
ATOM      2  C   UNL d   1      51.809  33.759  52.543  0.00  0.00     0.113 A 
ATOM      3  N   UNL d   1      52.832  33.459  53.344  0.00  0.00    -0.212 N 
ATOM      4  N   UNL d   1      51.621  34.172  53.896  0.00  0.00    -0.206 NA
ATOM      5  C   UNL d   1      51.074  34.063  52.343  0.00  0.00     0.270 A 
ATOM      6  N   UNL d   1      53.008  33.195  52.590  0.00  0.00    -0.162 NA
ATOM      7  N   UNL d   1      50.605  34.426  52.920  0.00  0.00    -0.255 N 
ATOM      8  C   UNL d   1      52.395  33.373  52.102  0.00  0.00     0.129 A 
ATOM      9  C   UNL d   1      50.878  34.480  53.697  0.00  0.00     0.187 A 
ATOM     10  O   UNL d   1      50.801  34.009  51.566  0.00  0.00    -0.266 OA
ENDROOT
BRANCH   3  11
ATOM     11  C   UNL d   1      53.334  33.370  53.979  0.00  0.00     0.085 A 
ATOM     12  C   UNL d   1      53.432  32.628  54.327  0.00  0.00     0.021 A 
ATOM     13  C   UNL d   1      53.940  32.541  54.969  0.00  0.00     0.031 A 
ATOM     14  C   UNL d   1      54.350  33.174  55.271  0.00  0.00     0.140 A 
ATOM     15  C   UNL d   1      54.251  33.932  54.917  0.00  0.00     0.031 A 
ATOM     16  F   UNL d   1      54.863  33.065  55.926  0.00  0.00    -0.204 F 
ATOM     17  C   UNL d   1      53.749  34.028  54.279  0.00  0.00     0.021 A 
ENDBRANCH   3  11
BRANCH   7  18
ATOM     18  C   UNL d   1      49.856  34.738  52.724  0.00  0.00     0.085 C 
BRANCH  18  19
ATOM     19  C   UNL d   1      49.423  35.168  53.289  0.00  0.00     0.019 C 
BRANCH  19  20
ATOM     20  C   UNL d   1      48.696  35.507  53.072  0.00  0.00     0.002 C 
ATOM     21  C   UNL d   1      48.307  35.998  53.609  0.00  0.00     0.000 C 
ATOM     22  C   UNL d   1      48.372  35.356  52.337  0.00  0.00     0.000 C 
ENDBRANCH  19  20
ENDBRANCH  18  19
ENDBRANCH   7  18
TORSDOF 4
ENDMDL
MODEL 7
REMARK VINA RESULT:      -6.0      2.309      4.554
REMARK  4 active torsions:
REMARK  status: ('A' for Active; 'I' for Inactive)
REMARK    1  A    between atoms: C_10  and  N_3 
REMARK    2  A    between atoms: C_12  and  N_7 
REMARK    3  A    between atoms: C_19  and  C_12 
REMARK    4  A    between atoms: C_20  and  C_19 
ROOT
ATOM      1  C   UNL d   1      52.010  33.400  53.203  0.00  0.00     0.172 A 
ATOM      2  C   UNL d   1      52.407  32.679  53.262  0.00  0.00     0.113 A 
ATOM      3  N   UNL d   1      51.282  33.253  52.833  0.00  0.00    -0.212 N 
ATOM      4  N   UNL d   1      52.357  34.086  53.489  0.00  0.00    -0.206 NA
ATOM      5  C   UNL d   1      53.150  32.645  53.606  0.00  0.00     0.270 A 
ATOM      6  N   UNL d   1      51.242  32.452  52.671  0.00  0.00    -0.162 NA
ATOM      7  N   UNL d   1      53.504  33.334  53.897  0.00  0.00    -0.255 N 
ATOM      8  C   UNL d   1      51.917  32.099  52.927  0.00  0.00     0.129 A 
ATOM      9  C   UNL d   1      53.107  34.055  53.838  0.00  0.00     0.187 A 
ATOM     10  O   UNL d   1      53.547  31.924  53.665  0.00  0.00    -0.266 OA
ENDROOT
BRANCH   3  11
ATOM     11  C   UNL d   1      50.689  33.779  52.647  0.00  0.00     0.085 A 
ATOM     12  C   UNL d   1      50.207  34.087  53.243  0.00  0.00     0.021 A 
ATOM     13  C   UNL d   1      49.609  34.618  53.052  0.00  0.00     0.031 A 
ATOM     14  C   UNL d   1      49.480  34.849  52.284  0.00  0.00     0.140 A 
ATOM     15  C   UNL d   1      49.970  34.537  51.675  0.00  0.00     0.031 A 
ATOM     16  F   UNL d   1      48.864  35.392  52.109  0.00  0.00    -0.204 F 
ATOM     17  C   UNL d   1      50.567  34.008  51.855  0.00  0.00     0.021 A 
ENDBRANCH   3  11
BRANCH   7  18
ATOM     18  C   UNL d   1      54.260  33.308  54.249  0.00  0.00     0.085 C 
BRANCH  18  19
ATOM     19  C   UNL d   1      54.512  33.928  54.742  0.00  0.00     0.019 C 
BRANCH  19  20
ATOM     20  C   UNL d   1      55.232  33.855  55.153  0.00  0.00     0.002 C 
ATOM     21  C   UNL d   1      55.938  33.979  54.747  0.00  0.00     0.000 C 
ATOM     22  C   UNL d   1      55.236  33.663  55.947  0.00  0.00     0.000 C 
ENDBRANCH  19  20
ENDBRANCH  18  19
ENDBRANCH   7  18
TORSDOF 4
ENDMDL
MODEL 8
REMARK VINA RESULT:      -5.9      2.469      3.596
REMARK  4 active torsions:
REMARK  status: ('A' for Active; 'I' for Inactive)
REMARK    1  A    between atoms: C_10  and  N_3 
REMARK    2  A    between atoms: C_12  and  N_7 
REMARK    3  A    between atoms: C_19  and  C_12 
REMARK    4  A    between atoms: C_20  and  C_19 
ROOT
ATOM      1  C   UNL d   1      50.088  34.643  52.613  0.00  0.00     0.172 A 
ATOM      2  C   UNL d   1      49.616  34.606  51.938  0.00  0.00     0.113 A 
ATOM      3  N   UNL d   1      50.803  34.259  52.438  0.00  0.00    -0.212 N 
ATOM      4  N   UNL d   1      49.812  35.015  53.290  0.00  0.00    -0.206 NA
ATOM      5  C   UNL d   1      48.868  34.941  51.939  0.00  0.00     0.270 A 
ATOM      6  N   UNL d   1      50.761  33.994  51.665  0.00  0.00    -0.162 NA
ATOM      7  N   UNL d   1      48.585  35.318  52.619  0.00  0.00    -0.255 N 
ATOM      8  C   UNL d   1      50.048  34.200  51.357  0.00  0.00     0.129 A 
ATOM      9  C   UNL d   1      49.057  35.355  53.295  0.00  0.00     0.187 A 
ATOM     10  O   UNL d   1      48.396  34.905  51.263  0.00  0.00    -0.266 OA
ENDROOT
BRANCH   3  11
ATOM     11  C   UNL d   1      51.451  34.144  52.917  0.00  0.00     0.085 A 
ATOM     12  C   UNL d   1      51.513  33.457  53.372  0.00  0.00     0.021 A 
ATOM     13  C   UNL d   1      52.169  33.344  53.855  0.00  0.00     0.031 A 
ATOM     14  C   UNL d   1      52.763  33.897  53.895  0.00  0.00     0.140 A 
ATOM     15  C   UNL d   1      52.702  34.598  53.433  0.00  0.00     0.031 A 
ATOM     16  F   UNL d   1      53.425  33.764  54.394  0.00  0.00    -0.204 F 
ATOM     17  C   UNL d   1      52.053  34.719  52.949  0.00  0.00     0.021 A 
ENDBRANCH   3  11
BRANCH   7  18
ATOM     18  C   UNL d   1      47.824  35.662  52.629  0.00  0.00     0.085 C 
BRANCH  18  19
ATOM     19  C   UNL d   1      47.607  36.175  53.245  0.00  0.00     0.019 C 
BRANCH  19  20
ATOM     20  C   UNL d   1      46.808  36.389  53.334  0.00  0.00     0.002 C 
ATOM     21  C   UNL d   1      46.405  36.708  52.690  0.00  0.00     0.000 C 
ATOM     22  C   UNL d   1      46.430  36.285  54.051  0.00  0.00     0.000 C 
ENDBRANCH  19  20
ENDBRANCH  18  19
ENDBRANCH   7  18
TORSDOF 4
ENDMDL
