MODEL 1
REMARK VINA RESULT:      -3.3      0.000      0.000
REMARK  4 active torsions:
REMARK  status: ('A' for Active; 'I' for Inactive)
REMARK    1  A    between atoms: C_6  and  C_1 
REMARK    2  A    between atoms: C_8  and  N_3 
REMARK       I    between atoms: N_7  and  C_6 
REMARK    3  A    between atoms: C_9  and  N_7 
REMARK    4  A    between atoms: O_19  and  C_16 
ROOT
ATOM      1  C   UNL d   1      33.048  19.694 -22.738  0.00  0.00     0.199 A 
ATOM      2  C   UNL d   1      32.988  20.127 -22.041  0.00  0.00     0.211 A 
ATOM      3  N   UNL d   1      33.102  20.922 -22.219  0.00  0.00    -0.191 N 
ATOM      4  N   UNL d   1      33.234  20.982 -23.033  0.00  0.00    -0.058 NA
ATOM      5  N   UNL d   1      33.202  20.228 -23.358  0.00  0.00    -0.122 NA
ATOM      6  N   UNL d   1      32.839  19.815 -21.294  0.00  0.00    -0.125 N 
ENDROOT
BRANCH   1   7
ATOM      7  C   UNL d   1      32.970  18.874 -22.811  0.00  0.00     0.302 C 
ATOM      8  N   UNL d   1      32.618  18.555 -23.493  0.00  0.00    -0.204 NA
ATOM      9  O   UNL d   1      33.239  18.375 -22.213  0.00  0.00    -0.263 OA
BRANCH   8  10
ATOM     10  C   UNL d   1      32.543  17.736 -23.560  0.00  0.00     0.112 A 
ATOM     11  C   UNL d   1      31.841  17.418 -23.852  0.00  0.00     0.158 A 
ATOM     12  F   UNL d   1      31.224  17.911 -24.074  0.00  0.00    -0.203 F 
ATOM     13  C   UNL d   1      31.759  16.592 -23.922  0.00  0.00     0.031 A 
ATOM     14  C   UNL d   1      32.379  16.103 -23.699  0.00  0.00     0.002 A 
ATOM     15  C   UNL d   1      33.084  16.424 -23.405  0.00  0.00     0.002 A 
ATOM     16  C   UNL d   1      33.160  17.243 -23.338  0.00  0.00     0.021 A 
ENDBRANCH   8  10
ENDBRANCH   1   7
BRANCH   3  17
ATOM     17  C   UNL d   1      33.088  21.547 -21.683  0.00  0.00     0.086 A 
ATOM     18  C   UNL d   1      33.241  21.409 -20.884  0.00  0.00     0.021 A 
ATOM     19  C   UNL d   1      33.227  22.036 -20.348  0.00  0.00     0.026 A 
ATOM     20  C   UNL d   1      33.059  22.800 -20.611  0.00  0.00     0.094 A 
ATOM     21  C   UNL d   1      32.906  22.937 -21.409  0.00  0.00     0.026 A 
ATOM     22  C   UNL d   1      32.921  22.311 -21.946  0.00  0.00     0.021 A 
BRANCH  20  23
ATOM     23  O   UNL d   1      33.045  23.426 -20.075  0.00  0.00    -0.328 OA
ATOM     24  C   UNL d   1      33.146  23.282 -19.269  0.00  0.00     0.181 C 
ENDBRANCH  20  23
ENDBRANCH   3  17
TORSDOF 4
ENDMDL
MODEL 2
REMARK VINA RESULT:      -3.3      1.696      5.336
REMARK  4 active torsions:
REMARK  status: ('A' for Active; 'I' for Inactive)
REMARK    1  A    between atoms: C_6  and  C_1 
REMARK    2  A    between atoms: C_8  and  N_3 
REMARK       I    between atoms: N_7  and  C_6 
REMARK    3  A    between atoms: C_9  and  N_7 
REMARK    4  A    between atoms: O_19  and  C_16 
ROOT
ATOM      1  C   UNL d   1      32.959  19.876 -22.207  0.00  0.00     0.199 A 
ATOM      2  C   UNL d   1      32.704  19.514 -22.900  0.00  0.00     0.211 A 
ATOM      3  N   UNL d   1      32.824  18.703 -22.828  0.00  0.00    -0.191 N 
ATOM      4  N   UNL d   1      33.156  18.562 -22.084  0.00  0.00    -0.058 NA
ATOM      5  N   UNL d   1      33.241  19.281 -21.697  0.00  0.00    -0.122 NA
ATOM      6  N   UNL d   1      32.383  19.899 -23.554  0.00  0.00    -0.125 N 
ENDROOT
BRANCH   1   7
ATOM      7  C   UNL d   1      32.939  20.687 -22.045  0.00  0.00     0.302 C 
ATOM      8  N   UNL d   1      32.625  20.952 -21.323  0.00  0.00    -0.204 NA
ATOM      9  O   UNL d   1      33.228  21.228 -22.595  0.00  0.00    -0.263 OA
BRANCH   8  10
ATOM     10  C   UNL d   1      32.608  21.763 -21.167  0.00  0.00     0.112 A 
ATOM     11  C   UNL d   1      32.814  22.032 -20.416  0.00  0.00     0.158 A 
ATOM     12  F   UNL d   1      33.034  21.501 -19.830  0.00  0.00    -0.203 F 
ATOM     13  C   UNL d   1      32.799  22.849 -20.252  0.00  0.00     0.031 A 
ATOM     14  C   UNL d   1      32.579  23.376 -20.841  0.00  0.00     0.002 A 
ATOM     15  C   UNL d   1      32.372  23.103 -21.595  0.00  0.00     0.002 A 
ATOM     16  C   UNL d   1      32.389  22.293 -21.752  0.00  0.00     0.021 A 
ENDBRANCH   8  10
ENDBRANCH   1   7
BRANCH   3  17
ATOM     17  C   UNL d   1      32.645  18.132 -23.395  0.00  0.00     0.086 A 
ATOM     18  C   UNL d   1      33.223  17.890 -23.931  0.00  0.00     0.021 A 
ATOM     19  C   UNL d   1      33.045  17.318 -24.499  0.00  0.00     0.026 A 
ATOM     20  C   UNL d   1      32.288  16.990 -24.529  0.00  0.00     0.094 A 
ATOM     21  C   UNL d   1      31.711  17.232 -23.993  0.00  0.00     0.026 A 
ATOM     22  C   UNL d   1      31.890  17.804 -23.425  0.00  0.00     0.021 A 
BRANCH  20  23
ATOM     23  O   UNL d   1      32.110  16.418 -25.097  0.00  0.00    -0.328 OA
ATOM     24  C   UNL d   1      31.914  15.652 -24.863  0.00  0.00     0.181 C 
ENDBRANCH  20  23
ENDBRANCH   3  17
TORSDOF 4
ENDMDL
MODEL 3
REMARK VINA RESULT:      -2.4      1.028      1.508
REMARK  4 active torsions:
REMARK  status: ('A' for Active; 'I' for Inactive)
REMARK    1  A    between atoms: C_6  and  C_1 
REMARK    2  A    between atoms: C_8  and  N_3 
REMARK       I    between atoms: N_7  and  C_6 
REMARK    3  A    between atoms: C_9  and  N_7 
REMARK    4  A    between atoms: O_19  and  C_16 
ROOT
ATOM      1  C   UNL d   1      32.788  18.854 -23.634  0.00  0.00     0.199 A 
ATOM      2  C   UNL d   1      32.811  19.105 -22.851  0.00  0.00     0.211 A 
ATOM      3  N   UNL d   1      32.964  19.914 -22.843  0.00  0.00    -0.191 N 
ATOM      4  N   UNL d   1      33.037  20.165 -23.628  0.00  0.00    -0.058 NA
ATOM      5  N   UNL d   1      32.930  19.516 -24.119  0.00  0.00    -0.122 NA
ATOM      6  N   UNL d   1      32.699  18.628 -22.190  0.00  0.00    -0.125 N 
ENDROOT
BRANCH   1   7
ATOM      7  C   UNL d   1      32.649  18.081 -23.895  0.00  0.00     0.302 C 
ATOM      8  N   UNL d   1      31.913  17.887 -24.227  0.00  0.00    -0.204 NA
ATOM      9  O   UNL d   1      33.237  17.508 -23.825  0.00  0.00    -0.263 OA
BRANCH   8  10
ATOM     10  C   UNL d   1      31.781  17.114 -24.485  0.00  0.00     0.112 A 
ATOM     11  C   UNL d   1      31.015  16.811 -24.474  0.00  0.00     0.158 A 
ATOM     12  F   UNL d   1      30.390  17.273 -24.210  0.00  0.00    -0.203 F 
ATOM     13  C   UNL d   1      30.875  16.032 -24.733  0.00  0.00     0.031 A 
ATOM     14  C   UNL d   1      31.503  15.574 -24.996  0.00  0.00     0.002 A 
ATOM     15  C   UNL d   1      32.273  15.880 -25.007  0.00  0.00     0.002 A 
ATOM     16  C   UNL d   1      32.405  16.653 -24.749  0.00  0.00     0.021 A 
ENDBRANCH   8  10
ENDBRANCH   1   7
BRANCH   3  17
ATOM     17  C   UNL d   1      33.033  20.389 -22.174  0.00  0.00     0.086 A 
ATOM     18  C   UNL d   1      33.021  21.211 -22.249  0.00  0.00     0.021 A 
ATOM     19  C   UNL d   1      33.090  21.687 -21.579  0.00  0.00     0.026 A 
ATOM     20  C   UNL d   1      33.171  21.341 -20.835  0.00  0.00     0.094 A 
ATOM     21  C   UNL d   1      33.184  20.520 -20.760  0.00  0.00     0.026 A 
ATOM     22  C   UNL d   1      33.115  20.044 -21.430  0.00  0.00     0.021 A 
BRANCH  20  23
ATOM     23  O   UNL d   1      33.240  21.817 -20.164  0.00  0.00    -0.328 OA
ATOM     24  C   UNL d   1      32.656  22.373 -19.992  0.00  0.00     0.181 C 
ENDBRANCH  20  23
ENDBRANCH   3  17
TORSDOF 4
ENDMDL
MODEL 4
REMARK VINA RESULT:      -1.1      1.771      5.388
REMARK  4 active torsions:
REMARK  status: ('A' for Active; 'I' for Inactive)
REMARK    1  A    between atoms: C_6  and  C_1 
REMARK    2  A    between atoms: C_8  and  N_3 
REMARK       I    between atoms: N_7  and  C_6 
REMARK    3  A    between atoms: C_9  and  N_7 
REMARK    4  A    between atoms: O_19  and  C_16 
ROOT
ATOM      1  C   UNL d   1      32.601  19.059 -22.861  0.00  0.00     0.199 A 
ATOM      2  C   UNL d   1      31.920  18.703 -23.154  0.00  0.00     0.211 A 
ATOM      3  N   UNL d   1      32.127  17.978 -23.483  0.00  0.00    -0.191 N 
ATOM      4  N   UNL d   1      32.944  17.884 -23.394  0.00  0.00    -0.058 NA
ATOM      5  N   UNL d   1      33.241  18.548 -23.011  0.00  0.00    -0.122 NA
ATOM      6  N   UNL d   1      31.160  19.020 -23.122  0.00  0.00    -0.125 N 
ENDROOT
BRANCH   1   7
ATOM      7  C   UNL d   1      32.644  19.794 -22.485  0.00  0.00     0.302 C 
ATOM      8  N   UNL d   1      33.057  19.863 -21.767  0.00  0.00    -0.204 NA
ATOM      9  O   UNL d   1      32.280  20.454 -22.819  0.00  0.00    -0.263 OA
BRANCH   8  10
ATOM     10  C   UNL d   1      33.096  20.600 -21.397  0.00  0.00     0.112 A 
ATOM     11  C   UNL d   1      33.188  20.635 -20.579  0.00  0.00     0.158 A 
ATOM     12  F   UNL d   1      33.241  19.945 -20.138  0.00  0.00    -0.203 F 
ATOM     13  C   UNL d   1      33.228  21.375 -20.199  0.00  0.00     0.031 A 
ATOM     14  C   UNL d   1      33.176  22.062 -20.644  0.00  0.00     0.002 A 
ATOM     15  C   UNL d   1      33.083  22.025 -21.466  0.00  0.00     0.002 A 
ATOM     16  C   UNL d   1      33.043  21.289 -21.837  0.00  0.00     0.021 A 
ENDBRANCH   8  10
ENDBRANCH   1   7
BRANCH   3  17
ATOM     17  C   UNL d   1      31.614  17.440 -23.839  0.00  0.00     0.086 A 
ATOM     18  C   UNL d   1      31.243  17.634 -24.551  0.00  0.00     0.021 A 
ATOM     19  C   UNL d   1      30.730  17.096 -24.907  0.00  0.00     0.026 A 
ATOM     20  C   UNL d   1      30.588  16.364 -24.552  0.00  0.00     0.094 A 
ATOM     21  C   UNL d   1      30.959  16.172 -23.841  0.00  0.00     0.026 A 
ATOM     22  C   UNL d   1      31.472  16.710 -23.485  0.00  0.00     0.021 A 
BRANCH  20  23
ATOM     23  O   UNL d   1      30.074  15.826 -24.908  0.00  0.00    -0.328 OA
ATOM     24  C   UNL d   1      29.260  15.951 -24.878  0.00  0.00     0.181 C 
ENDBRANCH  20  23
ENDBRANCH   3  17
TORSDOF 4
ENDMDL
