MODEL 1
REMARK VINA RESULT:      -3.1      0.000      0.000
REMARK  2 active torsions:
REMARK  status: ('A' for Active; 'I' for Inactive)
REMARK    1  A    between atoms: C_3  and  C_1 
REMARK       I    between atoms: N_6  and  C_3 
REMARK    2  A    between atoms: C_12  and  N_6 
ROOT
ATOM      1  C   UNL d   1      33.009  19.316 -23.379  0.00  0.00     0.008 A 
ATOM      2  S   UNL d   1      33.069  18.004 -23.301  0.00  0.00    -0.086 SA
ATOM      3  C   UNL d   1      33.106  18.686 -22.866  0.00  0.00     0.030 A 
ATOM      4  C   UNL d   1      32.951  18.199 -24.069  0.00  0.00     0.035 A 
ATOM      5  C   UNL d   1      33.134  20.233 -22.278  0.00  0.00     0.085 A 
ATOM      6  C   UNL d   1      33.023  20.088 -23.083  0.00  0.00     0.020 A 
ATOM      7  C   UNL d   1      32.911  19.013 -24.134  0.00  0.00     0.007 A 
ATOM      8  C   UNL d   1      33.220  18.823 -22.042  0.00  0.00     0.008 A 
ATOM      9  C   UNL d   1      33.232  19.600 -21.758  0.00  0.00     0.020 A 
ENDROOT
BRANCH   5  10
ATOM     10  N   UNL d   1      33.146  21.010 -21.993  0.00  0.00    -0.208 NA
ATOM     11  C   UNL d   1      32.521  21.292 -21.534  0.00  0.00     0.285 C 
ATOM     12  O   UNL d   1      31.888  20.798 -21.361  0.00  0.00    -0.265 OA
BRANCH  11  13
ATOM     13  C   UNL d   1      32.534  22.062 -21.252  0.00  0.00     0.088 A 
ATOM     14  S   UNL d   1      32.486  22.295 -20.442  0.00  0.00    -0.071 SA
ATOM     15  C   UNL d   1      32.518  23.120 -20.407  0.00  0.00     0.087 A 
ATOM     16 CL   UNL d   1      32.490  23.553 -19.766  0.00  0.00    -0.075 Cl
ATOM     17  C   UNL d   1      32.588  23.405 -21.222  0.00  0.00     0.019 A 
ATOM     18  C   UNL d   1      32.596  22.762 -21.724  0.00  0.00     0.013 A 
ENDBRANCH  11  13
ENDBRANCH   5  10
TORSDOF 2
ENDMDL
MODEL 2
REMARK VINA RESULT:      -2.8      2.178      4.855
REMARK  2 active torsions:
REMARK  status: ('A' for Active; 'I' for Inactive)
REMARK    1  A    between atoms: C_3  and  C_1 
REMARK       I    between atoms: N_6  and  C_3 
REMARK    2  A    between atoms: C_12  and  N_6 
ROOT
ATOM      1  C   UNL d   1      32.971  22.672 -18.238  0.00  0.00     0.008 A 
ATOM      2  S   UNL d   1      32.478  23.700 -17.583  0.00  0.00    -0.086 SA
ATOM      3  C   UNL d   1      32.606  23.399 -18.323  0.00  0.00     0.030 A 
ATOM      4  C   UNL d   1      32.756  23.176 -17.044  0.00  0.00     0.035 A 
ATOM      5  C   UNL d   1      33.004  22.521 -19.668  0.00  0.00     0.085 A 
ATOM      6  C   UNL d   1      33.169  22.235 -18.912  0.00  0.00     0.020 A 
ATOM      7  C   UNL d   1      33.066  22.529 -17.438  0.00  0.00     0.007 A 
ATOM      8  C   UNL d   1      32.433  23.701 -19.091  0.00  0.00     0.008 A 
ATOM      9  C   UNL d   1      32.636  23.254 -19.758  0.00  0.00     0.020 A 
ENDROOT
BRANCH   5  10
ATOM     10  N   UNL d   1      33.206  22.074 -20.335  0.00  0.00    -0.208 NA
ATOM     11  C   UNL d   1      32.660  21.550 -20.663  0.00  0.00     0.285 C 
ATOM     12  O   UNL d   1      31.916  21.473 -20.325  0.00  0.00    -0.265 OA
BRANCH  11  13
ATOM     13  C   UNL d   1      32.861  21.107 -21.324  0.00  0.00     0.088 A 
ATOM     14  S   UNL d   1      32.878  20.264 -21.371  0.00  0.00    -0.071 SA
ATOM     15  C   UNL d   1      33.109  20.052 -22.135  0.00  0.00     0.087 A 
ATOM     16 CL   UNL d   1      33.193  19.331 -22.405  0.00  0.00    -0.075 Cl
ATOM     17  C   UNL d   1      33.240  20.787 -22.574  0.00  0.00     0.019 A 
ATOM     18  C   UNL d   1      33.088  21.417 -22.079  0.00  0.00     0.013 A 
ENDBRANCH  11  13
ENDBRANCH   5  10
TORSDOF 2
ENDMDL
MODEL 3
REMARK VINA RESULT:      -2.7      2.470      4.620
REMARK  2 active torsions:
REMARK  status: ('A' for Active; 'I' for Inactive)
REMARK    1  A    between atoms: C_3  and  C_1 
REMARK       I    between atoms: N_6  and  C_3 
REMARK    2  A    between atoms: C_12  and  N_6 
ROOT
ATOM      1  C   UNL d   1      32.860  20.696 -21.485  0.00  0.00     0.008 A 
ATOM      2  S   UNL d   1      32.988  21.973 -21.775  0.00  0.00    -0.086 SA
ATOM      3  C   UNL d   1      33.040  21.226 -22.082  0.00  0.00     0.030 A 
ATOM      4  C   UNL d   1      32.781  21.916 -21.003  0.00  0.00     0.035 A 
ATOM      5  C   UNL d   1      33.059  19.602 -22.396  0.00  0.00     0.085 A 
ATOM      6  C   UNL d   1      32.871  19.885 -21.644  0.00  0.00     0.020 A 
ATOM      7  C   UNL d   1      32.697  21.126 -20.807  0.00  0.00     0.007 A 
ATOM      8  C   UNL d   1      33.234  20.947 -22.854  0.00  0.00     0.008 A 
ATOM      9  C   UNL d   1      33.241  20.133 -23.001  0.00  0.00     0.020 A 
ENDROOT
BRANCH   5  10
ATOM     10  N   UNL d   1      33.066  18.787 -22.544  0.00  0.00    -0.208 NA
ATOM     11  C   UNL d   1      32.593  18.471 -23.141  0.00  0.00     0.285 C 
ATOM     12  O   UNL d   1      32.115  18.967 -23.588  0.00  0.00    -0.265 OA
BRANCH  11  13
ATOM     13  C   UNL d   1      32.600  17.663 -23.287  0.00  0.00     0.088 A 
ATOM     14  S   UNL d   1      31.976  17.218 -23.641  0.00  0.00    -0.071 SA
ATOM     15  C   UNL d   1      32.214  16.428 -23.683  0.00  0.00     0.087 A 
ATOM     16 CL   UNL d   1      31.802  15.839 -23.971  0.00  0.00    -0.075 Cl
ATOM     17  C   UNL d   1      33.010  16.384 -23.344  0.00  0.00     0.019 A 
ATOM     18  C   UNL d   1      33.234  17.132 -23.108  0.00  0.00     0.013 A 
ENDBRANCH  11  13
ENDBRANCH   5  10
TORSDOF 2
ENDMDL
MODEL 4
REMARK VINA RESULT:      -2.5      3.971      5.486
REMARK  2 active torsions:
REMARK  status: ('A' for Active; 'I' for Inactive)
REMARK    1  A    between atoms: C_3  and  C_1 
REMARK       I    between atoms: N_6  and  C_3 
REMARK    2  A    between atoms: C_12  and  N_6 
ROOT
ATOM      1  C   UNL d   1      28.848  16.531 -23.889  0.00  0.00     0.008 A 
ATOM      2  S   UNL d   1      28.107  15.462 -24.089  0.00  0.00    -0.086 SA
ATOM      3  C   UNL d   1      28.789  15.834 -24.315  0.00  0.00     0.030 A 
ATOM      4  C   UNL d   1      27.744  15.912 -23.533  0.00  0.00     0.035 A 
ATOM      5  C   UNL d   1      30.088  16.832 -24.553  0.00  0.00     0.085 A 
ATOM      6  C   UNL d   1      29.498  17.028 -24.010  0.00  0.00     0.020 A 
ATOM      7  C   UNL d   1      28.194  16.582 -23.398  0.00  0.00     0.007 A 
ATOM      8  C   UNL d   1      29.386  15.625 -24.872  0.00  0.00     0.008 A 
ATOM      9  C   UNL d   1      30.031  16.131 -24.984  0.00  0.00     0.020 A 
ENDROOT
BRANCH   5  10
ATOM     10  N   UNL d   1      30.734  17.338 -24.665  0.00  0.00    -0.208 NA
ATOM     11  C   UNL d   1      31.443  17.196 -24.268  0.00  0.00     0.285 C 
ATOM     12  O   UNL d   1      31.505  16.552 -23.762  0.00  0.00    -0.265 OA
BRANCH  11  13
ATOM     13  C   UNL d   1      32.083  17.697 -24.379  0.00  0.00     0.088 A 
ATOM     14  S   UNL d   1      32.213  18.431 -23.983  0.00  0.00    -0.071 SA
ATOM     15  C   UNL d   1      32.922  18.753 -24.261  0.00  0.00     0.087 A 
ATOM     16 CL   UNL d   1      33.239  19.423 -24.037  0.00  0.00    -0.075 Cl
ATOM     17  C   UNL d   1      33.239  18.200 -24.846  0.00  0.00     0.019 A 
ATOM     18  C   UNL d   1      32.729  17.567 -24.911  0.00  0.00     0.013 A 
ENDBRANCH  11  13
ENDBRANCH   5  10
TORSDOF 2
ENDMDL
MODEL 5
REMARK VINA RESULT:      -2.4      4.135      5.855
REMARK  2 active torsions:
REMARK  status: ('A' for Active; 'I' for Inactive)
REMARK    1  A    between atoms: C_3  and  C_1 
REMARK       I    between atoms: N_6  and  C_3 
REMARK    2  A    between atoms: C_12  and  N_6 
ROOT
ATOM      1  C   UNL d   1      32.213  17.941 -23.402  0.00  0.00     0.008 A 
ATOM      2  S   UNL d   1      33.055  18.773 -23.978  0.00  0.00    -0.086 SA
ATOM      3  C   UNL d   1      32.423  18.287 -24.114  0.00  0.00     0.030 A 
ATOM      4  C   UNL d   1      33.240  18.736 -23.199  0.00  0.00     0.035 A 
ATOM      5  C   UNL d   1      31.151  17.228 -24.059  0.00  0.00     0.085 A 
ATOM      6  C   UNL d   1      31.578  17.413 -23.377  0.00  0.00     0.020 A 
ATOM      7  C   UNL d   1      32.725  18.221 -22.827  0.00  0.00     0.007 A 
ATOM      8  C   UNL d   1      31.993  18.104 -24.816  0.00  0.00     0.008 A 
ATOM      9  C   UNL d   1      31.359  17.574 -24.779  0.00  0.00     0.020 A 
ENDROOT
BRANCH   5  10
ATOM     10  N   UNL d   1      30.517  16.698 -24.021  0.00  0.00    -0.208 NA
ATOM     11  C   UNL d   1      29.769  16.928 -24.283  0.00  0.00     0.285 C 
ATOM     12  O   UNL d   1      29.657  17.686 -24.581  0.00  0.00    -0.265 OA
BRANCH  11  13
ATOM     13  C   UNL d   1      29.140  16.402 -24.245  0.00  0.00     0.088 A 
ATOM     14  S   UNL d   1      28.621  16.296 -23.588  0.00  0.00    -0.071 SA
ATOM     15  C   UNL d   1      28.069  15.713 -23.786  0.00  0.00     0.087 A 
ATOM     16 CL   UNL d   1      27.496  15.453 -23.335  0.00  0.00    -0.075 Cl
ATOM     17  C   UNL d   1      28.254  15.453 -24.591  0.00  0.00     0.019 A 
ATOM     18  C   UNL d   1      28.899  15.872 -24.860  0.00  0.00     0.013 A 
ENDBRANCH  11  13
ENDBRANCH   5  10
TORSDOF 2
ENDMDL
MODEL 6
REMARK VINA RESULT:      -1.0      3.412      5.335
REMARK  2 active torsions:
REMARK  status: ('A' for Active; 'I' for Inactive)
REMARK    1  A    between atoms: C_3  and  C_1 
REMARK       I    between atoms: N_6  and  C_3 
REMARK    2  A    between atoms: C_12  and  N_6 
ROOT
ATOM      1  C   UNL d   1      32.446  19.249 -22.846  0.00  0.00     0.008 A 
ATOM      2  S   UNL d   1      33.241  20.269 -23.091  0.00  0.00    -0.086 SA
ATOM      3  C   UNL d   1      32.947  19.582 -23.401  0.00  0.00     0.030 A 
ATOM      4  C   UNL d   1      32.934  20.368 -22.357  0.00  0.00     0.035 A 
ATOM      5  C   UNL d   1      32.180  18.155 -23.740  0.00  0.00     0.085 A 
ATOM      6  C   UNL d   1      32.064  18.536 -23.017  0.00  0.00     0.020 A 
ATOM      7  C   UNL d   1      32.436  19.740 -22.190  0.00  0.00     0.007 A 
ATOM      8  C   UNL d   1      33.072  19.200 -24.143  0.00  0.00     0.008 A 
ATOM      9  C   UNL d   1      32.684  18.487 -24.303  0.00  0.00     0.020 A 
ENDROOT
BRANCH   5  10
ATOM     10  N   UNL d   1      31.792  17.441 -23.900  0.00  0.00    -0.208 NA
ATOM     11  C   UNL d   1      31.022  17.447 -24.194  0.00  0.00     0.285 C 
ATOM     12  O   UNL d   1      30.641  18.162 -24.327  0.00  0.00    -0.265 OA
BRANCH  11  13
ATOM     13  C   UNL d   1      30.637  16.739 -24.353  0.00  0.00     0.088 A 
ATOM     14  S   UNL d   1      29.812  16.589 -24.252  0.00  0.00    -0.071 SA
ATOM     15  C   UNL d   1      29.662  15.808 -24.477  0.00  0.00     0.087 A 
ATOM     16 CL   UNL d   1      28.974  15.453 -24.467  0.00  0.00    -0.075 Cl
ATOM     17  C   UNL d   1      30.418  15.466 -24.724  0.00  0.00     0.019 A 
ATOM     18  C   UNL d   1      30.999  16.032 -24.646  0.00  0.00     0.013 A 
ENDBRANCH  11  13
ENDBRANCH   5  10
TORSDOF 2
ENDMDL
MODEL 7
REMARK VINA RESULT:      -1.0      2.073      2.951
REMARK  2 active torsions:
REMARK  status: ('A' for Active; 'I' for Inactive)
REMARK    1  A    between atoms: C_3  and  C_1 
REMARK       I    between atoms: N_6  and  C_3 
REMARK    2  A    between atoms: C_12  and  N_6 
ROOT
ATOM      1  C   UNL d   1      31.830  16.780 -24.012  0.00  0.00     0.008 A 
ATOM      2  S   UNL d   1      31.989  15.481 -23.873  0.00  0.00    -0.086 SA
ATOM      3  C   UNL d   1      32.325  16.200 -23.715  0.00  0.00     0.030 A 
ATOM      4  C   UNL d   1      31.298  15.604 -24.260  0.00  0.00     0.035 A 
ATOM      5  C   UNL d   1      32.739  17.793 -23.548  0.00  0.00     0.085 A 
ATOM      6  C   UNL d   1      32.039  17.576 -23.927  0.00  0.00     0.020 A 
ATOM      7  C   UNL d   1      31.185  16.409 -24.354  0.00  0.00     0.007 A 
ATOM      8  C   UNL d   1      33.043  16.412 -23.326  0.00  0.00     0.008 A 
ATOM      9  C   UNL d   1      33.241  17.211 -23.248  0.00  0.00     0.020 A 
ENDROOT
BRANCH   5  10
ATOM     10  N   UNL d   1      32.937  18.594 -23.470  0.00  0.00    -0.208 NA
ATOM     11  C   UNL d   1      32.689  19.018 -22.808  0.00  0.00     0.285 C 
ATOM     12  O   UNL d   1      32.244  18.644 -22.227  0.00  0.00    -0.265 OA
BRANCH  11  13
ATOM     13  C   UNL d   1      32.885  19.811 -22.730  0.00  0.00     0.088 A 
ATOM     14  S   UNL d   1      32.925  20.376 -23.356  0.00  0.00    -0.071 SA
ATOM     15  C   UNL d   1      33.143  21.105 -23.034  0.00  0.00     0.087 A 
ATOM     16 CL   UNL d   1      33.240  21.767 -23.423  0.00  0.00    -0.075 Cl
ATOM     17  C   UNL d   1      33.240  20.986 -22.181  0.00  0.00     0.019 A 
ATOM     18  C   UNL d   1      33.083  20.205 -22.007  0.00  0.00     0.013 A 
ENDBRANCH  11  13
ENDBRANCH   5  10
TORSDOF 2
ENDMDL
