MODEL 1
REMARK VINA RESULT:      -9.2      0.000      0.000
REMARK  4 active torsions:
REMARK  status: ('A' for Active; 'I' for Inactive)
REMARK    1  A    between atoms: N_2  and  C_1 
REMARK    2  A    between atoms: C_3  and  C_1 
REMARK       I    between atoms: C_6  and  N_2 
REMARK    3  A    between atoms: S_9  and  C_6 
REMARK    4  A    between atoms: C_14  and  S_9 
ROOT
ATOM      1  C   UNL d   1     -46.950  13.394  22.971  0.00  0.00     0.385 A 
ATOM      2  O   UNL d   1     -46.192  13.132  22.837  0.00  0.00    -0.283 OA
ATOM      3  O   UNL d   1     -47.378  12.769  23.323  0.00  0.00    -0.283 OA
ATOM      4  C   UNL d   1     -46.864  12.128  23.398  0.00  0.00     0.121 A 
ATOM      5  C   UNL d   1     -46.122  12.355  23.094  0.00  0.00     0.121 A 
ATOM      6  C   UNL d   1     -45.501  11.828  23.096  0.00  0.00     0.026 A 
ATOM      7  C   UNL d   1     -46.970  11.378  23.698  0.00  0.00     0.026 A 
ATOM      8  C   UNL d   1     -46.335  10.844  23.698  0.00  0.00     0.002 A 
ATOM      9  C   UNL d   1     -45.615  11.064  23.403  0.00  0.00     0.002 A 
ENDROOT
BRANCH   1  10
ATOM     10  N   UNL d   1     -47.337  14.124  22.827  0.00  0.00    -0.171 NA
ATOM     11  C   UNL d   1     -48.147  14.196  22.968  0.00  0.00     0.310 C 
ATOM     12  O   UNL d   1     -48.577  13.557  23.251  0.00  0.00    -0.258 OA
BRANCH  11  13
ATOM     13  S   UNL d   1     -48.526  14.918  22.824  0.00  0.00    -0.026 SA
BRANCH  13  14
ATOM     14  C   UNL d   1     -49.349  14.967  22.852  0.00  0.00     0.034 A 
ATOM     15  C   UNL d   1     -49.722  15.293  23.512  0.00  0.00     0.007 A 
ATOM     16  C   UNL d   1     -50.544  15.341  23.538  0.00  0.00     0.001 A 
ATOM     17  C   UNL d   1     -50.994  15.063  22.904  0.00  0.00     0.000 A 
ATOM     18  C   UNL d   1     -50.626  14.736  22.243  0.00  0.00     0.001 A 
ATOM     19  C   UNL d   1     -49.800  14.689  22.219  0.00  0.00     0.007 A 
ENDBRANCH  13  14
ENDBRANCH  11  13
ENDBRANCH   1  10
BRANCH   1  20
ATOM     20  C   UNL d   1     -46.250  13.685  22.657  0.00  0.00     0.470 C 
ATOM     21  F   UNL d   1     -45.546  13.973  22.324  0.00  0.00    -0.164 F 
ATOM     22  F   UNL d   1     -46.471  13.377  21.910  0.00  0.00    -0.164 F 
ATOM     23  F   UNL d   1     -46.038  13.985  23.391  0.00  0.00    -0.164 F 
ENDBRANCH   1  20
TORSDOF 4
ENDMDL
MODEL 2
REMARK VINA RESULT:      -8.1      1.546      4.181
REMARK  4 active torsions:
REMARK  status: ('A' for Active; 'I' for Inactive)
REMARK    1  A    between atoms: N_2  and  C_1 
REMARK    2  A    between atoms: C_3  and  C_1 
REMARK       I    between atoms: C_6  and  N_2 
REMARK    3  A    between atoms: S_9  and  C_6 
REMARK    4  A    between atoms: C_14  and  S_9 
ROOT
ATOM      1  C   UNL d   1     -48.523  14.121  22.489  0.00  0.00     0.385 A 
ATOM      2  O   UNL d   1     -49.133  14.648  22.377  0.00  0.00    -0.283 OA
ATOM      3  O   UNL d   1     -48.787  13.369  22.237  0.00  0.00    -0.283 OA
ATOM      4  C   UNL d   1     -49.564  13.455  21.973  0.00  0.00     0.121 A 
ATOM      5  C   UNL d   1     -49.780  14.254  22.060  0.00  0.00     0.121 A 
ATOM      6  C   UNL d   1     -50.524  14.502  21.841  0.00  0.00     0.026 A 
ATOM      7  C   UNL d   1     -50.096  12.918  21.668  0.00  0.00     0.026 A 
ATOM      8  C   UNL d   1     -50.854  13.175  21.446  0.00  0.00     0.002 A 
ATOM      9  C   UNL d   1     -51.063  13.952  21.531  0.00  0.00     0.002 A 
ENDROOT
BRANCH   1  10
ATOM     10  N   UNL d   1     -47.745  14.202  22.789  0.00  0.00    -0.171 NA
ATOM     11  C   UNL d   1     -47.278  13.532  22.910  0.00  0.00     0.310 C 
ATOM     12  O   UNL d   1     -47.572  12.785  22.739  0.00  0.00    -0.258 OA
BRANCH  11  13
ATOM     13  S   UNL d   1     -46.509  13.616  23.206  0.00  0.00    -0.026 SA
BRANCH  13  14
ATOM     14  C   UNL d   1     -45.877  13.246  22.828  0.00  0.00     0.034 A 
ATOM     15  C   UNL d   1     -45.443  13.650  22.255  0.00  0.00     0.007 A 
ATOM     16  C   UNL d   1     -44.811  13.279  21.878  0.00  0.00     0.001 A 
ATOM     17  C   UNL d   1     -44.613  12.502  22.074  0.00  0.00     0.000 A 
ATOM     18  C   UNL d   1     -45.043  12.093  22.646  0.00  0.00     0.001 A 
ATOM     19  C   UNL d   1     -45.677  12.468  23.023  0.00  0.00     0.007 A 
ENDBRANCH  13  14
ENDBRANCH  11  13
ENDBRANCH   1  10
BRANCH   1  20
ATOM     20  C   UNL d   1     -48.667  14.921  22.603  0.00  0.00     0.470 C 
ATOM     21  F   UNL d   1     -48.807  15.733  22.702  0.00  0.00    -0.164 F 
ATOM     22  F   UNL d   1     -48.387  15.069  21.827  0.00  0.00    -0.164 F 
ATOM     23  F   UNL d   1     -48.941  14.770  23.362  0.00  0.00    -0.164 F 
ENDBRANCH   1  20
TORSDOF 4
ENDMDL
MODEL 3
REMARK VINA RESULT:      -7.0      8.401      9.528
REMARK  4 active torsions:
REMARK  status: ('A' for Active; 'I' for Inactive)
REMARK    1  A    between atoms: N_2  and  C_1 
REMARK    2  A    between atoms: C_3  and  C_1 
REMARK       I    between atoms: C_6  and  N_2 
REMARK    3  A    between atoms: S_9  and  C_6 
REMARK    4  A    between atoms: C_14  and  S_9 
ROOT
ATOM      1  C   UNL d   1     -39.948  14.470  18.189  0.00  0.00     0.385 A 
ATOM      2  O   UNL d   1     -40.064  14.660  17.407  0.00  0.00    -0.283 OA
ATOM      3  O   UNL d   1     -39.227  14.051  18.245  0.00  0.00    -0.283 OA
ATOM      4  C   UNL d   1     -38.914  13.993  17.484  0.00  0.00     0.121 A 
ATOM      5  C   UNL d   1     -39.438  14.374  16.960  0.00  0.00     0.121 A 
ATOM      6  C   UNL d   1     -39.269  14.404  16.164  0.00  0.00     0.026 A 
ATOM      7  C   UNL d   1     -38.232  13.649  17.201  0.00  0.00     0.026 A 
ATOM      8  C   UNL d   1     -38.064  13.682  16.389  0.00  0.00     0.002 A 
ATOM      9  C   UNL d   1     -38.572  14.052  15.880  0.00  0.00     0.002 A 
ENDROOT
BRANCH   1  10
ATOM     10  N   UNL d   1     -40.392  14.613  18.886  0.00  0.00    -0.171 NA
ATOM     11  C   UNL d   1     -40.093  14.385  19.620  0.00  0.00     0.310 C 
ATOM     12  O   UNL d   1     -39.360  14.019  19.674  0.00  0.00    -0.258 OA
BRANCH  11  13
ATOM     13  S   UNL d   1     -40.534  14.528  20.306  0.00  0.00    -0.026 SA
BRANCH  13  14
ATOM     14  C   UNL d   1     -40.165  14.817  20.984  0.00  0.00     0.034 A 
ATOM     15  C   UNL d   1     -39.795  14.297  21.507  0.00  0.00     0.007 A 
ATOM     16  C   UNL d   1     -39.426  14.587  22.184  0.00  0.00     0.001 A 
ATOM     17  C   UNL d   1     -39.427  15.398  22.339  0.00  0.00     0.000 A 
ATOM     18  C   UNL d   1     -39.796  15.922  21.820  0.00  0.00     0.001 A 
ATOM     19  C   UNL d   1     -40.165  15.628  21.140  0.00  0.00     0.007 A 
ENDBRANCH  13  14
ENDBRANCH  11  13
ENDBRANCH   1  10
BRANCH   1  20
ATOM     20  C   UNL d   1     -40.507  14.860  17.733  0.00  0.00     0.470 C 
ATOM     21  F   UNL d   1     -41.063  15.270  17.273  0.00  0.00    -0.164 F 
ATOM     22  F   UNL d   1     -40.063  15.566  17.813  0.00  0.00    -0.164 F 
ATOM     23  F   UNL d   1     -40.938  14.166  17.657  0.00  0.00    -0.164 F 
ENDBRANCH   1  20
TORSDOF 4
ENDMDL
MODEL 4
REMARK VINA RESULT:      -6.6      7.920      9.150
REMARK  4 active torsions:
REMARK  status: ('A' for Active; 'I' for Inactive)
REMARK    1  A    between atoms: N_2  and  C_1 
REMARK    2  A    between atoms: C_3  and  C_1 
REMARK       I    between atoms: C_6  and  N_2 
REMARK    3  A    between atoms: S_9  and  C_6 
REMARK    4  A    between atoms: C_14  and  S_9 
ROOT
ATOM      1  C   UNL d   1     -39.957  14.350  20.299  0.00  0.00     0.385 A 
ATOM      2  O   UNL d   1     -40.151  14.491  21.076  0.00  0.00    -0.283 OA
ATOM      3  O   UNL d   1     -39.235  13.931  20.289  0.00  0.00    -0.283 OA
ATOM      4  C   UNL d   1     -38.999  13.823  21.072  0.00  0.00     0.121 A 
ATOM      5  C   UNL d   1     -39.573  14.174  21.564  0.00  0.00     0.121 A 
ATOM      6  C   UNL d   1     -39.484  14.152  22.374  0.00  0.00     0.026 A 
ATOM      7  C   UNL d   1     -38.348  13.458  21.398  0.00  0.00     0.026 A 
ATOM      8  C   UNL d   1     -38.262  13.438  22.224  0.00  0.00     0.002 A 
ATOM      9  C   UNL d   1     -38.818  13.779  22.702  0.00  0.00     0.002 A 
ENDROOT
BRANCH   1  10
ATOM     10  N   UNL d   1     -40.330  14.539  19.573  0.00  0.00    -0.171 NA
ATOM     11  C   UNL d   1     -40.020  14.255  18.863  0.00  0.00     0.310 C 
ATOM     12  O   UNL d   1     -39.346  13.787  18.863  0.00  0.00    -0.258 OA
BRANCH  11  13
ATOM     13  S   UNL d   1     -40.391  14.444  18.147  0.00  0.00    -0.026 SA
BRANCH  13  14
ATOM     14  C   UNL d   1     -39.955  14.773  17.529  0.00  0.00     0.034 A 
ATOM     15  C   UNL d   1     -39.480  14.292  17.056  0.00  0.00     0.007 A 
ATOM     16  C   UNL d   1     -39.046  14.621  16.439  0.00  0.00     0.001 A 
ATOM     17  C   UNL d   1     -39.086  15.433  16.293  0.00  0.00     0.000 A 
ATOM     18  C   UNL d   1     -39.560  15.918  16.762  0.00  0.00     0.001 A 
ATOM     19  C   UNL d   1     -39.995  15.585  17.381  0.00  0.00     0.007 A 
ENDBRANCH  13  14
ENDBRANCH  11  13
ENDBRANCH   1  10
BRANCH   1  20
ATOM     20  C   UNL d   1     -40.559  14.714  20.721  0.00  0.00     0.470 C 
ATOM     21  F   UNL d   1     -41.176  15.068  21.149  0.00  0.00    -0.164 F 
ATOM     22  F   UNL d   1     -40.978  13.989  20.728  0.00  0.00    -0.164 F 
ATOM     23  F   UNL d   1     -40.144  15.423  20.713  0.00  0.00    -0.164 F 
ENDBRANCH   1  20
TORSDOF 4
ENDMDL
