MODEL 1
REMARK VINA RESULT:      -8.2      0.000      0.000
REMARK  5 active torsions:
REMARK  status: ('A' for Active; 'I' for Inactive)
REMARK    1  A    between atoms: N_2  and  S_1 
REMARK    2  A    between atoms: C_5  and  S_1 
REMARK    3  A    between atoms: S_6  and  C_3 
REMARK    4  A    between atoms: C_15  and  S_6 
REMARK    5  A    between atoms: C_14  and  C_15 
ROOT
ATOM      1  N   UNL d   1      53.370  31.764  53.373  0.00  0.00    -0.208 N 
ATOM      2  C   UNL d   1      53.007  32.491  53.542  0.00  0.00     0.189 A 
ATOM      3  N   UNL d   1      53.445  32.866  54.134  0.00  0.00    -0.219 NA
ATOM      4  C   UNL d   1      54.036  31.690  53.864  0.00  0.00     0.114 A 
ATOM      5  C   UNL d   1      54.078  32.370  54.330  0.00  0.00     0.121 A 
ENDROOT
BRANCH   1   6
ATOM      6  S   UNL d   1      53.111  31.211  52.812  0.00  0.00     0.273 S 
ATOM      7  O   UNL d   1      52.844  30.868  52.108  0.00  0.00    -0.200 OA
ATOM      8  O   UNL d   1      53.059  31.830  52.280  0.00  0.00    -0.200 OA
BRANCH   6   9
ATOM      9  C   UNL d   1      53.157  30.574  53.335  0.00  0.00     0.104 A 
ATOM     10  C   UNL d   1      53.879  30.201  53.448  0.00  0.00     0.013 A 
ATOM     11  C   UNL d   1      53.920  29.563  53.973  0.00  0.00     0.001 A 
ATOM     12  C   UNL d   1      53.245  29.307  54.377  0.00  0.00     0.000 A 
ATOM     13  C   UNL d   1      52.523  29.691  54.255  0.00  0.00     0.001 A 
ATOM     14  C   UNL d   1      53.291  28.670  54.900  0.00  0.00     0.000 C 
ATOM     15  C   UNL d   1      52.481  30.328  53.730  0.00  0.00     0.013 A 
ENDBRANCH   6   9
ENDBRANCH   1   6
BRANCH   2  16
ATOM     16  S   UNL d   1      52.321  32.789  53.178  0.00  0.00    -0.049 SA
BRANCH  16  17
ATOM     17  C   UNL d   1      52.045  33.539  53.378  0.00  0.00     0.040 C 
BRANCH  17  18
ATOM     18  C   UNL d   1      51.372  33.839  53.011  0.00  0.00     0.026 A 
ATOM     19  C   UNL d   1      50.627  33.783  53.393  0.00  0.00     0.099 A 
ATOM     20  N   UNL d   1      49.947  34.077  53.040  0.00  0.00    -0.242 NA
ATOM     21  C   UNL d   1      50.009  34.430  52.299  0.00  0.00     0.099 A 
ATOM     22  C   UNL d   1      50.737  34.488  51.920  0.00  0.00     0.021 A 
ATOM     23  C   UNL d   1      51.418  34.191  52.278  0.00  0.00     0.004 A 
ENDBRANCH  17  18
ENDBRANCH  16  17
ENDBRANCH   2  16
TORSDOF 5
ENDMDL
MODEL 2
REMARK VINA RESULT:      -7.6      1.605      4.166
REMARK  5 active torsions:
REMARK  status: ('A' for Active; 'I' for Inactive)
REMARK    1  A    between atoms: N_2  and  S_1 
REMARK    2  A    between atoms: C_5  and  S_1 
REMARK    3  A    between atoms: S_6  and  C_3 
REMARK    4  A    between atoms: C_15  and  S_6 
REMARK    5  A    between atoms: C_14  and  C_15 
ROOT
ATOM      1  N   UNL d   1      53.972  33.084  53.990  0.00  0.00    -0.208 N 
ATOM      2  C   UNL d   1      54.137  32.324  53.699  0.00  0.00     0.189 A 
ATOM      3  N   UNL d   1      54.753  32.385  53.152  0.00  0.00    -0.219 NA
ATOM      4  C   UNL d   1      54.491  33.617  53.619  0.00  0.00     0.114 A 
ATOM      5  C   UNL d   1      54.968  33.183  53.105  0.00  0.00     0.121 A 
ENDROOT
BRANCH   1   6
ATOM      6  S   UNL d   1      53.392  33.273  54.551  0.00  0.00     0.273 S 
ATOM      7  O   UNL d   1      52.978  33.346  55.263  0.00  0.00    -0.200 OA
ATOM      8  O   UNL d   1      53.868  32.914  55.111  0.00  0.00    -0.200 OA
BRANCH   6   9
ATOM      9  C   UNL d   1      52.898  33.639  53.999  0.00  0.00     0.104 A 
ATOM     10  C   UNL d   1      53.080  34.396  53.740  0.00  0.00     0.013 A 
ATOM     11  C   UNL d   1      52.582  34.758  53.187  0.00  0.00     0.001 A 
ATOM     12  C   UNL d   1      51.913  34.364  52.903  0.00  0.00     0.000 A 
ATOM     13  C   UNL d   1      51.740  33.602  53.172  0.00  0.00     0.001 A 
ATOM     14  C   UNL d   1      51.419  34.730  52.352  0.00  0.00     0.000 C 
ATOM     15  C   UNL d   1      52.237  33.239  53.724  0.00  0.00     0.013 A 
ENDBRANCH   6   9
ENDBRANCH   1   6
BRANCH   2  16
ATOM     16  S   UNL d   1      53.748  31.623  53.921  0.00  0.00    -0.049 SA
BRANCH  16  17
ATOM     17  C   UNL d   1      53.949  30.911  53.558  0.00  0.00     0.040 C 
BRANCH  17  18
ATOM     18  C   UNL d   1      53.515  30.231  53.721  0.00  0.00     0.026 A 
ATOM     19  C   UNL d   1      52.877  30.012  53.223  0.00  0.00     0.099 A 
ATOM     20  N   UNL d   1      52.435  29.338  53.372  0.00  0.00    -0.242 NA
ATOM     21  C   UNL d   1      52.629  28.876  54.026  0.00  0.00     0.099 A 
ATOM     22  C   UNL d   1      53.254  29.086  54.518  0.00  0.00     0.021 A 
ATOM     23  C   UNL d   1      53.696  29.764  54.365  0.00  0.00     0.004 A 
ENDBRANCH  17  18
ENDBRANCH  16  17
ENDBRANCH   2  16
TORSDOF 5
ENDMDL
MODEL 3
REMARK VINA RESULT:      -7.2      2.224      2.958
REMARK  5 active torsions:
REMARK  status: ('A' for Active; 'I' for Inactive)
REMARK    1  A    between atoms: N_2  and  S_1 
REMARK    2  A    between atoms: C_5  and  S_1 
REMARK    3  A    between atoms: S_6  and  C_3 
REMARK    4  A    between atoms: C_15  and  S_6 
REMARK    5  A    between atoms: C_14  and  C_15 
ROOT
ATOM      1  N   UNL d   1      52.523  33.532  53.030  0.00  0.00    -0.208 N 
ATOM      2  C   UNL d   1      51.701  33.429  52.966  0.00  0.00     0.189 A 
ATOM      3  N   UNL d   1      51.546  32.620  52.916  0.00  0.00    -0.219 NA
ATOM      4  C   UNL d   1      52.875  32.779  53.020  0.00  0.00     0.114 A 
ATOM      5  C   UNL d   1      52.272  32.222  52.950  0.00  0.00     0.121 A 
ENDROOT
BRANCH   1   6
ATOM      6  S   UNL d   1      52.917  34.258  53.094  0.00  0.00     0.273 S 
ATOM      7  O   UNL d   1      53.168  35.034  52.954  0.00  0.00    -0.200 OA
ATOM      8  O   UNL d   1      52.494  34.504  52.438  0.00  0.00    -0.200 OA
BRANCH   6   9
ATOM      9  C   UNL d   1      53.354  34.028  53.756  0.00  0.00     0.104 A 
ATOM     10  C   UNL d   1      54.029  33.573  53.652  0.00  0.00     0.013 A 
ATOM     11  C   UNL d   1      54.463  33.345  54.317  0.00  0.00     0.001 A 
ATOM     12  C   UNL d   1      54.219  33.571  55.075  0.00  0.00     0.000 A 
ATOM     13  C   UNL d   1      53.537  34.029  55.167  0.00  0.00     0.001 A 
ATOM     14  C   UNL d   1      54.656  33.340  55.737  0.00  0.00     0.000 C 
ATOM     15  C   UNL d   1      53.103  34.258  54.502  0.00  0.00     0.013 A 
ENDBRANCH   6   9
ENDBRANCH   1   6
BRANCH   2  16
ATOM     16  S   UNL d   1      51.134  34.038  52.954  0.00  0.00    -0.049 SA
BRANCH  16  17
ATOM     17  C   UNL d   1      50.333  33.849  52.935  0.00  0.00     0.040 C 
BRANCH  17  18
ATOM     18  C   UNL d   1      49.776  34.441  52.803  0.00  0.00     0.026 A 
ATOM     19  C   UNL d   1      49.587  34.982  53.415  0.00  0.00     0.099 A 
ATOM     20  N   UNL d   1      49.034  35.577  53.298  0.00  0.00    -0.242 NA
ATOM     21  C   UNL d   1      48.666  35.634  52.564  0.00  0.00     0.099 A 
ATOM     22  C   UNL d   1      48.848  35.106  51.960  0.00  0.00     0.021 A 
ATOM     23  C   UNL d   1      49.403  34.510  52.081  0.00  0.00     0.004 A 
ENDBRANCH  17  18
ENDBRANCH  16  17
ENDBRANCH   2  16
TORSDOF 5
ENDMDL
MODEL 4
REMARK VINA RESULT:      -6.9      1.500      2.075
REMARK  5 active torsions:
REMARK  status: ('A' for Active; 'I' for Inactive)
REMARK    1  A    between atoms: N_2  and  S_1 
REMARK    2  A    between atoms: C_5  and  S_1 
REMARK    3  A    between atoms: S_6  and  C_3 
REMARK    4  A    between atoms: C_15  and  S_6 
REMARK    5  A    between atoms: C_14  and  C_15 
ROOT
ATOM      1  N   UNL d   1      52.955  31.822  53.125  0.00  0.00    -0.208 N 
ATOM      2  C   UNL d   1      52.550  32.519  53.326  0.00  0.00     0.189 A 
ATOM      3  N   UNL d   1      51.764  32.439  53.085  0.00  0.00    -0.219 NA
ATOM      4  C   UNL d   1      52.413  31.309  52.758  0.00  0.00     0.114 A 
ATOM      5  C   UNL d   1      51.683  31.692  52.736  0.00  0.00     0.121 A 
ENDROOT
BRANCH   1   6
ATOM      6  S   UNL d   1      53.757  31.670  53.267  0.00  0.00     0.273 S 
ATOM      7  O   UNL d   1      54.581  31.740  53.291  0.00  0.00    -0.200 OA
ATOM      8  O   UNL d   1      53.921  32.381  52.897  0.00  0.00    -0.200 OA
BRANCH   6   9
ATOM      9  C   UNL d   1      53.611  30.949  53.643  0.00  0.00     0.104 A 
ATOM     10  C   UNL d   1      53.533  30.270  53.190  0.00  0.00     0.013 A 
ATOM     11  C   UNL d   1      53.387  29.551  53.571  0.00  0.00     0.001 A 
ATOM     12  C   UNL d   1      53.321  29.518  54.395  0.00  0.00     0.000 A 
ATOM     13  C   UNL d   1      53.402  30.209  54.841  0.00  0.00     0.001 A 
ATOM     14  C   UNL d   1      53.175  28.798  54.771  0.00  0.00     0.000 C 
ATOM     15  C   UNL d   1      53.548  30.928  54.461  0.00  0.00     0.013 A 
ENDBRANCH   6   9
ENDBRANCH   1   6
BRANCH   2  16
ATOM     16  S   UNL d   1      52.880  33.183  53.704  0.00  0.00    -0.049 SA
BRANCH  16  17
ATOM     17  C   UNL d   1      52.392  33.799  53.948  0.00  0.00     0.040 C 
BRANCH  17  18
ATOM     18  C   UNL d   1      52.724  34.487  54.253  0.00  0.00     0.026 A 
ATOM     19  C   UNL d   1      53.007  34.502  55.042  0.00  0.00     0.099 A 
ATOM     20  N   UNL d   1      53.341  35.180  55.361  0.00  0.00    -0.242 NA
ATOM     21  C   UNL d   1      53.393  35.853  54.888  0.00  0.00     0.099 A 
ATOM     22  C   UNL d   1      53.117  35.845  54.113  0.00  0.00     0.021 A 
ATOM     23  C   UNL d   1      52.782  35.161  53.797  0.00  0.00     0.004 A 
ENDBRANCH  17  18
ENDBRANCH  16  17
ENDBRANCH   2  16
TORSDOF 5
ENDMDL
MODEL 5
REMARK VINA RESULT:      -6.1      2.092      4.414
REMARK  5 active torsions:
REMARK  status: ('A' for Active; 'I' for Inactive)
REMARK    1  A    between atoms: N_2  and  S_1 
REMARK    2  A    between atoms: C_5  and  S_1 
REMARK    3  A    between atoms: S_6  and  C_3 
REMARK    4  A    between atoms: C_15  and  S_6 
REMARK    5  A    between atoms: C_14  and  C_15 
ROOT
ATOM      1  N   UNL d   1      52.092  33.302  52.707  0.00  0.00    -0.208 N 
ATOM      2  C   UNL d   1      52.557  32.951  53.299  0.00  0.00     0.189 A 
ATOM      3  N   UNL d   1      52.279  32.183  53.423  0.00  0.00    -0.219 NA
ATOM      4  C   UNL d   1      51.523  32.746  52.466  0.00  0.00     0.114 A 
ATOM      5  C   UNL d   1      51.642  32.061  52.909  0.00  0.00     0.121 A 
ENDROOT
BRANCH   1   6
ATOM      6  S   UNL d   1      52.182  34.072  52.413  0.00  0.00     0.273 S 
ATOM      7  O   UNL d   1      52.511  34.759  52.090  0.00  0.00    -0.200 OA
ATOM      8  O   UNL d   1      52.970  33.892  52.286  0.00  0.00    -0.200 OA
BRANCH   6   9
ATOM      9  C   UNL d   1      51.390  34.271  52.533  0.00  0.00     0.104 A 
ATOM     10  C   UNL d   1      50.852  34.158  51.924  0.00  0.00     0.013 A 
ATOM     11  C   UNL d   1      50.060  34.359  52.049  0.00  0.00     0.001 A 
ATOM     12  C   UNL d   1      49.815  34.669  52.776  0.00  0.00     0.000 A 
ATOM     13  C   UNL d   1      50.366  34.779  53.382  0.00  0.00     0.001 A 
ATOM     14  C   UNL d   1      49.023  34.868  52.896  0.00  0.00     0.000 C 
ATOM     15  C   UNL d   1      51.158  34.578  53.258  0.00  0.00     0.013 A 
ENDBRANCH   6   9
ENDBRANCH   1   6
BRANCH   2  16
ATOM     16  S   UNL d   1      53.193  33.311  53.696  0.00  0.00    -0.049 SA
BRANCH  16  17
ATOM     17  C   UNL d   1      53.629  32.880  54.245  0.00  0.00     0.040 C 
BRANCH  17  18
ATOM     18  C   UNL d   1      54.247  33.240  54.652  0.00  0.00     0.026 A 
ATOM     19  C   UNL d   1      54.115  33.561  55.416  0.00  0.00     0.099 A 
ATOM     20  N   UNL d   1      54.721  33.923  55.834  0.00  0.00    -0.242 NA
ATOM     21  C   UNL d   1      55.467  33.968  55.487  0.00  0.00     0.099 A 
ATOM     22  C   UNL d   1      55.602  33.656  54.738  0.00  0.00     0.021 A 
ATOM     23  C   UNL d   1      54.991  33.292  54.322  0.00  0.00     0.004 A 
ENDBRANCH  17  18
ENDBRANCH  16  17
ENDBRANCH   2  16
TORSDOF 5
ENDMDL
