MODEL 1
REMARK VINA RESULT:      14.1      0.000      0.000
REMARK  7 active torsions:
REMARK  status: ('A' for Active; 'I' for Inactive)
REMARK    1  A    between atoms: C_3  and  C_1 
REMARK    2  A    between atoms: C_6  and  C_1 
REMARK    3  A    between atoms: C_2  and  C_3 
REMARK       I    between atoms: N_4  and  C_2 
REMARK    4  A    between atoms: C_12  and  N_4 
REMARK    5  A    between atoms: N_7  and  C_5 
REMARK    6  A    between atoms: C_16  and  N_7 
REMARK    7  A    between atoms: C_17  and  N_7 
ROOT
ATOM      1  C   UNL d   1      45.222 -15.141  44.603  0.00  0.00     0.279 C 
ATOM      2  N   UNL d   1      44.954 -15.900  44.770  0.00  0.00    -0.208 NA
ATOM      3  O   UNL d   1      44.843 -14.493  44.955  0.00  0.00    -0.265 OA
ENDROOT
BRANCH   2   4
ATOM      4  C   UNL d   1      45.329 -16.541  44.421  0.00  0.00     0.085 A 
ATOM      5  C   UNL d   1      45.210 -16.698  43.619  0.00  0.00     0.021 A 
ATOM      6  C   UNL d   1      45.589 -17.347  43.267  0.00  0.00     0.019 A 
ATOM      7  C   UNL d   1      46.080 -17.831  43.707  0.00  0.00     0.064 A 
ATOM      8  C   UNL d   1      46.199 -17.669  44.517  0.00  0.00     0.019 A 
ATOM      9  C   UNL d   1      45.819 -17.020  44.870  0.00  0.00     0.021 A 
BRANCH   7  10
ATOM     10  N   UNL d   1      46.453 -18.469  43.361  0.00  0.00    -0.304 N 
BRANCH  10  11
ATOM     11  C   UNL d   1      46.645 -19.135  43.822  0.00  0.00     0.080 C 
ATOM     12  C   UNL d   1      46.259 -19.859  43.682  0.00  0.00     0.021 C 
ENDBRANCH  10  11
BRANCH  10  13
ATOM     13  C   UNL d   1      46.638 -18.457  42.566  0.00  0.00     0.080 C 
ATOM     14  C   UNL d   1      46.555 -19.143  42.122  0.00  0.00     0.021 C 
ENDBRANCH  10  13
ENDBRANCH   7  10
ENDBRANCH   2   4
BRANCH   1  15
ATOM     15  C   UNL d   1      45.853 -15.010  44.099  0.00  0.00     0.063 C 
BRANCH  15  16
ATOM     16  C   UNL d   1      46.216 -14.270  44.072  0.00  0.00     0.006 C 
BRANCH  16  17
ATOM     17  C   UNL d   1      45.790 -13.603  43.847  0.00  0.00     0.011 A 
ATOM     18  C   UNL d   1      45.815 -12.916  44.286  0.00  0.00     0.058 A 
ATOM     19 CL   UNL d   1      46.267 -12.892  44.955  0.00  0.00    -0.082 Cl
ATOM     20  C   UNL d   1      45.384 -12.241  44.058  0.00  0.00     0.011 A 
ATOM     21  C   UNL d   1      44.928 -12.253  43.391  0.00  0.00     0.001 A 
ATOM     22  C   UNL d   1      44.898 -12.951  42.939  0.00  0.00     0.000 A 
ATOM     23  C   UNL d   1      45.321 -13.612  43.163  0.00  0.00     0.001 A 
ENDBRANCH  16  17
ENDBRANCH  15  16
ENDBRANCH   1  15
TORSDOF 7
ENDMDL
