MODEL 1
REMARK VINA RESULT:      -3.2      0.000      0.000
REMARK  1 active torsions:
REMARK  status: ('A' for Active; 'I' for Inactive)
REMARK    1  A    between atoms: C_7  and  C_1 
ROOT
ATOM      1  C   UNL d   1      31.681  16.751 -23.965  0.00  0.00     0.122 A 
ATOM      2  C   UNL d   1      30.467  16.094 -23.558  0.00  0.00     0.057 A 
ATOM      3  C   UNL d   1      30.024  16.663 -23.961  0.00  0.00     0.085 A 
ATOM      4  C   UNL d   1      31.291  16.137 -23.560  0.00  0.00     0.204 A 
ATOM      5  N   UNL d   1      30.421  17.275 -24.364  0.00  0.00    -0.244 NA
ATOM      6  C   UNL d   1      29.202  16.626 -23.963  0.00  0.00     0.028 A 
ATOM      7  C   UNL d   1      31.238  17.320 -24.368  0.00  0.00     0.108 A 
ATOM      8  C   UNL d   1      30.090  15.487 -23.157  0.00  0.00     0.006 A 
ATOM      9  C   UNL d   1      28.831  16.020 -23.563  0.00  0.00     0.059 A 
ATOM     10  C   UNL d   1      29.271  15.455 -23.163  0.00  0.00     0.012 A 
ATOM     11  O   UNL d   1      31.732  15.571 -23.159  0.00  0.00    -0.286 OA
ATOM     12 CL   UNL d   1      27.998  15.974 -23.560  0.00  0.00    -0.082 Cl
ATOM     13  C   UNL d   1      28.753  17.203 -24.372  0.00  0.00     0.002 C 
ENDROOT
BRANCH   1  14
ATOM     14  C   UNL d   1      32.513  16.785 -23.960  0.00  0.00     0.216 C 
ATOM     15  O   UNL d   1      32.955  16.430 -24.564  0.00  0.00    -0.644 OA
ATOM     16  O   UNL d   1      32.904  17.179 -23.341  0.00  0.00    -0.644 OA
ENDBRANCH   1  14
TORSDOF 1
ENDMDL
MODEL 2
REMARK VINA RESULT:      -3.2      2.228      3.375
REMARK  1 active torsions:
REMARK  status: ('A' for Active; 'I' for Inactive)
REMARK    1  A    between atoms: C_7  and  C_1 
ROOT
ATOM      1  C   UNL d   1      29.269  16.258 -23.774  0.00  0.00     0.122 A 
ATOM      2  C   UNL d   1      30.340  17.021 -24.357  0.00  0.00     0.057 A 
ATOM      3  C   UNL d   1      30.887  16.602 -23.902  0.00  0.00     0.085 A 
ATOM      4  C   UNL d   1      29.536  16.850 -24.294  0.00  0.00     0.204 A 
ATOM      5  N   UNL d   1      30.612  16.009 -23.383  0.00  0.00    -0.244 NA
ATOM      6  C   UNL d   1      31.691  16.766 -23.959  0.00  0.00     0.028 A 
ATOM      7  C   UNL d   1      29.815  15.838 -23.319  0.00  0.00     0.108 A 
ATOM      8  C   UNL d   1      30.596  17.606 -24.871  0.00  0.00     0.006 A 
ATOM      9  C   UNL d   1      31.941  17.349 -24.472  0.00  0.00     0.059 A 
ATOM     10  C   UNL d   1      31.398  17.766 -24.924  0.00  0.00     0.012 A 
ATOM     11  O   UNL d   1      28.992  17.268 -24.748  0.00  0.00    -0.286 OA
ATOM     12 CL   UNL d   1      32.754  17.524 -24.537  0.00  0.00    -0.082 Cl
ATOM     13  C   UNL d   1      32.245  16.341 -23.497  0.00  0.00     0.002 C 
ENDROOT
BRANCH   1  14
ATOM     14  C   UNL d   1      28.454  16.094 -23.719  0.00  0.00     0.216 C 
ATOM     15  O   UNL d   1      27.959  16.563 -23.249  0.00  0.00    -0.644 OA
ATOM     16  O   UNL d   1      28.135  15.453 -24.141  0.00  0.00    -0.644 OA
ENDBRANCH   1  14
TORSDOF 1
ENDMDL
MODEL 3
REMARK VINA RESULT:      -2.5      5.515      6.341
REMARK  1 active torsions:
REMARK  status: ('A' for Active; 'I' for Inactive)
REMARK    1  A    between atoms: C_7  and  C_1 
ROOT
ATOM      1  C   UNL d   1      32.727  22.604 -21.401  0.00  0.00     0.122 A 
ATOM      2  C   UNL d   1      32.835  21.170 -21.383  0.00  0.00     0.057 A 
ATOM      3  C   UNL d   1      32.975  21.170 -22.197  0.00  0.00     0.085 A 
ATOM      4  C   UNL d   1      32.712  21.882 -20.987  0.00  0.00     0.204 A 
ATOM      5  N   UNL d   1      32.988  21.897 -22.605  0.00  0.00    -0.244 NA
ATOM      6  C   UNL d   1      33.099  20.464 -22.600  0.00  0.00     0.028 A 
ATOM      7  C   UNL d   1      32.866  22.605 -22.215  0.00  0.00     0.108 A 
ATOM      8  C   UNL d   1      32.819  20.462 -20.969  0.00  0.00     0.006 A 
ATOM      9  C   UNL d   1      33.082  19.762 -22.184  0.00  0.00     0.059 A 
ATOM     10  C   UNL d   1      32.943  19.762 -21.375  0.00  0.00     0.012 A 
ATOM     11  O   UNL d   1      32.573  21.882 -20.176  0.00  0.00    -0.286 OA
ATOM     12 CL   UNL d   1      33.206  19.040 -22.582  0.00  0.00    -0.082 Cl
ATOM     13  C   UNL d   1      33.240  20.464 -23.426  0.00  0.00     0.002 C 
ENDROOT
BRANCH   1  14
ATOM     14  C   UNL d   1      32.601  23.318 -20.989  0.00  0.00     0.216 C 
ATOM     15  O   UNL d   1      33.225  23.699 -20.601  0.00  0.00    -0.644 OA
ATOM     16  O   UNL d   1      31.839  23.650 -20.969  0.00  0.00    -0.644 OA
ENDBRANCH   1  14
TORSDOF 1
ENDMDL
MODEL 4
REMARK VINA RESULT:      -2.2      5.894      6.819
REMARK  1 active torsions:
REMARK  status: ('A' for Active; 'I' for Inactive)
REMARK    1  A    between atoms: C_7  and  C_1 
ROOT
ATOM      1  C   UNL d   1      32.674  22.617 -20.694  0.00  0.00     0.122 A 
ATOM      2  C   UNL d   1      32.952  21.974 -21.951  0.00  0.00     0.057 A 
ATOM      3  C   UNL d   1      32.870  21.235 -21.591  0.00  0.00     0.085 A 
ATOM      4  C   UNL d   1      32.855  22.661 -21.505  0.00  0.00     0.204 A 
ATOM      5  N   UNL d   1      32.688  21.198 -20.778  0.00  0.00    -0.244 NA
ATOM      6  C   UNL d   1      32.965  20.545 -22.029  0.00  0.00     0.028 A 
ATOM      7  C   UNL d   1      32.591  21.878 -20.334  0.00  0.00     0.108 A 
ATOM      8  C   UNL d   1      33.130  22.025 -22.749  0.00  0.00     0.006 A 
ATOM      9  C   UNL d   1      33.142  20.601 -22.823  0.00  0.00     0.059 A 
ATOM     10  C   UNL d   1      33.224  21.336 -23.180  0.00  0.00     0.012 A 
ATOM     11  O   UNL d   1      32.937  23.397 -21.863  0.00  0.00    -0.286 OA
ATOM     12 CL   UNL d   1      33.241  19.908 -23.277  0.00  0.00    -0.082 Cl
ATOM     13  C   UNL d   1      32.881  19.796 -21.664  0.00  0.00     0.002 C 
ENDROOT
BRANCH   1  14
ATOM     14  C   UNL d   1      32.578  23.318 -20.254  0.00  0.00     0.216 C 
ATOM     15  O   UNL d   1      33.213  23.646 -19.837  0.00  0.00    -0.644 OA
ATOM     16  O   UNL d   1      31.835  23.690 -20.233  0.00  0.00    -0.644 OA
ENDBRANCH   1  14
TORSDOF 1
ENDMDL
MODEL 5
REMARK VINA RESULT:      -2.1      2.706      3.761
REMARK  1 active torsions:
REMARK  status: ('A' for Active; 'I' for Inactive)
REMARK    1  A    between atoms: C_7  and  C_1 
ROOT
ATOM      1  C   UNL d   1      32.339  16.852 -23.662  0.00  0.00     0.122 A 
ATOM      2  C   UNL d   1      32.565  18.085 -24.369  0.00  0.00     0.057 A 
ATOM      3  C   UNL d   1      32.789  18.449 -23.662  0.00  0.00     0.085 A 
ATOM      4  C   UNL d   1      32.341  17.291 -24.369  0.00  0.00     0.204 A 
ATOM      5  N   UNL d   1      32.784  18.003 -22.957  0.00  0.00    -0.244 NA
ATOM      6  C   UNL d   1      33.013  19.240 -23.653  0.00  0.00     0.028 A 
ATOM      7  C   UNL d   1      32.563  17.216 -22.955  0.00  0.00     0.108 A 
ATOM      8  C   UNL d   1      32.565  18.512 -25.068  0.00  0.00     0.006 A 
ATOM      9  C   UNL d   1      33.012  19.661 -24.351  0.00  0.00     0.059 A 
ATOM     10  C   UNL d   1      32.789  19.299 -25.054  0.00  0.00     0.012 A 
ATOM     11  O   UNL d   1      32.118  16.929 -25.073  0.00  0.00    -0.286 OA
ATOM     12 CL   UNL d   1      33.238  20.464 -24.354  0.00  0.00    -0.082 Cl
ATOM     13  C   UNL d   1      33.241  19.609 -22.936  0.00  0.00     0.002 C 
ENDROOT
BRANCH   1  14
ATOM     14  C   UNL d   1      32.111  16.051 -23.675  0.00  0.00     0.216 C 
ATOM     15  O   UNL d   1      32.642  15.463 -23.916  0.00  0.00    -0.644 OA
ATOM     16  O   UNL d   1      31.340  15.840 -23.444  0.00  0.00    -0.644 OA
ENDBRANCH   1  14
TORSDOF 1
ENDMDL
MODEL 6
REMARK VINA RESULT:      -1.8      4.476      5.378
REMARK  1 active torsions:
REMARK  status: ('A' for Active; 'I' for Inactive)
REMARK    1  A    between atoms: C_7  and  C_1 
ROOT
ATOM      1  C   UNL d   1      32.770  21.271 -21.441  0.00  0.00     0.122 A 
ATOM      2  C   UNL d   1      32.889  20.016 -22.134  0.00  0.00     0.057 A 
ATOM      3  C   UNL d   1      33.005  20.420 -22.845  0.00  0.00     0.085 A 
ATOM      4  C   UNL d   1      32.772  20.439 -21.436  0.00  0.00     0.204 A 
ATOM      5  N   UNL d   1      33.002  21.254 -22.843  0.00  0.00    -0.244 NA
ATOM      6  C   UNL d   1      33.123  20.005 -23.546  0.00  0.00     0.028 A 
ATOM      7  C   UNL d   1      32.887  21.675 -22.152  0.00  0.00     0.108 A 
ATOM      8  C   UNL d   1      32.890  19.197 -22.122  0.00  0.00     0.006 A 
ATOM      9  C   UNL d   1      33.123  19.190 -23.529  0.00  0.00     0.059 A 
ATOM     10  C   UNL d   1      33.007  18.789 -22.822  0.00  0.00     0.012 A 
ATOM     11  O   UNL d   1      32.656  20.037 -20.728  0.00  0.00    -0.286 OA
ATOM     12 CL   UNL d   1      33.241  18.759 -24.234  0.00  0.00    -0.082 Cl
ATOM     13  C   UNL d   1      33.241  20.415 -24.267  0.00  0.00     0.002 C 
ENDROOT
BRANCH   1  14
ATOM     14  C   UNL d   1      32.651  21.688 -20.729  0.00  0.00     0.216 C 
ATOM     15  O   UNL d   1      33.239  21.708 -20.147  0.00  0.00    -0.644 OA
ATOM     16  O   UNL d   1      31.933  22.087 -20.603  0.00  0.00    -0.644 OA
ENDBRANCH   1  14
TORSDOF 1
ENDMDL
MODEL 7
REMARK VINA RESULT:      -1.8      6.646      7.448
REMARK  1 active torsions:
REMARK  status: ('A' for Active; 'I' for Inactive)
REMARK    1  A    between atoms: C_7  and  C_1 
ROOT
ATOM      1  C   UNL d   1      32.698  23.080 -20.131  0.00  0.00     0.122 A 
ATOM      2  C   UNL d   1      32.972  22.183 -21.222  0.00  0.00     0.057 A 
ATOM      3  C   UNL d   1      32.879  22.805 -21.757  0.00  0.00     0.085 A 
ATOM      4  C   UNL d   1      32.882  22.319 -20.414  0.00  0.00     0.204 A 
ATOM      5  N   UNL d   1      32.694  23.564 -21.467  0.00  0.00    -0.244 NA
ATOM      6  C   UNL d   1      32.966  22.677 -22.565  0.00  0.00     0.028 A 
ATOM      7  C   UNL d   1      32.604  23.702 -20.666  0.00  0.00     0.108 A 
ATOM      8  C   UNL d   1      33.154  21.431 -21.494  0.00  0.00     0.006 A 
ATOM      9  C   UNL d   1      33.147  21.927 -22.831  0.00  0.00     0.059 A 
ATOM     10  C   UNL d   1      33.240  21.309 -22.299  0.00  0.00     0.012 A 
ATOM     11  O   UNL d   1      32.976  21.700 -19.881  0.00  0.00    -0.286 OA
ATOM     12 CL   UNL d   1      33.238  21.786 -23.648  0.00  0.00    -0.082 Cl
ATOM     13  C   UNL d   1      32.871  23.308 -23.108  0.00  0.00     0.002 C 
ENDROOT
BRANCH   1  14
ATOM     14  C   UNL d   1      32.610  23.206 -19.312  0.00  0.00     0.216 C 
ATOM     15  O   UNL d   1      33.230  23.522 -18.863  0.00  0.00    -0.644 OA
ATOM     16  O   UNL d   1      31.891  23.011 -18.943  0.00  0.00    -0.644 OA
ENDBRANCH   1  14
TORSDOF 1
ENDMDL
MODEL 8
REMARK VINA RESULT:      -1.5      5.329      6.170
REMARK  1 active torsions:
REMARK  status: ('A' for Active; 'I' for Inactive)
REMARK    1  A    between atoms: C_7  and  C_1 
ROOT
ATOM      1  C   UNL d   1      33.234  20.215 -22.523  0.00  0.00     0.122 A 
ATOM      2  C   UNL d   1      33.237  21.070 -21.366  0.00  0.00     0.057 A 
ATOM      3  C   UNL d   1      33.236  21.734 -21.857  0.00  0.00     0.085 A 
ATOM      4  C   UNL d   1      33.236  20.315 -21.697  0.00  0.00     0.204 A 
ATOM      5  N   UNL d   1      33.234  21.627 -22.684  0.00  0.00    -0.244 NA
ATOM      6  C   UNL d   1      33.238  22.491 -21.534  0.00  0.00     0.028 A 
ATOM      7  C   UNL d   1      33.233  20.879 -23.014  0.00  0.00     0.108 A 
ATOM      8  C   UNL d   1      33.239  21.161 -20.551  0.00  0.00     0.006 A 
ATOM      9  C   UNL d   1      33.240  22.577 -20.724  0.00  0.00     0.059 A 
ATOM     10  C   UNL d   1      33.241  21.917 -20.236  0.00  0.00     0.012 A 
ATOM     11  O   UNL d   1      33.237  19.654 -21.208  0.00  0.00    -0.286 OA
ATOM     12 CL   UNL d   1      33.241  23.340 -20.386  0.00  0.00    -0.082 Cl
ATOM     13  C   UNL d   1      33.237  23.165 -22.032  0.00  0.00     0.002 C 
ENDROOT
BRANCH   1  14
ATOM     14  C   UNL d   1      33.232  19.447 -22.846  0.00  0.00     0.216 C 
ATOM     15  O   UNL d   1      33.223  18.781 -22.354  0.00  0.00    -0.644 OA
ATOM     16  O   UNL d   1      33.241  19.349 -23.671  0.00  0.00    -0.644 OA
ENDBRANCH   1  14
TORSDOF 1
ENDMDL
MODEL 9
REMARK VINA RESULT:      -1.4      4.277      5.196
REMARK  1 active torsions:
REMARK  status: ('A' for Active; 'I' for Inactive)
REMARK    1  A    between atoms: C_7  and  C_1 
ROOT
ATOM      1  C   UNL d   1      33.237  19.240 -23.266  0.00  0.00     0.122 A 
ATOM      2  C   UNL d   1      33.234  19.965 -22.023  0.00  0.00     0.057 A 
ATOM      3  C   UNL d   1      33.237  20.679 -22.439  0.00  0.00     0.085 A 
ATOM      4  C   UNL d   1      33.234  19.250 -22.434  0.00  0.00     0.204 A 
ATOM      5  N   UNL d   1      33.240  20.661 -23.273  0.00  0.00    -0.244 NA
ATOM      6  C   UNL d   1      33.238  21.396 -22.037  0.00  0.00     0.028 A 
ATOM      7  C   UNL d   1      33.240  19.954 -23.682  0.00  0.00     0.108 A 
ATOM      8  C   UNL d   1      33.231  19.968 -21.204  0.00  0.00     0.006 A 
ATOM      9  C   UNL d   1      33.234  21.394 -21.222  0.00  0.00     0.059 A 
ATOM     10  C   UNL d   1      33.231  20.684 -20.808  0.00  0.00     0.012 A 
ATOM     11  O   UNL d   1      33.230  18.540 -22.020  0.00  0.00    -0.286 OA
ATOM     12 CL   UNL d   1      33.235  22.116 -20.803  0.00  0.00    -0.082 Cl
ATOM     13  C   UNL d   1      33.241  22.120 -22.459  0.00  0.00     0.002 C 
ENDROOT
BRANCH   1  14
ATOM     14  C   UNL d   1      33.236  18.512 -23.670  0.00  0.00     0.216 C 
ATOM     15  O   UNL d   1      33.235  17.796 -23.253  0.00  0.00    -0.644 OA
ATOM     16  O   UNL d   1      33.237  18.504 -24.501  0.00  0.00    -0.644 OA
ENDBRANCH   1  14
TORSDOF 1
ENDMDL
