MODEL 1
REMARK VINA RESULT:      -5.5      0.000      0.000
REMARK  4 active torsions:
REMARK  status: ('A' for Active; 'I' for Inactive)
REMARK    1  A    between atoms: N_2  and  C_1 
REMARK       I    between atoms: C_4  and  N_2 
REMARK    2  A    between atoms: C_11  and  C_4 
REMARK    3  A    between atoms: C_7  and  C_5 
REMARK    4  A    between atoms: C_9  and  C_7 
REMARK       I    between atoms: N_13  and  C_9 
ROOT
ATOM      1  C   UNL d   1      57.754  -0.053  30.311  0.00  0.00     0.197 A 
ATOM      2  N   UNL d   1      58.124  -0.606  29.838  0.00  0.00    -0.220 NA
ATOM      3  C   UNL d   1      58.693  -0.224  29.396  0.00  0.00     0.095 A 
ATOM      4  S   UNL d   1      58.096   0.682  30.164  0.00  0.00    -0.046 SA
ATOM      5  C   UNL d   1      58.677   0.578  29.597  0.00  0.00     0.058 A 
ENDROOT
BRANCH   1   6
ATOM      6  N   UNL d   1      57.146  -0.199  30.845  0.00  0.00    -0.183 NA
ATOM      7  C   UNL d   1      57.249  -0.038  31.649  0.00  0.00     0.281 C 
ATOM      8  O   UNL d   1      57.971   0.272  31.912  0.00  0.00    -0.265 OA
BRANCH   7   9
ATOM      9  C   UNL d   1      56.643  -0.184  32.180  0.00  0.00     0.058 A 
ATOM     10  C   UNL d   1      56.220   0.451  32.495  0.00  0.00     0.005 A 
ATOM     11  C   UNL d   1      55.611   0.303  33.030  0.00  0.00     0.000 A 
ATOM     12  C   UNL d   1      55.426  -0.465  33.247  0.00  0.00     0.000 A 
ATOM     13  C   UNL d   1      55.853  -1.102  32.929  0.00  0.00     0.000 A 
ATOM     14  C   UNL d   1      56.464  -0.954  32.392  0.00  0.00     0.005 A 
ENDBRANCH   7   9
ENDBRANCH   1   6
BRANCH   3  15
ATOM     15  C   UNL d   1      59.198  -0.574  28.844  0.00  0.00     0.084 C 
BRANCH  15  16
ATOM     16  C   UNL d   1      59.828  -1.044  29.100  0.00  0.00     0.306 C 
ATOM     17  O   UNL d   1      60.440  -0.706  29.536  0.00  0.00    -0.263 OA
ATOM     18  N   UNL d   1      59.838  -1.843  28.918  0.00  0.00    -0.053 NA
ATOM     19  O   UNL d   1      60.465  -2.320  29.171  0.00  0.00    -0.058 OA
ENDBRANCH  15  16
ENDBRANCH   3  15
TORSDOF 4
ENDMDL
MODEL 2
REMARK VINA RESULT:      -3.7      1.760      4.640
REMARK  4 active torsions:
REMARK  status: ('A' for Active; 'I' for Inactive)
REMARK    1  A    between atoms: N_2  and  C_1 
REMARK       I    between atoms: C_4  and  N_2 
REMARK    2  A    between atoms: C_11  and  C_4 
REMARK    3  A    between atoms: C_7  and  C_5 
REMARK    4  A    between atoms: C_9  and  C_7 
REMARK       I    between atoms: N_13  and  C_9 
ROOT
ATOM      1  C   UNL d   1      57.384   0.542  31.668  0.00  0.00     0.197 A 
ATOM      2  N   UNL d   1      56.571   0.560  31.742  0.00  0.00    -0.220 NA
ATOM      3  C   UNL d   1      56.389   0.640  32.533  0.00  0.00     0.095 A 
ATOM      4  S   UNL d   1      57.714   0.610  32.420  0.00  0.00    -0.046 SA
ATOM      5  C   UNL d   1      57.099   0.670  32.957  0.00  0.00     0.058 A 
ENDROOT
BRANCH   1   6
ATOM      6  N   UNL d   1      57.807   0.467  30.966  0.00  0.00    -0.183 NA
ATOM      7  C   UNL d   1      57.819  -0.253  30.561  0.00  0.00     0.281 C 
ATOM      8  O   UNL d   1      57.402  -0.900  30.870  0.00  0.00    -0.265 OA
BRANCH   7   9
ATOM      9  C   UNL d   1      58.239  -0.327  29.862  0.00  0.00     0.058 A 
ATOM     10  C   UNL d   1      58.108   0.212  29.252  0.00  0.00     0.005 A 
ATOM     11  C   UNL d   1      58.531   0.137  28.550  0.00  0.00     0.000 A 
ATOM     12  C   UNL d   1      59.077  -0.467  28.456  0.00  0.00     0.000 A 
ATOM     13  C   UNL d   1      59.208  -1.009  29.071  0.00  0.00     0.000 A 
ATOM     14  C   UNL d   1      58.783  -0.933  29.777  0.00  0.00     0.005 A 
ENDBRANCH   7   9
ENDBRANCH   1   6
BRANCH   3  15
ATOM     15  C   UNL d   1      55.631   0.682  32.857  0.00  0.00     0.084 C 
BRANCH  15  16
ATOM     16  C   UNL d   1      55.430   0.203  33.501  0.00  0.00     0.306 C 
ATOM     17  O   UNL d   1      55.494  -0.616  33.437  0.00  0.00    -0.263 OA
ATOM     18  N   UNL d   1      55.169   0.548  34.196  0.00  0.00    -0.053 NA
ATOM     19  O   UNL d   1      54.966   0.076  34.844  0.00  0.00    -0.058 OA
ENDBRANCH  15  16
ENDBRANCH   3  15
TORSDOF 4
ENDMDL
MODEL 3
REMARK VINA RESULT:      -3.4      2.169      4.989
REMARK  4 active torsions:
REMARK  status: ('A' for Active; 'I' for Inactive)
REMARK    1  A    between atoms: N_2  and  C_1 
REMARK       I    between atoms: C_4  and  N_2 
REMARK    2  A    between atoms: C_11  and  C_4 
REMARK    3  A    between atoms: C_7  and  C_5 
REMARK    4  A    between atoms: C_9  and  C_7 
REMARK       I    between atoms: N_13  and  C_9 
ROOT
ATOM      1  C   UNL d   1      56.907  -0.166  32.335  0.00  0.00     0.197 A 
ATOM      2  N   UNL d   1      56.789   0.340  32.965  0.00  0.00    -0.220 NA
ATOM      3  C   UNL d   1      56.120   0.099  33.364  0.00  0.00     0.095 A 
ATOM      4  S   UNL d   1      56.305  -0.729  32.341  0.00  0.00    -0.046 SA
ATOM      5  C   UNL d   1      55.817  -0.566  32.978  0.00  0.00     0.058 A 
ENDROOT
BRANCH   1   6
ATOM      6  N   UNL d   1      57.518  -0.126  31.787  0.00  0.00    -0.183 NA
ATOM      7  C   UNL d   1      57.418   0.293  31.081  0.00  0.00     0.281 C 
ATOM      8  O   UNL d   1      56.696   0.671  30.932  0.00  0.00    -0.265 OA
BRANCH   7   9
ATOM      9  C   UNL d   1      58.027   0.334  30.535  0.00  0.00     0.058 A 
ATOM     10  C   UNL d   1      57.899   0.064  29.766  0.00  0.00     0.005 A 
ATOM     11  C   UNL d   1      58.512   0.106  29.218  0.00  0.00     0.000 A 
ATOM     12  C   UNL d   1      59.242   0.411  29.432  0.00  0.00     0.000 A 
ATOM     13  C   UNL d   1      59.368   0.682  30.206  0.00  0.00     0.000 A 
ATOM     14  C   UNL d   1      58.753   0.640  30.757  0.00  0.00     0.005 A 
ENDBRANCH   7   9
ENDBRANCH   1   6
BRANCH   3  15
ATOM     15  C   UNL d   1      55.799   0.455  34.037  0.00  0.00     0.084 C 
BRANCH  15  16
ATOM     16  C   UNL d   1      54.981   0.567  34.094  0.00  0.00     0.306 C 
ATOM     17  O   UNL d   1      54.534   0.674  33.410  0.00  0.00    -0.263 OA
ATOM     18  N   UNL d   1      54.623   0.570  34.830  0.00  0.00    -0.053 NA
ATOM     19  O   UNL d   1      53.806   0.682  34.896  0.00  0.00    -0.058 OA
ENDBRANCH  15  16
ENDBRANCH   3  15
TORSDOF 4
ENDMDL
MODEL 4
REMARK VINA RESULT:      -3.2      1.586      4.437
REMARK  4 active torsions:
REMARK  status: ('A' for Active; 'I' for Inactive)
REMARK    1  A    between atoms: N_2  and  C_1 
REMARK       I    between atoms: C_4  and  N_2 
REMARK    2  A    between atoms: C_11  and  C_4 
REMARK    3  A    between atoms: C_7  and  C_5 
REMARK    4  A    between atoms: C_9  and  C_7 
REMARK       I    between atoms: N_13  and  C_9 
ROOT
ATOM      1  C   UNL d   1      58.083  -0.673  30.408  0.00  0.00     0.197 A 
ATOM      2  N   UNL d   1      57.486  -0.648  30.965  0.00  0.00    -0.220 NA
ATOM      3  C   UNL d   1      57.281   0.132  31.085  0.00  0.00     0.095 A 
ATOM      4  S   UNL d   1      58.252   0.100  30.178  0.00  0.00    -0.046 SA
ATOM      5  C   UNL d   1      57.757   0.600  30.596  0.00  0.00     0.058 A 
ENDROOT
BRANCH   1   6
ATOM      6  N   UNL d   1      58.454  -1.349  30.123  0.00  0.00    -0.183 NA
ATOM      7  C   UNL d   1      58.584  -1.442  29.312  0.00  0.00     0.281 C 
ATOM      8  O   UNL d   1      58.337  -0.847  28.790  0.00  0.00    -0.265 OA
BRANCH   7   9
ATOM      9  C   UNL d   1      58.953  -2.115  29.027  0.00  0.00     0.058 A 
ATOM     10  C   UNL d   1      58.495  -2.758  28.789  0.00  0.00     0.005 A 
ATOM     11  C   UNL d   1      58.867  -3.434  28.503  0.00  0.00     0.000 A 
ATOM     12  C   UNL d   1      59.684  -3.471  28.455  0.00  0.00     0.000 A 
ATOM     13  C   UNL d   1      60.144  -2.823  28.696  0.00  0.00     0.000 A 
ATOM     14  C   UNL d   1      59.770  -2.143  28.983  0.00  0.00     0.005 A 
ENDBRANCH   7   9
ENDBRANCH   1   6
BRANCH   3  15
ATOM     15  C   UNL d   1      56.700   0.410  31.603  0.00  0.00     0.084 C 
BRANCH  15  16
ATOM     16  C   UNL d   1      56.706   0.172  32.395  0.00  0.00     0.306 C 
ATOM     17  O   UNL d   1      56.425  -0.575  32.601  0.00  0.00    -0.263 OA
ATOM     18  N   UNL d   1      56.992   0.682  32.969  0.00  0.00    -0.053 NA
ATOM     19  O   UNL d   1      57.001   0.452  33.764  0.00  0.00    -0.058 OA
ENDBRANCH  15  16
ENDBRANCH   3  15
TORSDOF 4
ENDMDL
