MODEL 1
REMARK VINA RESULT:      22.0      0.000      0.000
REMARK  5 active torsions:
REMARK  status: ('A' for Active; 'I' for Inactive)
REMARK    1  A    between atoms: C_3  and  C_1 
REMARK    2  A    between atoms: N_2  and  C_7 
REMARK       I    between atoms: N_4  and  C_3 
REMARK    3  A    between atoms: C_9  and  N_4 
REMARK    4  A    between atoms: O_19  and  C_6 
REMARK    5  A    between atoms: O_20  and  C_10 
ROOT
ATOM      1  C   UNL d   1      46.072 -16.677  43.471  0.00  0.00     0.281 C 
ATOM      2  N   UNL d   1      46.035 -16.252  44.178  0.00  0.00    -0.206 NA
ATOM      3  O   UNL d   1      46.008 -16.296  42.770  0.00  0.00    -0.265 OA
ENDROOT
BRANCH   1   4
ATOM      4  C   UNL d   1      46.175 -17.502  43.498  0.00  0.00     0.080 A 
ATOM      5  C   UNL d   1      46.235 -17.891  44.214  0.00  0.00     0.007 A 
ATOM      6  C   UNL d   1      46.339 -18.724  44.221  0.00  0.00     0.000 A 
ATOM      7  C   UNL d   1      46.399 -19.108  44.946  0.00  0.00     0.000 A 
ATOM      8  C   UNL d   1      46.377 -19.126  43.501  0.00  0.00     0.002 A 
ATOM      9  C   UNL d   1      46.503 -19.943  44.945  0.00  0.00     0.000 A 
ATOM     10  C   UNL d   1      46.540 -20.329  44.252  0.00  0.00     0.000 A 
ATOM     11  C   UNL d   1      46.480 -19.943  43.526  0.00  0.00     0.000 A 
ATOM     12  C   UNL d   1      46.314 -18.715  42.795  0.00  0.00     0.024 A 
ATOM     13  C   UNL d   1      46.212 -17.892  42.803  0.00  0.00     0.099 A 
BRANCH  13  14
ATOM     14  O   UNL d   1      46.145 -17.455  42.093  0.00  0.00    -0.328 OA
ATOM     15  C   UNL d   1      46.603 -17.678  41.431  0.00  0.00     0.181 C 
ENDBRANCH  13  14
ENDBRANCH   1   4
BRANCH   2  16
ATOM     16  C   UNL d   1      45.936 -15.458  44.179  0.00  0.00     0.107 A 
ATOM     17  C   UNL d   1      45.288 -15.140  44.566  0.00  0.00     0.113 A 
ATOM     18  C   UNL d   1      45.173 -14.321  44.576  0.00  0.00     0.049 A 
ATOM     19  C   UNL d   1      45.706 -13.812  44.197  0.00  0.00     0.129 A 
ATOM     20  C   UNL d   1      46.355 -14.135  43.809  0.00  0.00     0.025 A 
ATOM     21  C   UNL d   1      46.475 -14.948  43.796  0.00  0.00     0.023 A 
BRANCH  17  22
ATOM     22  O   UNL d   1      44.739 -15.643  44.955  0.00  0.00    -0.327 OA
ATOM     23  C   UNL d   1      43.921 -15.465  44.905  0.00  0.00     0.181 C 
ENDBRANCH  17  22
BRANCH  19  24
ATOM     24  N   UNL d   1      45.570 -12.992  44.219  0.00  0.00    -0.114 N 
ATOM     25  O   UNL d   1      45.516 -12.592  43.499  0.00  0.00    -0.532 OA
ATOM     26  O   UNL d   1      45.494 -12.606  44.939  0.00  0.00    -0.532 OA
ENDBRANCH  19  24
ENDBRANCH   2  16
TORSDOF 5
ENDMDL
MODEL 2
REMARK VINA RESULT:      22.5      1.402      4.996
REMARK  5 active torsions:
REMARK  status: ('A' for Active; 'I' for Inactive)
REMARK    1  A    between atoms: C_3  and  C_1 
REMARK    2  A    between atoms: N_2  and  C_7 
REMARK       I    between atoms: N_4  and  C_3 
REMARK    3  A    between atoms: C_9  and  N_4 
REMARK    4  A    between atoms: O_19  and  C_6 
REMARK    5  A    between atoms: O_20  and  C_10 
ROOT
ATOM      1  C   UNL d   1      45.539 -16.275  44.529  0.00  0.00     0.281 C 
ATOM      2  N   UNL d   1      46.158 -16.648  44.131  0.00  0.00    -0.206 NA
ATOM      3  O   UNL d   1      45.014 -16.709  44.949  0.00  0.00    -0.265 OA
ENDROOT
BRANCH   1   4
ATOM      4  C   UNL d   1      45.469 -15.447  44.488  0.00  0.00     0.080 A 
ATOM      5  C   UNL d   1      46.096 -14.988  44.238  0.00  0.00     0.007 A 
ATOM      6  C   UNL d   1      46.006 -14.154  44.203  0.00  0.00     0.000 A 
ATOM      7  C   UNL d   1      46.643 -13.699  43.951  0.00  0.00     0.000 A 
ATOM      8  C   UNL d   1      45.282 -13.822  44.423  0.00  0.00     0.002 A 
ATOM      9  C   UNL d   1      46.545 -12.863  43.918  0.00  0.00     0.000 A 
ATOM     10  C   UNL d   1      45.849 -12.545  44.130  0.00  0.00     0.000 A 
ATOM     11  C   UNL d   1      45.211 -13.003  44.383  0.00  0.00     0.000 A 
ATOM     12  C   UNL d   1      44.666 -14.303  44.670  0.00  0.00     0.024 A 
ATOM     13  C   UNL d   1      44.770 -15.126  44.700  0.00  0.00     0.099 A 
BRANCH  13  14
ATOM     14  O   UNL d   1      44.153 -15.633  44.950  0.00  0.00    -0.328 OA
ATOM     15  C   UNL d   1      43.361 -15.372  44.893  0.00  0.00     0.181 C 
ENDBRANCH  13  14
ENDBRANCH   1   4
BRANCH   2  16
ATOM     16  C   UNL d   1      46.247 -17.442  44.154  0.00  0.00     0.107 A 
ATOM     17  C   UNL d   1      46.300 -17.856  43.450  0.00  0.00     0.113 A 
ATOM     18  C   UNL d   1      46.393 -18.678  43.458  0.00  0.00     0.049 A 
ATOM     19  C   UNL d   1      46.434 -19.093  44.174  0.00  0.00     0.129 A 
ATOM     20  C   UNL d   1      46.380 -18.675  44.880  0.00  0.00     0.025 A 
ATOM     21  C   UNL d   1      46.288 -17.858  44.877  0.00  0.00     0.023 A 
BRANCH  17  22
ATOM     22  O   UNL d   1      46.261 -17.448  42.716  0.00  0.00    -0.327 OA
ATOM     23  C   UNL d   1      46.425 -17.870  42.010  0.00  0.00     0.181 C 
ENDBRANCH  17  22
BRANCH  19  24
ATOM     24  N   UNL d   1      46.527 -19.920  44.160  0.00  0.00    -0.114 N 
ATOM     25  O   UNL d   1      46.524 -20.319  44.882  0.00  0.00    -0.532 OA
ATOM     26  O   UNL d   1      46.618 -20.312  43.445  0.00  0.00    -0.532 OA
ENDBRANCH  19  24
ENDBRANCH   2  16
TORSDOF 5
ENDMDL
