MODEL 1
REMARK VINA RESULT:      -5.5      0.000      0.000
REMARK  3 active torsions:
REMARK  status: ('A' for Active; 'I' for Inactive)
REMARK    1  A    between atoms: C_9  and  C_1 
REMARK       I    between atoms: C_4  and  N_8 
REMARK    2  A    between atoms: C_5  and  C_4 
REMARK    3  A    between atoms: N_8  and  C_17 
ROOT
ATOM      1  C   UNL d   1      57.429  -0.425  31.002  0.00  0.00     0.036 A 
ATOM      2  C   UNL d   1      57.020  -0.956  31.464  0.00  0.00     0.005 A 
ATOM      3  C   UNL d   1      57.347   0.376  31.109  0.00  0.00     0.005 A 
ATOM      4  C   UNL d   1      56.427   0.132  32.162  0.00  0.00     0.085 A 
ATOM      5  C   UNL d   1      56.509  -0.668  32.056  0.00  0.00     0.019 A 
ATOM      6  C   UNL d   1      56.854   0.681  31.679  0.00  0.00     0.019 A 
ENDROOT
BRANCH   1   7
ATOM      7  C   UNL d   1      57.939  -0.713  30.411  0.00  0.00     0.162 A 
ATOM      8  N   UNL d   1      58.469  -0.306  29.908  0.00  0.00    -0.225 NA
ATOM      9  C   UNL d   1      58.823  -0.866  29.443  0.00  0.00     0.101 A 
ATOM     10  C   UNL d   1      59.395  -0.816  28.838  0.00  0.00     0.021 A 
ATOM     11  C   UNL d   1      58.515  -1.604  29.657  0.00  0.00     0.101 A 
ATOM     12  C   UNL d   1      59.654  -1.499  28.455  0.00  0.00     0.002 A 
ATOM     13  C   UNL d   1      59.346  -2.237  28.670  0.00  0.00     0.002 A 
ATOM     14  C   UNL d   1      58.780  -2.293  29.267  0.00  0.00     0.021 A 
ATOM     15  N   UNL d   1      57.975  -1.491  30.253  0.00  0.00    -0.225 NA
ENDBRANCH   1   7
BRANCH   4  16
ATOM     16  N   UNL d   1      55.916   0.421  32.753  0.00  0.00    -0.206 NA
ATOM     17  C   UNL d   1      55.770  -0.015  33.444  0.00  0.00     0.302 C 
ATOM     18  O   UNL d   1      56.132  -0.734  33.540  0.00  0.00    -0.263 OA
BRANCH  17  19
ATOM     19  C   UNL d   1      55.273   0.255  34.030  0.00  0.00     0.158 A 
ATOM     20  O   UNL d   1      55.465   0.410  34.807  0.00  0.00    -0.300 OA
ATOM     21  C   UNL d   1      54.770   0.675  35.196  0.00  0.00     0.123 A 
ATOM     22  C   UNL d   1      54.177   0.682  34.679  0.00  0.00     0.029 A 
ATOM     23  C   UNL d   1      54.451   0.431  33.959  0.00  0.00     0.032 A 
ENDBRANCH  17  19
ENDBRANCH   4  16
TORSDOF 3
ENDMDL
MODEL 2
REMARK VINA RESULT:      -3.2      9.282      9.566
REMARK  3 active torsions:
REMARK  status: ('A' for Active; 'I' for Inactive)
REMARK    1  A    between atoms: C_9  and  C_1 
REMARK       I    between atoms: C_4  and  N_8 
REMARK    2  A    between atoms: C_5  and  C_4 
REMARK    3  A    between atoms: N_8  and  C_17 
ROOT
ATOM      1  C   UNL d   1      58.197  -9.668  31.818  0.00  0.00     0.036 A 
ATOM      2  C   UNL d   1      57.697  -9.818  32.442  0.00  0.00     0.005 A 
ATOM      3  C   UNL d   1      58.979  -9.486  31.939  0.00  0.00     0.005 A 
ATOM      4  C   UNL d   1      58.779  -9.602  33.340  0.00  0.00     0.085 A 
ATOM      5  C   UNL d   1      57.998  -9.783  33.218  0.00  0.00     0.019 A 
ATOM      6  C   UNL d   1      59.295  -9.446  32.687  0.00  0.00     0.019 A 
ENDROOT
BRANCH   1   7
ATOM      7  C   UNL d   1      57.896  -9.702  31.042  0.00  0.00     0.162 A 
ATOM      8  N   UNL d   1      58.295  -9.733  30.308  0.00  0.00    -0.225 NA
ATOM      9  C   UNL d   1      57.724  -9.760  29.735  0.00  0.00     0.101 A 
ATOM     10  C   UNL d   1      57.763  -9.796  28.902  0.00  0.00     0.021 A 
ATOM     11  C   UNL d   1      56.987  -9.745  30.112  0.00  0.00     0.101 A 
ATOM     12  C   UNL d   1      57.069  -9.817  28.456  0.00  0.00     0.002 A 
ATOM     13  C   UNL d   1      56.332  -9.803  28.833  0.00  0.00     0.002 A 
ATOM     14  C   UNL d   1      56.287  -9.767  29.656  0.00  0.00     0.021 A 
ATOM     15  N   UNL d   1      57.112  -9.710  30.913  0.00  0.00    -0.225 NA
ENDBRANCH   1   7
BRANCH   4  16
ATOM     16  N   UNL d   1      59.080  -9.567  34.115  0.00  0.00    -0.206 NA
ATOM     17  C   UNL d   1      59.562  -8.936  34.360  0.00  0.00     0.302 C 
ATOM     18  O   UNL d   1      59.739  -8.347  33.832  0.00  0.00    -0.263 OA
BRANCH  17  19
ATOM     19  C   UNL d   1      59.864  -8.889  35.115  0.00  0.00     0.158 A 
ATOM     20  O   UNL d   1      60.190  -9.492  35.555  0.00  0.00    -0.300 OA
ATOM     21  C   UNL d   1      60.422  -9.173  36.296  0.00  0.00     0.123 A 
ATOM     22  C   UNL d   1      60.247  -8.406  36.309  0.00  0.00     0.029 A 
ATOM     23  C   UNL d   1      59.905  -8.202  35.603  0.00  0.00     0.032 A 
ENDBRANCH  17  19
ENDBRANCH   4  16
TORSDOF 3
ENDMDL
