MODEL 1
REMARK VINA RESULT:      19.5      0.000      0.000
REMARK  1 active torsions:
REMARK  status: ('A' for Active; 'I' for Inactive)
REMARK    1  A    between atoms: N_2  and  C_1 
ROOT
ATOM      1  C   UNL d   1      45.926 -17.321  44.227  0.00  0.00     0.110 A 
ATOM      2  C   UNL d   1      46.000 -17.565  43.427  0.00  0.00     0.212 A 
ATOM      3  C   UNL d   1      46.070 -17.862  44.838  0.00  0.00     0.056 A 
ATOM      4  C   UNL d   1      46.215 -18.338  43.257  0.00  0.00     0.046 A 
ATOM      5  S   UNL d   1      46.289 -18.648  44.650  0.00  0.00    -0.085 SA
ATOM      6  C   UNL d   1      46.360 -18.885  43.863  0.00  0.00     0.033 A 
ATOM      7  O   UNL d   1      45.857 -17.028  42.822  0.00  0.00    -0.285 OA
ATOM      8  C   UNL d   1      46.289 -18.582  42.473  0.00  0.00     0.004 A 
ATOM      9  C   UNL d   1      46.575 -19.658  43.688  0.00  0.00     0.007 A 
ATOM     10  C   UNL d   1      46.503 -19.352  42.291  0.00  0.00     0.000 A 
ATOM     11  C   UNL d   1      46.647 -19.894  42.902  0.00  0.00     0.001 A 
ENDROOT
BRANCH   1  12
ATOM     12  N   UNL d   1      45.710 -16.543  44.407  0.00  0.00    -0.301 N 
ATOM     13  C   UNL d   1      46.212 -15.927  44.227  0.00  0.00     0.080 A 
ATOM     14  C   UNL d   1      45.999 -15.145  44.406  0.00  0.00     0.018 A 
ATOM     15  C   UNL d   1      46.505 -14.526  44.224  0.00  0.00     0.002 A 
ATOM     16  C   UNL d   1      45.277 -14.993  44.767  0.00  0.00     0.003 A 
ATOM     17  C   UNL d   1      46.292 -13.749  44.403  0.00  0.00     0.000 A 
ATOM     18  C   UNL d   1      45.567 -13.596  44.766  0.00  0.00     0.000 A 
ATOM     19  C   UNL d   1      45.057 -14.221  44.949  0.00  0.00     0.000 A 
ATOM     20  C   UNL d   1      44.757 -15.621  44.955  0.00  0.00     0.019 A 
ATOM     21  C   UNL d   1      44.982 -16.389  44.772  0.00  0.00     0.080 A 
ENDBRANCH   1  12
TORSDOF 1
ENDMDL
MODEL 2
REMARK VINA RESULT:      20.9      1.079      4.193
REMARK  1 active torsions:
REMARK  status: ('A' for Active; 'I' for Inactive)
REMARK    1  A    between atoms: N_2  and  C_1 
ROOT
ATOM      1  C   UNL d   1      45.513 -16.035  44.418  0.00  0.00     0.110 A 
ATOM      2  C   UNL d   1      45.952 -15.390  44.111  0.00  0.00     0.212 A 
ATOM      3  C   UNL d   1      44.813 -15.894  44.839  0.00  0.00     0.056 A 
ATOM      4  C   UNL d   1      45.685 -14.623  44.231  0.00  0.00     0.046 A 
ATOM      5  S   UNL d   1      44.552 -15.107  44.954  0.00  0.00    -0.085 SA
ATOM      6  C   UNL d   1      44.986 -14.475  44.651  0.00  0.00     0.033 A 
ATOM      7  O   UNL d   1      46.646 -15.529  43.693  0.00  0.00    -0.285 OA
ATOM      8  C   UNL d   1      46.114 -13.986  43.931  0.00  0.00     0.004 A 
ATOM      9  C   UNL d   1      44.723 -13.706  44.769  0.00  0.00     0.007 A 
ATOM     10  C   UNL d   1      45.857 -13.215  44.045  0.00  0.00     0.000 A 
ATOM     11  C   UNL d   1      45.157 -13.074  44.466  0.00  0.00     0.001 A 
ENDROOT
BRANCH   1  12
ATOM     12  N   UNL d   1      45.776 -16.811  44.301  0.00  0.00    -0.301 N 
ATOM     13  C   UNL d   1      45.850 -17.109  43.547  0.00  0.00     0.080 A 
ATOM     14  C   UNL d   1      46.112 -17.886  43.426  0.00  0.00     0.018 A 
ATOM     15  C   UNL d   1      46.186 -18.185  42.666  0.00  0.00     0.002 A 
ATOM     16  C   UNL d   1      46.299 -18.358  44.072  0.00  0.00     0.003 A 
ATOM     17  C   UNL d   1      46.448 -18.959  42.547  0.00  0.00     0.000 A 
ATOM     18  C   UNL d   1      46.636 -19.432  43.196  0.00  0.00     0.000 A 
ATOM     19  C   UNL d   1      46.561 -19.130  43.963  0.00  0.00     0.000 A 
ATOM     20  C   UNL d   1      46.225 -18.058  44.849  0.00  0.00     0.019 A 
ATOM     21  C   UNL d   1      45.964 -17.286  44.954  0.00  0.00     0.080 A 
ENDBRANCH   1  12
TORSDOF 1
ENDMDL
