MODEL 1
REMARK VINA RESULT:      35.8      0.000      0.000
REMARK  5 active torsions:
REMARK  status: ('A' for Active; 'I' for Inactive)
REMARK    1  A    between atoms: N_2  and  C_7 
REMARK    2  A    between atoms: N_6  and  C_3 
REMARK    3  A    between atoms: N_8  and  N_6 
REMARK    4  A    between atoms: C_15  and  N_8 
REMARK    5  A    between atoms: C_16  and  C_15 
ROOT
ATOM      1  C   UNL d   1     -51.655  25.400  33.311  0.00  0.00     0.127 A 
ATOM      2  C   UNL d   1     -52.022  26.138  33.318  0.00  0.00     0.024 A 
ATOM      3  C   UNL d   1     -50.829  25.367  33.308  0.00  0.00     0.024 A 
ATOM      4  C   UNL d   1     -50.760  26.794  33.318  0.00  0.00     0.021 A 
ATOM      5  C   UNL d   1     -50.386  26.068  33.311  0.00  0.00     0.003 A 
ATOM      6  C   UNL d   1     -51.566  26.825  33.321  0.00  0.00     0.003 A 
ENDROOT
BRANCH   4   7
ATOM      7  C   UNL d   1     -50.319  27.493  33.321  0.00  0.00     0.122 C 
BRANCH   7   8
ATOM      8  N   UNL d   1     -49.718  27.592  33.868  0.00  0.00    -0.144 NA
BRANCH   8   9
ATOM      9  N   UNL d   1     -49.193  28.253  33.791  0.00  0.00    -0.121 NA
BRANCH   9  10
ATOM     10  C   UNL d   1     -48.755  28.478  34.470  0.00  0.00     0.217 A 
ATOM     11  N   UNL d   1     -48.467  29.218  34.581  0.00  0.00    -0.181 NA
ATOM     12  C   UNL d   1     -48.065  29.237  35.309  0.00  0.00     0.288 A 
ATOM     13  O   UNL d   1     -47.691  29.927  35.607  0.00  0.00    -0.265 OA
ATOM     14  C   UNL d   1     -48.106  28.504  35.645  0.00  0.00     0.101 A 
ATOM     15  S   UNL d   1     -48.539  28.029  35.117  0.00  0.00    -0.041 SA
ENDBRANCH   9  10
ENDBRANCH   8   9
ENDBRANCH   7   8
ENDBRANCH   4   7
BRANCH   1  16
ATOM     16  N   UNL d   1     -52.069  24.718  33.308  0.00  0.00    -0.114 N 
ATOM     17  O   UNL d   1     -52.898  24.678  33.306  0.00  0.00    -0.532 OA
ATOM     18  O   UNL d   1     -51.765  23.971  33.306  0.00  0.00    -0.532 OA
ENDBRANCH   1  16
TORSDOF 5
ENDMDL
