MODEL 1
REMARK VINA RESULT:      92.3      0.000      0.000
REMARK  6 active torsions:
REMARK  status: ('A' for Active; 'I' for Inactive)
REMARK    1  A    between atoms: N_2  and  S_1 
REMARK    2  A    between atoms: C_3  and  S_1 
REMARK    3  A    between atoms: C_8  and  N_2 
REMARK    4  A    between atoms: C_6  and  O_7 
REMARK    5  A    between atoms: O_7  and  C_13 
REMARK    6  A    between atoms: O_16  and  C_10 
ROOT
ATOM      1  C   UNL d   1     -55.262-101.875 -42.263  0.00  0.00     0.105 A 
ATOM      2  C   UNL d   1     -54.716-101.949 -41.659  0.00  0.00     0.015 A 
ATOM      3  C   UNL d   1     -56.040-102.136 -42.154  0.00  0.00     0.015 A 
ATOM      4  C   UNL d   1     -55.719-102.543 -40.836  0.00  0.00     0.100 A 
ATOM      5  C   UNL d   1     -56.264-102.468 -41.441  0.00  0.00     0.025 A 
ATOM      6  C   UNL d   1     -54.941-102.282 -40.946  0.00  0.00     0.025 A 
ENDROOT
BRANCH   1   7
ATOM      7  S   UNL d   1     -55.027-101.537 -42.981  0.00  0.00     0.285 S 
ATOM      8  O   UNL d   1     -55.017-100.716 -43.068  0.00  0.00    -0.198 OA
ATOM      9  O   UNL d   1     -54.803-102.023 -43.609  0.00  0.00    -0.198 OA
BRANCH   7  10
ATOM     10  N   UNL d   1     -54.768-101.400 -43.757  0.00  0.00    -0.157 NA
BRANCH  10  11
ATOM     11  C   UNL d   1     -54.905-100.658 -44.112  0.00  0.00     0.113 A 
ATOM     12  C   UNL d   1     -54.715 -99.966 -43.704  0.00  0.00     0.119 A 
ATOM     13  N   UNL d   1     -54.852 -99.224 -44.058  0.00  0.00    -0.241 NA
ATOM     14  C   UNL d   1     -55.181 -99.187 -44.822  0.00  0.00     0.099 A 
ATOM     15  C   UNL d   1     -55.371 -99.887 -45.228  0.00  0.00     0.022 A 
ATOM     16  C   UNL d   1     -55.231-100.619 -44.868  0.00  0.00     0.023 A 
ENDBRANCH  10  11
ENDBRANCH   7  10
ENDBRANCH   1   7
BRANCH   4  17
ATOM     17  O   UNL d   1     -55.945-102.880 -40.112  0.00  0.00    -0.305 OA
BRANCH  17  18
ATOM     18  C   UNL d   1     -55.711-102.533 -39.396  0.00  0.00     0.122 A 
ATOM     19  C   UNL d   1     -56.246-102.080 -38.968  0.00  0.00     0.117 A 
ATOM     20  C   UNL d   1     -56.012-101.736 -38.256  0.00  0.00     0.026 A 
ATOM     21  C   UNL d   1     -55.248-101.846 -37.978  0.00  0.00     0.002 A 
ATOM     22  C   UNL d   1     -54.711-102.301 -38.410  0.00  0.00     0.002 A 
ATOM     23  C   UNL d   1     -54.946-102.645 -39.122  0.00  0.00     0.027 A 
BRANCH  19  24
ATOM     24  O   UNL d   1     -57.007-101.976 -39.252  0.00  0.00    -0.326 OA
ATOM     25  C   UNL d   1     -57.649-102.216 -38.814  0.00  0.00     0.181 C 
ENDBRANCH  19  24
ENDBRANCH  17  18
ENDBRANCH   4  17
TORSDOF 6
ENDMDL
