MODEL 1
REMARK VINA RESULT:      -5.1      0.000      0.000
REMARK  6 active torsions:
REMARK  status: ('A' for Active; 'I' for Inactive)
REMARK    1  A    between atoms: C_7  and  C_4 
REMARK    2  A    between atoms: O_17  and  C_6 
REMARK    3  A    between atoms: C_8  and  C_7 
REMARK    4  A    between atoms: C_12  and  C_8 
REMARK    5  A    between atoms: O_21  and  C_11 
REMARK    6  A    between atoms: O_22  and  C_18 
ROOT
ATOM      1  C   UNL d   1      58.923  -0.693  29.454  0.00  0.00     0.090 A 
ATOM      2  C   UNL d   1      58.929   0.126  29.524  0.00  0.00     0.302 A 
ATOM      3  O   UNL d   1      58.364   0.279  30.057  0.00  0.00    -0.273 OA
ATOM      4  C   UNL d   1      58.026  -0.386  30.308  0.00  0.00     0.107 A 
ATOM      5  C   UNL d   1      58.368  -1.010  29.936  0.00  0.00     0.030 A 
ATOM      6  C   UNL d   1      59.400  -1.197  28.969  0.00  0.00     0.121 A 
ATOM      7  C   UNL d   1      58.252  -1.820  29.968  0.00  0.00     0.004 A 
ATOM      8  O   UNL d   1      59.433   0.680  29.110  0.00  0.00    -0.259 OA
ATOM      9  C   UNL d   1      59.275  -2.016  29.009  0.00  0.00     0.117 A 
ATOM     10  C   UNL d   1      58.717  -2.312  29.496  0.00  0.00     0.026 A 
ENDROOT
BRANCH   4  11
ATOM     11  C   UNL d   1      57.406  -0.437  30.874  0.00  0.00     0.067 C 
BRANCH  11  12
ATOM     12  C   UNL d   1      57.373  -0.015  31.587  0.00  0.00     0.198 C 
ATOM     13  O   UNL d   1      58.083   0.451  31.766  0.00  0.00    -0.286 OA
BRANCH  12  14
ATOM     14  C   UNL d   1      56.784  -0.012  32.074  0.00  0.00     0.039 A 
ATOM     15  C   UNL d   1      56.418   0.677  32.220  0.00  0.00     0.005 A 
ATOM     16  C   UNL d   1      55.773   0.682  32.753  0.00  0.00     0.024 A 
ATOM     17  C   UNL d   1      55.467   0.004  33.162  0.00  0.00     0.094 A 
ATOM     18  C   UNL d   1      55.885  -0.707  32.978  0.00  0.00     0.024 A 
ATOM     19  C   UNL d   1      56.485  -0.674  32.473  0.00  0.00     0.005 A 
BRANCH  17  20
ATOM     20  O   UNL d   1      54.836   0.030  33.678  0.00  0.00    -0.328 OA
ATOM     21  C   UNL d   1      54.828   0.548  34.492  0.00  0.00     0.181 C 
ENDBRANCH  17  20
ENDBRANCH  12  14
ENDBRANCH  11  12
ENDBRANCH   4  11
BRANCH   6  22
ATOM     22  O   UNL d   1      59.970  -0.907  28.470  0.00  0.00    -0.326 OA
ATOM     23  C   UNL d   1      60.725  -1.125  28.563  0.00  0.00     0.181 C 
ENDBRANCH   6  22
BRANCH   9  24
ATOM     24  O   UNL d   1      59.709  -2.558  28.559  0.00  0.00    -0.326 OA
ATOM     25  C   UNL d   1      59.722  -3.341  28.752  0.00  0.00     0.181 C 
ENDBRANCH   9  24
TORSDOF 6
ENDMDL
MODEL 2
REMARK VINA RESULT:      -3.3      1.157      5.307
REMARK  6 active torsions:
REMARK  status: ('A' for Active; 'I' for Inactive)
REMARK    1  A    between atoms: C_7  and  C_4 
REMARK    2  A    between atoms: O_17  and  C_6 
REMARK    3  A    between atoms: C_8  and  C_7 
REMARK    4  A    between atoms: C_12  and  C_8 
REMARK    5  A    between atoms: O_21  and  C_11 
REMARK    6  A    between atoms: O_22  and  C_18 
ROOT
ATOM      1  C   UNL d   1      56.485  -0.581  32.640  0.00  0.00     0.090 A 
ATOM      2  C   UNL d   1      56.363  -1.178  32.088  0.00  0.00     0.302 A 
ATOM      3  O   UNL d   1      56.914  -1.046  31.535  0.00  0.00    -0.273 OA
ATOM      4  C   UNL d   1      57.352  -0.419  31.719  0.00  0.00     0.107 A 
ATOM      5  C   UNL d   1      57.094  -0.112  32.415  0.00  0.00     0.030 A 
ATOM      6  C   UNL d   1      56.073  -0.421  33.362  0.00  0.00     0.121 A 
ATOM      7  C   UNL d   1      57.327   0.524  32.873  0.00  0.00     0.004 A 
ATOM      8  O   UNL d   1      55.772  -1.796  32.112  0.00  0.00    -0.259 OA
ATOM      9  C   UNL d   1      56.316   0.227  33.819  0.00  0.00     0.117 A 
ATOM     10  C   UNL d   1      56.925   0.682  33.577  0.00  0.00     0.026 A 
ENDROOT
BRANCH   4  11
ATOM     11  C   UNL d   1      57.989  -0.115  31.260  0.00  0.00     0.067 C 
BRANCH  11  12
ATOM     12  C   UNL d   1      57.984  -0.021  30.437  0.00  0.00     0.198 C 
ATOM     13  O   UNL d   1      57.213   0.189  30.100  0.00  0.00    -0.286 OA
BRANCH  12  14
ATOM     14  C   UNL d   1      58.589  -0.104  29.977  0.00  0.00     0.039 A 
ATOM     15  C   UNL d   1      58.756  -0.828  29.699  0.00  0.00     0.005 A 
ATOM     16  C   UNL d   1      59.418  -0.921  29.195  0.00  0.00     0.024 A 
ATOM     17  C   UNL d   1      59.939  -0.298  28.948  0.00  0.00     0.094 A 
ATOM     18  C   UNL d   1      59.725   0.455  29.265  0.00  0.00     0.024 A 
ATOM     19  C   UNL d   1      59.097   0.504  29.735  0.00  0.00     0.005 A 
BRANCH  17  20
ATOM     20  O   UNL d   1      60.579  -0.409  28.455  0.00  0.00    -0.328 OA
ATOM     21  C   UNL d   1      61.133  -1.200  28.462  0.00  0.00     0.181 C 
ENDBRANCH  17  20
ENDBRANCH  12  14
ENDBRANCH  11  12
ENDBRANCH   4  11
BRANCH   6  22
ATOM     22  O   UNL d   1      55.452  -0.876  33.618  0.00  0.00    -0.326 OA
ATOM     23  C   UNL d   1      54.742  -0.547  33.736  0.00  0.00     0.181 C 
ENDBRANCH   6  22
BRANCH   9  24
ATOM     24  O   UNL d   1      55.952   0.434  34.533  0.00  0.00    -0.326 OA
ATOM     25  C   UNL d   1      56.389   0.665  35.170  0.00  0.00     0.181 C 
ENDBRANCH   9  24
TORSDOF 6
ENDMDL
