MODEL 1
REMARK VINA RESULT:      38.3      0.000      0.000
REMARK  5 active torsions:
REMARK  status: ('A' for Active; 'I' for Inactive)
REMARK    1  A    between atoms: S_2  and  C_1 
REMARK    2  A    between atoms: C_7  and  S_2 
REMARK    3  A    between atoms: N_8  and  C_5 
REMARK    4  A    between atoms: C_14  and  N_8 
REMARK    5  A    between atoms: O_23  and  C_15 
ROOT
ATOM      1  C   UNL d   1      14.500  12.929  -1.821  0.00  0.00     0.187 A 
ATOM      2  N   UNL d   1      14.338  13.582  -1.356  0.00  0.00    -0.208 NA
ATOM      3  C   UNL d   1      15.095  12.492  -1.472  0.00  0.00     0.118 A 
ATOM      4  C   UNL d   1      14.838  13.558  -0.703  0.00  0.00     0.196 A 
ATOM      5  S   UNL d   1      15.309  12.889  -0.766  0.00  0.00    -0.035 SA
ATOM      6 CL   UNL d   1      15.423  11.779  -1.776  0.00  0.00    -0.073 Cl
ENDROOT
BRANCH   1   7
ATOM      7  S   UNL d   1      14.147  12.695  -2.546  0.00  0.00     0.228 S 
ATOM      8  O   UNL d   1      14.259  13.474  -2.820  0.00  0.00    -0.216 OA
ATOM      9  O   UNL d   1      14.047  11.926  -2.251  0.00  0.00    -0.216 OA
BRANCH   7  10
ATOM     10  C   UNL d   1      13.805  12.467  -3.250  0.00  0.00     0.089 A 
ATOM     11  C   UNL d   1      13.106  12.011  -3.267  0.00  0.00     0.011 A 
ATOM     12  C   UNL d   1      12.769  11.787  -3.983  0.00  0.00     0.001 A 
ATOM     13  C   UNL d   1      13.113  12.007  -4.708  0.00  0.00     0.000 A 
ATOM     14  C   UNL d   1      13.817  12.467  -4.690  0.00  0.00     0.001 A 
ATOM     15  C   UNL d   1      12.778  11.785  -5.422  0.00  0.00     0.000 C 
ATOM     16  C   UNL d   1      14.156  12.692  -3.986  0.00  0.00     0.011 A 
ENDBRANCH   7  10
ENDBRANCH   1   7
BRANCH   4  17
ATOM     17  N   UNL d   1      14.937  14.054  -0.048  0.00  0.00    -0.221 NA
BRANCH  17  18
ATOM     18  C   UNL d   1      15.100  14.854  -0.159  0.00  0.00     0.084 A 
ATOM     19  C   UNL d   1      14.477  15.388  -0.263  0.00  0.00     0.021 A 
ATOM     20  C   UNL d   1      14.625  16.182  -0.374  0.00  0.00     0.026 A 
ATOM     21  C   UNL d   1      15.401  16.451  -0.382  0.00  0.00     0.094 A 
ATOM     22  C   UNL d   1      16.035  15.912  -0.277  0.00  0.00     0.026 A 
ATOM     23  C   UNL d   1      15.879  15.124  -0.167  0.00  0.00     0.021 A 
BRANCH  21  24
ATOM     24  O   UNL d   1      15.552  17.250  -0.493  0.00  0.00    -0.328 OA
ATOM     25  C   UNL d   1      15.529  17.564  -1.264  0.00  0.00     0.181 C 
ENDBRANCH  21  24
ENDBRANCH  17  18
ENDBRANCH   4  17
TORSDOF 5
ENDMDL
