MODEL 1
REMARK VINA RESULT:      -9.0      0.000      0.000
REMARK  3 active torsions:
REMARK  status: ('A' for Active; 'I' for Inactive)
REMARK    1  A    between atoms: N_5  and  C_2 
REMARK    2  A    between atoms: C_9  and  C_3 
REMARK       I    between atoms: C_7  and  N_5 
REMARK    3  A    between atoms: C_8  and  C_7 
ROOT
ATOM      1  N   UNL d   1      52.363  33.553  53.781  0.00  0.00    -0.200 NA
ATOM      2  C   UNL d   1      51.809  33.193  53.298  0.00  0.00     0.216 A 
ATOM      3  C   UNL d   1      53.034  33.056  53.798  0.00  0.00     0.172 A 
ATOM      4  N   UNL d   1      52.877  32.402  53.324  0.00  0.00    -0.187 NA
ATOM      5  S   UNL d   1      52.121  32.487  53.016  0.00  0.00     0.054 SA
ENDROOT
BRANCH   2   6
ATOM      6  N   UNL d   1      51.063  33.496  53.127  0.00  0.00    -0.181 NA
ATOM      7  C   UNL d   1      50.983  34.094  52.561  0.00  0.00     0.281 C 
ATOM      8  O   UNL d   1      51.644  34.386  52.171  0.00  0.00    -0.265 OA
BRANCH   7   9
ATOM      9  C   UNL d   1      50.240  34.395  52.391  0.00  0.00     0.058 A 
ATOM     10  C   UNL d   1      49.828  34.819  52.961  0.00  0.00     0.005 A 
ATOM     11  C   UNL d   1      49.077  35.123  52.789  0.00  0.00     0.000 A 
ATOM     12  C   UNL d   1      48.744  35.002  52.048  0.00  0.00     0.000 A 
ATOM     13  C   UNL d   1      49.157  34.575  51.470  0.00  0.00     0.000 A 
ATOM     14  C   UNL d   1      47.998  35.304  51.877  0.00  0.00     0.000 C 
ATOM     15  C   UNL d   1      49.908  34.271  51.642  0.00  0.00     0.005 A 
ENDBRANCH   7   9
ENDBRANCH   2   6
BRANCH   3  16
ATOM     16  C   UNL d   1      53.725  33.197  54.213  0.00  0.00     0.036 A 
ATOM     17  C   UNL d   1      54.444  33.240  53.804  0.00  0.00     0.003 A 
ATOM     18  C   UNL d   1      55.136  33.382  54.232  0.00  0.00     0.000 A 
ATOM     19  C   UNL d   1      55.113  33.480  55.057  0.00  0.00     0.000 A 
ATOM     20  C   UNL d   1      54.396  33.436  55.451  0.00  0.00     0.000 A 
ATOM     21  C   UNL d   1      53.698  33.294  55.031  0.00  0.00     0.003 A 
ENDBRANCH   3  16
TORSDOF 3
ENDMDL
MODEL 2
REMARK VINA RESULT:      -8.5      1.727      4.911
REMARK  3 active torsions:
REMARK  status: ('A' for Active; 'I' for Inactive)
REMARK    1  A    between atoms: N_5  and  C_2 
REMARK    2  A    between atoms: C_9  and  C_3 
REMARK       I    between atoms: C_7  and  N_5 
REMARK    3  A    between atoms: C_8  and  C_7 
ROOT
ATOM      1  N   UNL d   1      50.817  33.390  53.052  0.00  0.00    -0.200 NA
ATOM      2  C   UNL d   1      51.602  33.300  53.260  0.00  0.00     0.216 A 
ATOM      3  C   UNL d   1      50.707  34.192  52.847  0.00  0.00     0.172 A 
ATOM      4  N   UNL d   1      51.430  34.577  52.934  0.00  0.00    -0.187 NA
ATOM      5  S   UNL d   1      51.982  34.025  53.189  0.00  0.00     0.054 SA
ENDROOT
BRANCH   2   6
ATOM      6  N   UNL d   1      51.950  32.593  53.500  0.00  0.00    -0.181 NA
ATOM      7  C   UNL d   1      52.428  32.170  52.972  0.00  0.00     0.281 C 
ATOM      8  O   UNL d   1      52.556  32.453  52.212  0.00  0.00    -0.265 OA
BRANCH   7   9
ATOM      9  C   UNL d   1      52.773  31.467  53.211  0.00  0.00     0.058 A 
ATOM     10  C   UNL d   1      53.473  31.479  53.641  0.00  0.00     0.005 A 
ATOM     11  C   UNL d   1      53.823  30.768  53.882  0.00  0.00     0.000 A 
ATOM     12  C   UNL d   1      53.470  30.051  53.693  0.00  0.00     0.000 A 
ATOM     13  C   UNL d   1      52.764  30.036  53.260  0.00  0.00     0.000 A 
ATOM     14  C   UNL d   1      53.817  29.345  53.933  0.00  0.00     0.000 C 
ATOM     15  C   UNL d   1      52.414  30.746  53.018  0.00  0.00     0.005 A 
ENDBRANCH   7   9
ENDBRANCH   2   6
BRANCH   3  16
ATOM     16  C   UNL d   1      50.005  34.534  52.603  0.00  0.00     0.036 A 
ATOM     17  C   UNL d   1      49.742  34.414  51.827  0.00  0.00     0.003 A 
ATOM     18  C   UNL d   1      49.032  34.764  51.591  0.00  0.00     0.000 A 
ATOM     19  C   UNL d   1      48.589  35.227  52.120  0.00  0.00     0.000 A 
ATOM     20  C   UNL d   1      48.859  35.339  52.886  0.00  0.00     0.000 A 
ATOM     21  C   UNL d   1      49.569  34.993  53.131  0.00  0.00     0.003 A 
ENDBRANCH   3  16
TORSDOF 3
ENDMDL
MODEL 3
REMARK VINA RESULT:      -8.3      1.014      5.053
REMARK  3 active torsions:
REMARK  status: ('A' for Active; 'I' for Inactive)
REMARK    1  A    between atoms: N_5  and  C_2 
REMARK    2  A    between atoms: C_9  and  C_3 
REMARK       I    between atoms: C_7  and  N_5 
REMARK    3  A    between atoms: C_8  and  C_7 
ROOT
ATOM      1  N   UNL d   1      50.148  34.592  53.183  0.00  0.00    -0.200 NA
ATOM      2  C   UNL d   1      50.776  34.134  52.930  0.00  0.00     0.216 A 
ATOM      3  C   UNL d   1      49.657  34.723  52.521  0.00  0.00     0.172 A 
ATOM      4  N   UNL d   1      49.995  34.342  51.875  0.00  0.00    -0.187 NA
ATOM      5  S   UNL d   1      50.686  33.978  52.128  0.00  0.00     0.054 SA
ENDROOT
BRANCH   2   6
ATOM      6  N   UNL d   1      51.395  33.874  53.406  0.00  0.00    -0.181 NA
ATOM      7  C   UNL d   1      52.146  34.213  53.325  0.00  0.00     0.281 C 
ATOM      8  O   UNL d   1      52.275  34.805  52.771  0.00  0.00    -0.265 OA
BRANCH   7   9
ATOM      9  C   UNL d   1      52.762  33.955  53.799  0.00  0.00     0.058 A 
ATOM     10  C   UNL d   1      53.068  33.200  53.700  0.00  0.00     0.005 A 
ATOM     11  C   UNL d   1      53.691  32.939  54.180  0.00  0.00     0.000 A 
ATOM     12  C   UNL d   1      54.003  33.435  54.755  0.00  0.00     0.000 A 
ATOM     13  C   UNL d   1      53.696  34.198  54.858  0.00  0.00     0.000 A 
ATOM     14  C   UNL d   1      54.621  33.176  55.231  0.00  0.00     0.000 C 
ATOM     15  C   UNL d   1      53.074  34.459  54.378  0.00  0.00     0.005 A 
ENDBRANCH   7   9
ENDBRANCH   2   6
BRANCH   3  16
ATOM     16  C   UNL d   1      48.961  35.154  52.517  0.00  0.00     0.036 A 
ATOM     17  C   UNL d   1      48.484  35.150  51.840  0.00  0.00     0.003 A 
ATOM     18  C   UNL d   1      47.784  35.589  51.846  0.00  0.00     0.000 A 
ATOM     19  C   UNL d   1      47.562  36.027  52.517  0.00  0.00     0.000 A 
ATOM     20  C   UNL d   1      48.042  36.024  53.180  0.00  0.00     0.000 A 
ATOM     21  C   UNL d   1      48.745  35.587  53.183  0.00  0.00     0.003 A 
ENDBRANCH   3  16
TORSDOF 3
ENDMDL
