MODEL 1
REMARK VINA RESULT:      80.6      0.000      0.000
REMARK  5 active torsions:
REMARK  status: ('A' for Active; 'I' for Inactive)
REMARK    1  A    between atoms: C_10  and  C_3 
REMARK    2  A    between atoms: N_9  and  C_4 
REMARK    3  A    between atoms: C_16  and  N_12 
REMARK    4  A    between atoms: O_21  and  C_15 
REMARK    5  A    between atoms: C_20  and  C_16 
ROOT
ATOM      1  N   UNL d   1      45.281 -13.480  39.629  0.00  0.00    -0.196 N 
ATOM      2  C   UNL d   1      44.996 -13.714  38.895  0.00  0.00     0.167 A 
ATOM      3  C   UNL d   1      45.289 -14.347  38.540  0.00  0.00     0.057 A 
ATOM      4  C   UNL d   1      44.959 -12.824  39.968  0.00  0.00     0.152 A 
ATOM      5  N   UNL d   1      46.152 -14.543  39.616  0.00  0.00    -0.163 NA
ATOM      6  C   UNL d   1      45.875 -14.770  38.903  0.00  0.00     0.104 A 
ATOM      7  N   UNL d   1      44.406 -13.278  38.543  0.00  0.00    -0.227 NA
ATOM      8  C   UNL d   1      44.386 -12.405  39.621  0.00  0.00     0.057 A 
ATOM      9  C   UNL d   1      44.105 -12.636  38.897  0.00  0.00     0.086 A 
ATOM     10  C   UNL d   1      46.192 -15.443  38.534  0.00  0.00     0.023 C 
ATOM     11  C   UNL d   1      43.501 -12.194  38.530  0.00  0.00     0.021 C 
ENDROOT
BRANCH   4  12
ATOM     12  N   UNL d   1      45.250 -12.585  40.718  0.00  0.00    -0.286 N 
ATOM     13  C   UNL d   1      44.619 -12.739  41.226  0.00  0.00     0.101 A 
ATOM     14  C   UNL d   1      44.687 -12.574  42.040  0.00  0.00     0.100 A 
ATOM     15  N   UNL d   1      45.387 -12.254  42.354  0.00  0.00    -0.300 N 
ATOM     16  C   UNL d   1      46.029 -12.097  41.842  0.00  0.00     0.100 A 
ATOM     17  C   UNL d   1      45.968 -12.260  41.020  0.00  0.00     0.101 A 
BRANCH  15  18
ATOM     18  C   UNL d   1      45.443 -12.092  43.177  0.00  0.00     0.080 C 
BRANCH  18  19
ATOM     19  C   UNL d   1      45.646 -12.712  43.703  0.00  0.00     0.018 A 
ATOM     20  C   UNL d   1      45.089 -13.305  43.879  0.00  0.00     0.002 A 
ATOM     21  C   UNL d   1      45.292 -13.924  44.404  0.00  0.00     0.000 A 
ATOM     22  C   UNL d   1      46.047 -13.937  44.741  0.00  0.00     0.000 A 
ATOM     23  C   UNL d   1      46.606 -13.342  44.563  0.00  0.00     0.000 A 
ATOM     24  C   UNL d   1      46.397 -12.732  44.042  0.00  0.00     0.002 A 
ENDBRANCH  18  19
ENDBRANCH  15  18
ENDBRANCH   4  12
BRANCH   3  25
ATOM     25  C   UNL d   1      45.010 -14.576  37.821  0.00  0.00     0.027 A 
ATOM     26  C   UNL d   1      45.412 -14.381  37.146  0.00  0.00     0.094 A 
ATOM     27  C   UNL d   1      45.134 -14.609  36.431  0.00  0.00     0.024 A 
ATOM     28  C   UNL d   1      44.453 -15.033  36.388  0.00  0.00     0.002 A 
ATOM     29  C   UNL d   1      44.060 -15.222  37.057  0.00  0.00     0.000 A 
ATOM     30  C   UNL d   1      44.334 -14.998  37.761  0.00  0.00     0.002 A 
BRANCH  26  31
ATOM     31  O   UNL d   1      46.118 -13.941  37.202  0.00  0.00    -0.328 OA
ATOM     32  C   UNL d   1      46.464 -13.621  36.508  0.00  0.00     0.181 C 
ENDBRANCH  26  31
ENDBRANCH   3  25
TORSDOF 5
ENDMDL
MODEL 2
REMARK VINA RESULT:      81.7      1.505      5.485
REMARK  5 active torsions:
REMARK  status: ('A' for Active; 'I' for Inactive)
REMARK    1  A    between atoms: C_10  and  C_3 
REMARK    2  A    between atoms: N_9  and  C_4 
REMARK    3  A    between atoms: C_16  and  N_12 
REMARK    4  A    between atoms: O_21  and  C_15 
REMARK    5  A    between atoms: C_20  and  C_16 
ROOT
ATOM      1  N   UNL d   1      45.024 -12.721  41.276  0.00  0.00    -0.196 N 
ATOM      2  C   UNL d   1      44.806 -12.672  42.068  0.00  0.00     0.167 A 
ATOM      3  C   UNL d   1      45.329 -12.818  42.631  0.00  0.00     0.057 A 
ATOM      4  C   UNL d   1      44.463 -12.564  40.719  0.00  0.00     0.152 A 
ATOM      5  N   UNL d   1      46.297 -13.067  41.661  0.00  0.00    -0.163 NA
ATOM      6  C   UNL d   1      46.086 -13.019  42.429  0.00  0.00     0.104 A 
ATOM      7  N   UNL d   1      44.040 -12.468  42.254  0.00  0.00    -0.227 NA
ATOM      8  C   UNL d   1      43.722 -12.367  40.908  0.00  0.00     0.057 A 
ATOM      9  C   UNL d   1      43.507 -12.318  41.688  0.00  0.00     0.086 A 
ATOM     10  C   UNL d   1      46.646 -13.177  43.020  0.00  0.00     0.023 C 
ATOM     11  C   UNL d   1      42.725 -12.110  41.888  0.00  0.00     0.021 C 
ENDROOT
BRANCH   4  12
ATOM     12  N   UNL d   1      44.685 -12.614  39.912  0.00  0.00    -0.286 N 
ATOM     13  C   UNL d   1      45.145 -13.298  39.883  0.00  0.00     0.101 A 
ATOM     14  C   UNL d   1      45.479 -13.548  39.161  0.00  0.00     0.100 A 
ATOM     15  N   UNL d   1      45.356 -13.116  38.461  0.00  0.00    -0.300 N 
ATOM     16  C   UNL d   1      44.891 -12.422  38.488  0.00  0.00     0.100 A 
ATOM     17  C   UNL d   1      44.551 -12.164  39.212  0.00  0.00     0.101 A 
BRANCH  15  18
ATOM     18  C   UNL d   1      45.698 -13.378  37.740  0.00  0.00     0.080 C 
BRANCH  18  19
ATOM     19  C   UNL d   1      45.428 -14.092  37.395  0.00  0.00     0.018 A 
ATOM     20  C   UNL d   1      45.947 -14.555  36.938  0.00  0.00     0.002 A 
ATOM     21  C   UNL d   1      45.676 -15.268  36.594  0.00  0.00     0.000 A 
ATOM     22  C   UNL d   1      44.893 -15.503  36.714  0.00  0.00     0.000 A 
ATOM     23  C   UNL d   1      44.372 -15.037  37.172  0.00  0.00     0.000 A 
ATOM     24  C   UNL d   1      44.648 -14.332  37.510  0.00  0.00     0.002 A 
ENDBRANCH  18  19
ENDBRANCH  15  18
ENDBRANCH   4  12
BRANCH   3  25
ATOM     25  C   UNL d   1      45.115 -12.770  43.406  0.00  0.00     0.027 A 
ATOM     26  C   UNL d   1      45.303 -13.367  43.918  0.00  0.00     0.094 A 
ATOM     27  C   UNL d   1      45.090 -13.319  44.689  0.00  0.00     0.024 A 
ATOM     28  C   UNL d   1      44.690 -12.673  44.949  0.00  0.00     0.002 A 
ATOM     29  C   UNL d   1      44.508 -12.087  44.439  0.00  0.00     0.000 A 
ATOM     30  C   UNL d   1      44.717 -12.134  43.680  0.00  0.00     0.002 A 
BRANCH  26  31
ATOM     31  O   UNL d   1      45.718 -14.034  43.638  0.00  0.00    -0.328 OA
ATOM     32  C   UNL d   1      45.314 -14.762  43.531  0.00  0.00     0.181 C 
ENDBRANCH  26  31
ENDBRANCH   3  25
TORSDOF 5
ENDMDL
MODEL 3
REMARK VINA RESULT:      83.1      3.979      6.703
REMARK  5 active torsions:
REMARK  status: ('A' for Active; 'I' for Inactive)
REMARK    1  A    between atoms: C_10  and  C_3 
REMARK    2  A    between atoms: N_9  and  C_4 
REMARK    3  A    between atoms: C_16  and  N_12 
REMARK    4  A    between atoms: O_21  and  C_15 
REMARK    5  A    between atoms: C_20  and  C_16 
ROOT
ATOM      1  N   UNL d   1      42.742 -16.037  36.826  0.00  0.00    -0.196 N 
ATOM      2  C   UNL d   1      43.432 -15.626  37.001  0.00  0.00     0.167 A 
ATOM      3  C   UNL d   1      44.130 -15.939  36.842  0.00  0.00     0.057 A 
ATOM      4  C   UNL d   1      42.038 -15.687  37.003  0.00  0.00     0.152 A 
ATOM      5  N   UNL d   1      43.499 -17.072  36.333  0.00  0.00    -0.163 NA
ATOM      6  C   UNL d   1      44.169 -16.673  36.503  0.00  0.00     0.104 A 
ATOM      7  N   UNL d   1      43.376 -14.888  37.342  0.00  0.00    -0.227 NA
ATOM      8  C   UNL d   1      41.991 -14.971  37.334  0.00  0.00     0.057 A 
ATOM      9  C   UNL d   1      42.671 -14.566  37.506  0.00  0.00     0.086 A 
ATOM     10  C   UNL d   1      44.906 -17.013  36.330  0.00  0.00     0.023 C 
ATOM     11  C   UNL d   1      42.622 -13.810  37.856  0.00  0.00     0.021 C 
ENDROOT
BRANCH   4  12
ATOM     12  N   UNL d   1      41.334 -16.107  36.824  0.00  0.00    -0.286 N 
ATOM     13  C   UNL d   1      41.416 -16.808  37.251  0.00  0.00     0.101 A 
ATOM     14  C   UNL d   1      40.819 -17.389  37.222  0.00  0.00     0.100 A 
ATOM     15  N   UNL d   1      40.134 -17.274  36.764  0.00  0.00    -0.300 N 
ATOM     16  C   UNL d   1      40.048 -16.565  36.331  0.00  0.00     0.100 A 
ATOM     17  C   UNL d   1      40.646 -15.975  36.356  0.00  0.00     0.101 A 
BRANCH  15  18
ATOM     18  C   UNL d   1      39.539 -17.868  36.743  0.00  0.00     0.080 C 
BRANCH  18  19
ATOM     19  C   UNL d   1      38.779 -17.696  37.051  0.00  0.00     0.018 A 
ATOM     20  C   UNL d   1      38.624 -17.815  37.860  0.00  0.00     0.002 A 
ATOM     21  C   UNL d   1      37.864 -17.643  38.168  0.00  0.00     0.000 A 
ATOM     22  C   UNL d   1      37.278 -17.356  37.660  0.00  0.00     0.000 A 
ATOM     23  C   UNL d   1      37.435 -17.238  36.848  0.00  0.00     0.000 A 
ATOM     24  C   UNL d   1      38.190 -17.410  36.551  0.00  0.00     0.002 A 
ENDBRANCH  18  19
ENDBRANCH  15  18
ENDBRANCH   4  12
BRANCH   3  25
ATOM     25  C   UNL d   1      44.806 -15.536  37.013  0.00  0.00     0.027 A 
ATOM     26  C   UNL d   1      45.246 -15.735  37.662  0.00  0.00     0.094 A 
ATOM     27  C   UNL d   1      45.918 -15.334  37.833  0.00  0.00     0.024 A 
ATOM     28  C   UNL d   1      46.151 -14.733  37.355  0.00  0.00     0.002 A 
ATOM     29  C   UNL d   1      45.712 -14.541  36.715  0.00  0.00     0.000 A 
ATOM     30  C   UNL d   1      45.051 -14.935  36.547  0.00  0.00     0.002 A 
BRANCH  26  31
ATOM     31  O   UNL d   1      44.995 -16.362  38.153  0.00  0.00    -0.328 OA
ATOM     32  C   UNL d   1      45.480 -16.612  38.790  0.00  0.00     0.181 C 
ENDBRANCH  26  31
ENDBRANCH   3  25
TORSDOF 5
ENDMDL
