MODEL 1
REMARK VINA RESULT:       3.3      0.000      0.000
REMARK  5 active torsions:
REMARK  status: ('A' for Active; 'I' for Inactive)
REMARK    1  A    between atoms: C_12  and  C_4 
REMARK    2  A    between atoms: N_10  and  C_5 
REMARK    3  A    between atoms: C_11  and  C_8 
REMARK    4  A    between atoms: C_14  and  N_10 
REMARK    5  A    between atoms: C_15  and  C_14 
ROOT
ATOM      1  C   UNL d   1      58.660  -0.976  30.222  0.00  0.00     0.167 A 
ATOM      2  N   UNL d   1      57.899  -0.943  30.571  0.00  0.00    -0.195 N 
ATOM      3  N   UNL d   1      59.285  -0.581  30.570  0.00  0.00    -0.231 NA
ATOM      4  C   UNL d   1      58.777  -1.398  29.542  0.00  0.00     0.057 A 
ATOM      5  C   UNL d   1      57.806  -0.517  31.249  0.00  0.00     0.167 A 
ATOM      6  N   UNL d   1      57.407  -1.755  29.544  0.00  0.00    -0.161 NA
ATOM      7  C   UNL d   1      58.425  -0.117  31.607  0.00  0.00     0.054 A 
ATOM      8  C   UNL d   1      59.175  -0.149  31.263  0.00  0.00     0.063 A 
ATOM      9  C   UNL d   1      58.156  -1.788  29.200  0.00  0.00     0.124 A 
ENDROOT
BRANCH   5  10
ATOM     10  N   UNL d   1      57.033  -0.483  31.605  0.00  0.00    -0.224 NA
BRANCH  10  11
ATOM     11  C   UNL d   1      56.414   0.058  31.801  0.00  0.00     0.120 C 
BRANCH  11  12
ATOM     12  C   UNL d   1      56.046   0.040  32.562  0.00  0.00     0.101 A 
ATOM     13  N   UNL d   1      56.277  -0.546  33.134  0.00  0.00    -0.242 NA
ATOM     14  C   UNL d   1      55.902  -0.559  33.896  0.00  0.00     0.099 A 
ATOM     15  C   UNL d   1      55.299   0.013  34.086  0.00  0.00     0.021 A 
ATOM     16  C   UNL d   1      55.073   0.600  33.502  0.00  0.00     0.003 A 
ATOM     17  C   UNL d   1      55.446   0.609  32.748  0.00  0.00     0.021 A 
ENDBRANCH  11  12
ENDBRANCH  10  11
ENDBRANCH   5  10
BRANCH   8  18
ATOM     18  C   UNL d   1      59.829   0.262  31.624  0.00  0.00     0.036 C 
ATOM     19  C   UNL d   1      60.474   0.668  31.984  0.00  0.00     0.006 C 
ATOM     20  C   UNL d   1      60.476   0.530  31.140  0.00  0.00     0.006 C 
ATOM     21  C   UNL d   1      59.831   0.402  32.467  0.00  0.00     0.006 C 
ENDBRANCH   8  18
BRANCH   4  22
ATOM     22  C   UNL d   1      59.526  -1.430  29.198  0.00  0.00     0.004 A 
ATOM     23  C   UNL d   1      59.955  -2.106  29.253  0.00  0.00     0.000 A 
ATOM     24  C   UNL d   1      60.704  -2.139  28.909  0.00  0.00     0.000 A 
ATOM     25  C   UNL d   1      61.000  -1.494  28.520  0.00  0.00     0.000 A 
ATOM     26  C   UNL d   1      60.559  -0.810  28.467  0.00  0.00     0.000 A 
ATOM     27  C   UNL d   1      59.810  -0.777  28.812  0.00  0.00     0.000 A 
ENDBRANCH   4  22
TORSDOF 5
ENDMDL
MODEL 2
REMARK VINA RESULT:       4.5      1.203      4.783
REMARK  5 active torsions:
REMARK  status: ('A' for Active; 'I' for Inactive)
REMARK    1  A    between atoms: C_12  and  C_4 
REMARK    2  A    between atoms: N_10  and  C_5 
REMARK    3  A    between atoms: C_11  and  C_8 
REMARK    4  A    between atoms: C_14  and  N_10 
REMARK    5  A    between atoms: C_15  and  C_14 
ROOT
ATOM      1  C   UNL d   1      57.052   0.271  32.126  0.00  0.00     0.167 A 
ATOM      2  N   UNL d   1      57.334   0.360  31.342  0.00  0.00    -0.195 N 
ATOM      3  N   UNL d   1      57.568   0.351  32.755  0.00  0.00    -0.231 NA
ATOM      4  C   UNL d   1      56.272   0.107  32.261  0.00  0.00     0.057 A 
ATOM      5  C   UNL d   1      58.116   0.523  31.231  0.00  0.00     0.167 A 
ATOM      6  N   UNL d   1      56.042   0.117  30.864  0.00  0.00    -0.161 NA
ATOM      7  C   UNL d   1      58.642   0.605  31.854  0.00  0.00     0.054 A 
ATOM      8  C   UNL d   1      58.365   0.518  32.626  0.00  0.00     0.063 A 
ATOM      9  C   UNL d   1      55.765   0.029  31.636  0.00  0.00     0.124 A 
ENDROOT
BRANCH   5  10
ATOM     10  N   UNL d   1      58.403   0.614  30.434  0.00  0.00    -0.224 NA
BRANCH  10  11
ATOM     11  C   UNL d   1      58.478   0.196  29.703  0.00  0.00     0.120 C 
BRANCH  11  12
ATOM     12  C   UNL d   1      59.238   0.038  29.369  0.00  0.00     0.101 A 
ATOM     13  N   UNL d   1      59.743   0.681  29.134  0.00  0.00    -0.242 NA
ATOM     14  C   UNL d   1      60.506   0.514  28.799  0.00  0.00     0.099 A 
ATOM     15  C   UNL d   1      60.763  -0.293  28.699  0.00  0.00     0.021 A 
ATOM     16  C   UNL d   1      60.245  -0.934  28.939  0.00  0.00     0.003 A 
ATOM     17  C   UNL d   1      59.490  -0.765  29.271  0.00  0.00     0.021 A 
ENDBRANCH  11  12
ENDBRANCH  10  11
ENDBRANCH   5  10
BRANCH   8  18
ATOM     18  C   UNL d   1      58.900   0.600  33.285  0.00  0.00     0.036 C 
ATOM     19  C   UNL d   1      59.424   0.681  33.939  0.00  0.00     0.006 C 
ATOM     20  C   UNL d   1      59.734   0.681  33.143  0.00  0.00     0.006 C 
ATOM     21  C   UNL d   1      58.595   0.600  34.084  0.00  0.00     0.006 C 
ENDBRANCH   8  18
BRANCH   4  22
ATOM     22  C   UNL d   1      55.995   0.019  33.033  0.00  0.00     0.004 A 
ATOM     23  C   UNL d   1      55.924  -0.717  33.344  0.00  0.00     0.000 A 
ATOM     24  C   UNL d   1      55.646  -0.805  34.116  0.00  0.00     0.000 A 
ATOM     25  C   UNL d   1      55.448  -0.153  34.552  0.00  0.00     0.000 A 
ATOM     26  C   UNL d   1      55.523   0.593  34.230  0.00  0.00     0.000 A 
ATOM     27  C   UNL d   1      55.801   0.681  33.458  0.00  0.00     0.000 A 
ENDBRANCH   4  22
TORSDOF 5
ENDMDL
