MODEL 1
REMARK VINA RESULT:      -7.6      0.000      0.000
REMARK  6 active torsions:
REMARK  status: ('A' for Active; 'I' for Inactive)
REMARK    1  A    between atoms: C_7  and  N_1 
REMARK    2  A    between atoms: S_10  and  C_2 
REMARK    3  A    between atoms: C_22  and  S_10 
REMARK    4  A    between atoms: C_13  and  C_22 
REMARK       I    between atoms: N_17  and  C_13 
REMARK    5  A    between atoms: C_14  and  C_23 
REMARK    6  A    between atoms: C_23  and  N_17 
ROOT
ATOM      1  N   UNL d   1     -49.224  13.401  23.003  0.00  0.00    -0.254 N 
ATOM      2  C   UNL d   1     -48.501  13.025  23.143  0.00  0.00     0.183 A 
ATOM      3  N   UNL d   1     -48.480  12.237  23.377  0.00  0.00    -0.201 NA
ATOM      4  C   UNL d   1     -49.925  12.970  23.103  0.00  0.00     0.271 A 
ATOM      5  C   UNL d   1     -49.897  12.188  23.336  0.00  0.00     0.115 A 
ATOM      6  C   UNL d   1     -49.177  11.820  23.473  0.00  0.00     0.192 A 
ATOM      7  N   UNL d   1     -50.141  10.934  23.698  0.00  0.00    -0.145 NA
ATOM      8  N   UNL d   1     -49.329  11.043  23.698  0.00  0.00    -0.128 NA
ATOM      9  C   UNL d   1     -50.501  11.643  23.474  0.00  0.00     0.130 A 
ATOM     10  O   UNL d   1     -50.651  13.344  22.964  0.00  0.00    -0.266 OA
ENDROOT
BRANCH   2  11
ATOM     11  S   UNL d   1     -47.792  13.446  23.046  0.00  0.00    -0.044 SA
BRANCH  11  12
ATOM     12  C   UNL d   1     -47.073  13.079  23.211  0.00  0.00     0.101 C 
BRANCH  12  13
ATOM     13  C   UNL d   1     -46.363  13.452  23.017  0.00  0.00     0.286 C 
ATOM     14  N   UNL d   1     -45.817  13.064  22.529  0.00  0.00    -0.204 NA
ATOM     15  O   UNL d   1     -46.192  14.207  23.306  0.00  0.00    -0.265 OA
BRANCH  14  16
ATOM     16  C   UNL d   1     -45.106  13.434  22.334  0.00  0.00     0.127 C 
BRANCH  16  17
ATOM     17  C   UNL d   1     -44.467  12.981  22.064  0.00  0.00     0.119 A 
ATOM     18  O   UNL d   1     -44.204  12.274  22.381  0.00  0.00    -0.304 OA
ATOM     19  C   UNL d   1     -43.555  12.013  21.943  0.00  0.00     0.123 A 
ATOM     20  C   UNL d   1     -43.416  12.562  21.352  0.00  0.00     0.029 A 
ATOM     21  C   UNL d   1     -43.972  13.160  21.420  0.00  0.00     0.028 A 
ENDBRANCH  16  17
ENDBRANCH  14  16
ENDBRANCH  12  13
ENDBRANCH  11  12
ENDBRANCH   2  11
BRANCH   1  22
ATOM     22  C   UNL d   1     -49.246  14.184  22.771  0.00  0.00     0.075 A 
ATOM     23  C   UNL d   1     -49.298  14.374  21.966  0.00  0.00     0.051 A 
ATOM     24 BR   UNL d   1     -49.329  13.775  21.405  0.00  0.00    -0.048 Br
ATOM     25  C   UNL d   1     -49.320  15.163  21.731  0.00  0.00     0.008 A 
ATOM     26  C   UNL d   1     -49.289  15.764  22.298  0.00  0.00     0.001 A 
ATOM     27  C   UNL d   1     -49.237  15.570  23.100  0.00  0.00     0.002 A 
ATOM     28  C   UNL d   1     -49.215  14.781  23.335  0.00  0.00     0.018 A 
ENDBRANCH   1  22
TORSDOF 6
ENDMDL
MODEL 2
REMARK VINA RESULT:      -7.5      1.063      2.404
REMARK  6 active torsions:
REMARK  status: ('A' for Active; 'I' for Inactive)
REMARK    1  A    between atoms: C_7  and  N_1 
REMARK    2  A    between atoms: S_10  and  C_2 
REMARK    3  A    between atoms: C_22  and  S_10 
REMARK    4  A    between atoms: C_13  and  C_22 
REMARK       I    between atoms: N_17  and  C_13 
REMARK    5  A    between atoms: C_14  and  C_23 
REMARK    6  A    between atoms: C_23  and  N_17 
ROOT
ATOM      1  N   UNL d   1     -49.111  13.502  22.852  0.00  0.00    -0.254 N 
ATOM      2  C   UNL d   1     -48.452  13.994  22.765  0.00  0.00     0.183 A 
ATOM      3  N   UNL d   1     -48.545  14.810  22.722  0.00  0.00    -0.201 NA
ATOM      4  C   UNL d   1     -49.864  13.845  22.896  0.00  0.00     0.271 A 
ATOM      5  C   UNL d   1     -49.949  14.656  22.852  0.00  0.00     0.115 A 
ATOM      6  C   UNL d   1     -49.292  15.139  22.765  0.00  0.00     0.192 A 
ATOM      7  N   UNL d   1     -50.370  15.915  22.810  0.00  0.00    -0.145 NA
ATOM      8  N   UNL d   1     -49.554  15.920  22.739  0.00  0.00    -0.128 NA
ATOM      9  C   UNL d   1     -50.623  15.131  22.881  0.00  0.00     0.130 A 
ATOM     10  O   UNL d   1     -50.526  13.355  22.983  0.00  0.00    -0.266 OA
ENDROOT
BRANCH   2  11
ATOM     11  S   UNL d   1     -47.692  13.661  22.720  0.00  0.00    -0.044 SA
BRANCH  11  12
ATOM     12  C   UNL d   1     -47.037  14.151  22.624  0.00  0.00     0.101 C 
BRANCH  12  13
ATOM     13  C   UNL d   1     -46.298  13.916  22.903  0.00  0.00     0.286 C 
ATOM     14  N   UNL d   1     -45.753  13.573  22.382  0.00  0.00    -0.204 NA
ATOM     15  O   UNL d   1     -46.097  14.020  23.698  0.00  0.00    -0.265 OA
BRANCH  14  16
ATOM     16  C   UNL d   1     -45.012  13.337  22.659  0.00  0.00     0.127 C 
BRANCH  16  17
ATOM     17  C   UNL d   1     -44.454  13.031  22.129  0.00  0.00     0.119 A 
ATOM     18  O   UNL d   1     -44.115  12.287  22.154  0.00  0.00    -0.304 OA
ATOM     19  C   UNL d   1     -43.589  12.215  21.522  0.00  0.00     0.123 A 
ATOM     20  C   UNL d   1     -43.603  12.918  21.104  0.00  0.00     0.029 A 
ATOM     21  C   UNL d   1     -44.132  13.425  21.471  0.00  0.00     0.028 A 
ENDBRANCH  16  17
ENDBRANCH  14  16
ENDBRANCH  12  13
ENDBRANCH  11  12
ENDBRANCH   2  11
BRANCH   1  22
ATOM     22  C   UNL d   1     -49.019  12.691  22.895  0.00  0.00     0.075 A 
ATOM     23  C   UNL d   1     -49.054  12.234  22.205  0.00  0.00     0.051 A 
ATOM     24 BR   UNL d   1     -49.181  12.598  21.479  0.00  0.00    -0.048 Br
ATOM     25  C   UNL d   1     -48.962  11.417  22.248  0.00  0.00     0.008 A 
ATOM     26  C   UNL d   1     -48.835  11.054  22.979  0.00  0.00     0.001 A 
ATOM     27  C   UNL d   1     -48.801  11.513  23.666  0.00  0.00     0.002 A 
ATOM     28  C   UNL d   1     -48.893  12.330  23.623  0.00  0.00     0.018 A 
ENDBRANCH   1  22
TORSDOF 6
ENDMDL
MODEL 3
REMARK VINA RESULT:      -7.2      1.738      2.913
REMARK  6 active torsions:
REMARK  status: ('A' for Active; 'I' for Inactive)
REMARK    1  A    between atoms: C_7  and  N_1 
REMARK    2  A    between atoms: S_10  and  C_2 
REMARK    3  A    between atoms: C_22  and  S_10 
REMARK    4  A    between atoms: C_13  and  C_22 
REMARK       I    between atoms: N_17  and  C_13 
REMARK    5  A    between atoms: C_14  and  C_23 
REMARK    6  A    between atoms: C_23  and  N_17 
ROOT
ATOM      1  N   UNL d   1     -48.462  13.409  22.789  0.00  0.00    -0.254 N 
ATOM      2  C   UNL d   1     -47.701  13.204  23.039  0.00  0.00     0.183 A 
ATOM      3  N   UNL d   1     -47.088  13.751  23.001  0.00  0.00    -0.201 NA
ATOM      4  C   UNL d   1     -48.595  14.175  22.500  0.00  0.00     0.271 A 
ATOM      5  C   UNL d   1     -47.982  14.713  22.465  0.00  0.00     0.115 A 
ATOM      6  C   UNL d   1     -47.229  14.504  22.714  0.00  0.00     0.192 A 
ATOM      7  N   UNL d   1     -47.189  15.766  22.299  0.00  0.00    -0.145 NA
ATOM      8  N   UNL d   1     -46.738  15.157  22.611  0.00  0.00    -0.128 NA
ATOM      9  C   UNL d   1     -47.965  15.496  22.206  0.00  0.00     0.130 A 
ATOM     10  O   UNL d   1     -49.356  14.384  22.249  0.00  0.00    -0.266 OA
ENDROOT
BRANCH   2  11
ATOM     11  S   UNL d   1     -47.555  12.440  23.330  0.00  0.00    -0.044 SA
BRANCH  11  12
ATOM     12  C   UNL d   1     -46.837  12.273  23.698  0.00  0.00     0.101 C 
BRANCH  12  13
ATOM     13  C   UNL d   1     -46.504  11.521  23.637  0.00  0.00     0.286 C 
ATOM     14  N   UNL d   1     -45.682  11.442  23.566  0.00  0.00    -0.204 NA
ATOM     15  O   UNL d   1     -46.983  10.848  23.645  0.00  0.00    -0.265 OA
BRANCH  14  16
ATOM     16  C   UNL d   1     -45.346  10.690  23.504  0.00  0.00     0.127 C 
BRANCH  16  17
ATOM     17  C   UNL d   1     -44.526  10.612  23.425  0.00  0.00     0.119 A 
ATOM     18  O   UNL d   1     -44.018  11.144  23.066  0.00  0.00    -0.304 OA
ATOM     19  C   UNL d   1     -43.249  10.848  23.112  0.00  0.00     0.123 A 
ATOM     20  C   UNL d   1     -43.281  10.129  23.501  0.00  0.00     0.029 A 
ATOM     21  C   UNL d   1     -44.062   9.977  23.698  0.00  0.00     0.028 A 
ENDBRANCH  16  17
ENDBRANCH  14  16
ENDBRANCH  12  13
ENDBRANCH  11  12
ENDBRANCH   2  11
BRANCH   1  22
ATOM     22  C   UNL d   1     -49.071  12.866  22.827  0.00  0.00     0.075 A 
ATOM     23  C   UNL d   1     -49.328  12.486  22.137  0.00  0.00     0.051 A 
ATOM     24 BR   UNL d   1     -48.970  12.655  21.418  0.00  0.00    -0.048 Br
ATOM     25  C   UNL d   1     -49.942  11.938  22.175  0.00  0.00     0.008 A 
ATOM     26  C   UNL d   1     -50.301  11.769  22.900  0.00  0.00     0.001 A 
ATOM     27  C   UNL d   1     -50.041  12.151  23.586  0.00  0.00     0.002 A 
ATOM     28  C   UNL d   1     -49.427  12.699  23.548  0.00  0.00     0.018 A 
ENDBRANCH   1  22
TORSDOF 6
ENDMDL
MODEL 4
REMARK VINA RESULT:      -5.1      1.718      2.325
REMARK  6 active torsions:
REMARK  status: ('A' for Active; 'I' for Inactive)
REMARK    1  A    between atoms: C_7  and  N_1 
REMARK    2  A    between atoms: S_10  and  C_2 
REMARK    3  A    between atoms: C_22  and  S_10 
REMARK    4  A    between atoms: C_13  and  C_22 
REMARK       I    between atoms: N_17  and  C_13 
REMARK    5  A    between atoms: C_14  and  C_23 
REMARK    6  A    between atoms: C_23  and  N_17 
ROOT
ATOM      1  N   UNL d   1     -48.172  12.879  22.786  0.00  0.00    -0.254 N 
ATOM      2  C   UNL d   1     -48.106  12.083  23.002  0.00  0.00     0.183 A 
ATOM      3  N   UNL d   1     -48.779  11.616  23.081  0.00  0.00    -0.201 NA
ATOM      4  C   UNL d   1     -48.925  13.196  22.650  0.00  0.00     0.271 A 
ATOM      5  C   UNL d   1     -49.589  12.727  22.730  0.00  0.00     0.115 A 
ATOM      6  C   UNL d   1     -49.518  11.938  22.944  0.00  0.00     0.192 A 
ATOM      7  N   UNL d   1     -50.810  12.206  22.784  0.00  0.00    -0.145 NA
ATOM      8  N   UNL d   1     -50.275  11.616  22.978  0.00  0.00    -0.128 NA
ATOM      9  C   UNL d   1     -50.389  12.901  22.629  0.00  0.00     0.130 A 
ATOM     10  O   UNL d   1     -48.994  13.992  22.434  0.00  0.00    -0.266 OA
ENDROOT
BRANCH   2  11
ATOM     11  S   UNL d   1     -47.357  11.754  23.141  0.00  0.00    -0.044 SA
BRANCH  11  12
ATOM     12  C   UNL d   1     -47.271  11.153  23.698  0.00  0.00     0.101 C 
BRANCH  12  13
ATOM     13  C   UNL d   1     -46.663  10.600  23.622  0.00  0.00     0.286 C 
ATOM     14  N   UNL d   1     -45.875  10.846  23.689  0.00  0.00    -0.204 NA
ATOM     15  O   UNL d   1     -46.835   9.804  23.481  0.00  0.00    -0.265 OA
BRANCH  14  16
ATOM     16  C   UNL d   1     -45.265  10.295  23.614  0.00  0.00     0.127 C 
BRANCH  16  17
ATOM     17  C   UNL d   1     -44.500  10.552  23.430  0.00  0.00     0.119 A 
ATOM     18  O   UNL d   1     -44.299  11.232  23.021  0.00  0.00    -0.304 OA
ATOM     19  C   UNL d   1     -43.477  11.272  22.962  0.00  0.00     0.123 A 
ATOM     20  C   UNL d   1     -43.168  10.614  23.337  0.00  0.00     0.029 A 
ATOM     21  C   UNL d   1     -43.789  10.166  23.628  0.00  0.00     0.028 A 
ENDBRANCH  16  17
ENDBRANCH  14  16
ENDBRANCH  12  13
ENDBRANCH  11  12
ENDBRANCH   2  11
BRANCH   1  22
ATOM     22  C   UNL d   1     -47.504  13.343  22.708  0.00  0.00     0.075 A 
ATOM     23  C   UNL d   1     -47.139  13.421  21.968  0.00  0.00     0.051 A 
ATOM     24 BR   UNL d   1     -47.450  13.031  21.316  0.00  0.00    -0.048 Br
ATOM     25  C   UNL d   1     -46.466  13.889  21.890  0.00  0.00     0.008 A 
ATOM     26  C   UNL d   1     -46.156  14.280  22.549  0.00  0.00     0.001 A 
ATOM     27  C   UNL d   1     -46.523  14.199  23.285  0.00  0.00     0.002 A 
ATOM     28  C   UNL d   1     -47.196  13.731  23.364  0.00  0.00     0.018 A 
ENDBRANCH   1  22
TORSDOF 6
ENDMDL
MODEL 5
REMARK VINA RESULT:      -4.9      4.590      8.293
REMARK  6 active torsions:
REMARK  status: ('A' for Active; 'I' for Inactive)
REMARK    1  A    between atoms: C_7  and  N_1 
REMARK    2  A    between atoms: S_10  and  C_2 
REMARK    3  A    between atoms: C_22  and  S_10 
REMARK    4  A    between atoms: C_13  and  C_22 
REMARK       I    between atoms: N_17  and  C_13 
REMARK    5  A    between atoms: C_14  and  C_23 
REMARK    6  A    between atoms: C_23  and  N_17 
ROOT
ATOM      1  N   UNL d   1     -40.022  14.388  20.465  0.00  0.00    -0.254 N 
ATOM      2  C   UNL d   1     -40.520  13.985  20.987  0.00  0.00     0.183 A 
ATOM      3  N   UNL d   1     -40.237  13.718  21.712  0.00  0.00    -0.201 NA
ATOM      4  C   UNL d   1     -39.233  14.517  20.684  0.00  0.00     0.271 A 
ATOM      5  C   UNL d   1     -38.958  14.250  21.405  0.00  0.00     0.115 A 
ATOM      6  C   UNL d   1     -39.457  13.851  21.919  0.00  0.00     0.192 A 
ATOM      7  N   UNL d   1     -38.259  13.932  22.489  0.00  0.00    -0.145 NA
ATOM      8  N   UNL d   1     -39.023  13.654  22.591  0.00  0.00    -0.128 NA
ATOM      9  C   UNL d   1     -38.211  14.304  21.752  0.00  0.00     0.130 A 
ATOM     10  O   UNL d   1     -38.731  14.920  20.163  0.00  0.00    -0.266 OA
ENDROOT
BRANCH   2  11
ATOM     11  S   UNL d   1     -41.313  13.849  20.779  0.00  0.00    -0.044 SA
BRANCH  11  12
ATOM     12  C   UNL d   1     -41.835  13.541  21.336  0.00  0.00     0.101 C 
BRANCH  12  13
ATOM     13  C   UNL d   1     -42.551  13.209  21.096  0.00  0.00     0.286 C 
ATOM     14  N   UNL d   1     -43.206  13.240  21.602  0.00  0.00    -0.204 NA
ATOM     15  O   UNL d   1     -42.619  12.847  20.357  0.00  0.00    -0.265 OA
BRANCH  14  16
ATOM     16  C   UNL d   1     -43.924  12.908  21.364  0.00  0.00     0.127 C 
BRANCH  16  17
ATOM     17  C   UNL d   1     -44.571  12.915  21.881  0.00  0.00     0.119 A 
ATOM     18  O   UNL d   1     -44.733  12.367  22.466  0.00  0.00    -0.304 OA
ATOM     19  C   UNL d   1     -45.430  12.586  22.848  0.00  0.00     0.123 A 
ATOM     20  C   UNL d   1     -45.702  13.274  22.497  0.00  0.00     0.029 A 
ATOM     21  C   UNL d   1     -45.180  13.483  21.901  0.00  0.00     0.028 A 
ENDBRANCH  16  17
ENDBRANCH  14  16
ENDBRANCH  12  13
ENDBRANCH  11  12
ENDBRANCH   2  11
BRANCH   1  22
ATOM     22  C   UNL d   1     -40.304  14.653  19.745  0.00  0.00     0.075 A 
ATOM     23  C   UNL d   1     -40.595  15.425  19.675  0.00  0.00     0.051 A 
ATOM     24 BR   UNL d   1     -40.601  15.922  20.329  0.00  0.00    -0.048 Br
ATOM     25  C   UNL d   1     -40.879  15.693  18.950  0.00  0.00     0.008 A 
ATOM     26  C   UNL d   1     -40.872  15.191  18.293  0.00  0.00     0.001 A 
ATOM     27  C   UNL d   1     -40.580  14.421  18.367  0.00  0.00     0.002 A 
ATOM     28  C   UNL d   1     -40.297  14.153  19.092  0.00  0.00     0.018 A 
ENDBRANCH   1  22
TORSDOF 6
ENDMDL
MODEL 6
REMARK VINA RESULT:      -4.8      4.559      8.292
REMARK  6 active torsions:
REMARK  status: ('A' for Active; 'I' for Inactive)
REMARK    1  A    between atoms: C_7  and  N_1 
REMARK    2  A    between atoms: S_10  and  C_2 
REMARK    3  A    between atoms: C_22  and  S_10 
REMARK    4  A    between atoms: C_13  and  C_22 
REMARK       I    between atoms: N_17  and  C_13 
REMARK    5  A    between atoms: C_14  and  C_23 
REMARK    6  A    between atoms: C_23  and  N_17 
ROOT
ATOM      1  N   UNL d   1     -40.260  14.480  20.173  0.00  0.00    -0.254 N 
ATOM      2  C   UNL d   1     -40.988  14.108  20.049  0.00  0.00     0.183 A 
ATOM      3  N   UNL d   1     -41.267  13.983  19.285  0.00  0.00    -0.201 NA
ATOM      4  C   UNL d   1     -39.818  14.724  19.515  0.00  0.00     0.271 A 
ATOM      5  C   UNL d   1     -40.100  14.596  18.760  0.00  0.00     0.115 A 
ATOM      6  C   UNL d   1     -40.823  14.227  18.643  0.00  0.00     0.192 A 
ATOM      7  N   UNL d   1     -40.313  14.518  17.451  0.00  0.00    -0.145 NA
ATOM      8  N   UNL d   1     -40.954  14.179  17.831  0.00  0.00    -0.128 NA
ATOM      9  C   UNL d   1     -39.777  14.781  18.024  0.00  0.00     0.130 A 
ATOM     10  O   UNL d   1     -39.089  15.097  19.636  0.00  0.00    -0.266 OA
ENDROOT
BRANCH   2  11
ATOM     11  S   UNL d   1     -41.440  13.859  20.700  0.00  0.00    -0.044 SA
BRANCH  11  12
ATOM     12  C   UNL d   1     -42.202  13.572  20.581  0.00  0.00     0.101 C 
BRANCH  12  13
ATOM     13  C   UNL d   1     -42.573  13.124  21.167  0.00  0.00     0.286 C 
ATOM     14  N   UNL d   1     -43.376  13.248  21.330  0.00  0.00    -0.204 NA
ATOM     15  O   UNL d   1     -42.150  12.555  21.591  0.00  0.00    -0.265 OA
BRANCH  14  16
ATOM     16  C   UNL d   1     -43.749  12.801  21.915  0.00  0.00     0.127 C 
BRANCH  16  17
ATOM     17  C   UNL d   1     -44.539  12.958  22.111  0.00  0.00     0.119 A 
ATOM     18  O   UNL d   1     -44.959  13.637  21.932  0.00  0.00    -0.304 OA
ATOM     19  C   UNL d   1     -45.724  13.560  22.230  0.00  0.00     0.123 A 
ATOM     20  C   UNL d   1     -45.778  12.829  22.595  0.00  0.00     0.029 A 
ATOM     21  C   UNL d   1     -45.053  12.453  22.526  0.00  0.00     0.028 A 
ENDBRANCH  16  17
ENDBRANCH  14  16
ENDBRANCH  12  13
ENDBRANCH  11  12
ENDBRANCH   2  11
BRANCH   1  22
ATOM     22  C   UNL d   1     -39.983  14.605  20.931  0.00  0.00     0.075 A 
ATOM     23  C   UNL d   1     -40.121  15.331  21.307  0.00  0.00     0.051 A 
ATOM     24 BR   UNL d   1     -40.536  15.922  20.916  0.00  0.00    -0.048 Br
ATOM     25  C   UNL d   1     -39.841  15.457  22.071  0.00  0.00     0.008 A 
ATOM     26  C   UNL d   1     -39.423  14.860  22.462  0.00  0.00     0.001 A 
ATOM     27  C   UNL d   1     -39.288  14.138  22.083  0.00  0.00     0.002 A 
ATOM     28  C   UNL d   1     -39.567  14.011  21.319  0.00  0.00     0.018 A 
ENDBRANCH   1  22
TORSDOF 6
ENDMDL
