MODEL 1
REMARK VINA RESULT:      -6.7      0.000      0.000
REMARK  5 active torsions:
REMARK  status: ('A' for Active; 'I' for Inactive)
REMARK    1  A    between atoms: C_6  and  N_1 
REMARK    2  A    between atoms: C_7  and  C_3 
REMARK    3  A    between atoms: C_10  and  C_7 
REMARK    4  A    between atoms: C_16  and  C_8 
REMARK    5  A    between atoms: C_14  and  C_18 
ROOT
ATOM      1  N   UNL d   1     -39.239  14.831  17.815  0.00  0.00    -0.252 N 
ATOM      2  C   UNL d   1     -38.947  15.534  18.120  0.00  0.00     0.203 A 
ATOM      3  C   UNL d   1     -40.066  15.239  18.772  0.00  0.00     0.091 A 
ATOM      4  C   UNL d   1     -39.933  14.644  18.216  0.00  0.00     0.272 A 
ATOM      5  S   UNL d   1     -39.454  15.788  18.710  0.00  0.00    -0.043 SA
ATOM      6  N   UNL d   1     -38.256  15.921  17.873  0.00  0.00    -0.121 N 
ATOM      7  O   UNL d   1     -40.409  13.987  18.090  0.00  0.00    -0.266 OA
ENDROOT
BRANCH   3   8
ATOM      8  C   UNL d   1     -40.699  15.281  19.299  0.00  0.00     0.036 C 
BRANCH   8   9
ATOM      9  C   UNL d   1     -40.568  15.330  20.118  0.00  0.00     0.101 A 
ATOM     10  O   UNL d   1     -39.894  15.056  20.509  0.00  0.00    -0.307 OA
ATOM     11  C   UNL d   1     -39.984  15.211  21.318  0.00  0.00     0.100 A 
ATOM     12  C   UNL d   1     -40.720  15.584  21.420  0.00  0.00     0.027 A 
ATOM     13  C   UNL d   1     -41.073  15.653  20.675  0.00  0.00     0.027 A 
BRANCH  11  14
ATOM     14  C   UNL d   1     -39.447  15.031  21.908  0.00  0.00     0.023 A 
ATOM     15  C   UNL d   1     -39.313  14.252  22.126  0.00  0.00     0.008 A 
ATOM     16  C   UNL d   1     -38.766  14.078  22.726  0.00  0.00     0.065 A 
ATOM     17  C   UNL d   1     -38.363  14.673  23.097  0.00  0.00     0.006 A 
ATOM     18  C   UNL d   1     -38.485  15.459  22.890  0.00  0.00     0.000 A 
ATOM     19  C   UNL d   1     -39.034  15.630  22.290  0.00  0.00     0.002 A 
BRANCH  16  20
ATOM     20  C   UNL d   1     -38.635  13.274  22.944  0.00  0.00     0.211 C 
ATOM     21  O   UNL d   1     -38.327  12.745  22.397  0.00  0.00    -0.644 OA
ATOM     22  O   UNL d   1     -38.814  13.019  23.698  0.00  0.00    -0.644 OA
ENDBRANCH  16  20
ENDBRANCH  11  14
ENDBRANCH   8   9
ENDBRANCH   3   8
BRANCH   1  23
ATOM     23  C   UNL d   1     -38.893  14.387  17.207  0.00  0.00     0.071 A 
ATOM     24  C   UNL d   1     -39.012  14.608  16.416  0.00  0.00     0.044 A 
ATOM     25  C   UNL d   1     -38.667  14.166  15.797  0.00  0.00     0.121 A 
ATOM     26  O   UNL d   1     -38.694  14.260  14.975  0.00  0.00    -0.299 OA
ATOM     27  C   UNL d   1     -38.208  13.511  15.978  0.00  0.00     0.119 A 
ATOM     28  C   UNL d   1     -38.244  13.652  14.646  0.00  0.00     0.304 A 
ATOM     29  O   UNL d   1     -37.940  13.183  15.264  0.00  0.00    -0.300 OA
ATOM     30  C   UNL d   1     -38.085  13.285  16.757  0.00  0.00     0.028 A 
ATOM     31  C   UNL d   1     -38.429  13.725  17.376  0.00  0.00     0.020 A 
ENDBRANCH   1  23
TORSDOF 5
ENDMDL
MODEL 2
REMARK VINA RESULT:      -5.6      8.096      9.842
REMARK  5 active torsions:
REMARK  status: ('A' for Active; 'I' for Inactive)
REMARK    1  A    between atoms: C_6  and  N_1 
REMARK    2  A    between atoms: C_7  and  C_3 
REMARK    3  A    between atoms: C_10  and  C_7 
REMARK    4  A    between atoms: C_16  and  C_8 
REMARK    5  A    between atoms: C_14  and  C_18 
ROOT
ATOM      1  N   UNL d   1     -45.914  12.702  22.885  0.00  0.00    -0.252 N 
ATOM      2  C   UNL d   1     -46.272  13.391  23.148  0.00  0.00     0.203 A 
ATOM      3  C   UNL d   1     -47.084  12.378  23.427  0.00  0.00     0.091 A 
ATOM      4  C   UNL d   1     -46.414  12.071  23.056  0.00  0.00     0.272 A 
ATOM      5  S   UNL d   1     -46.993  13.195  23.483  0.00  0.00    -0.043 SA
ATOM      6  N   UNL d   1     -45.956  14.156  23.085  0.00  0.00    -0.121 N 
ATOM      7  O   UNL d   1     -46.276  11.279  22.890  0.00  0.00    -0.266 OA
ENDROOT
BRANCH   3   8
ATOM      8  C   UNL d   1     -47.733  11.946  23.697  0.00  0.00     0.036 C 
BRANCH   8   9
ATOM      9  C   UNL d   1     -48.493  12.087  23.393  0.00  0.00     0.101 A 
ATOM     10  O   UNL d   1     -48.765  12.815  23.114  0.00  0.00    -0.307 OA
ATOM     11  C   UNL d   1     -49.550  12.717  22.862  0.00  0.00     0.100 A 
ATOM     12  C   UNL d   1     -49.754  11.922  22.990  0.00  0.00     0.027 A 
ATOM     13  C   UNL d   1     -49.098  11.542  23.318  0.00  0.00     0.027 A 
BRANCH  11  14
ATOM     14  C   UNL d   1     -50.031  13.296  22.545  0.00  0.00     0.023 A 
ATOM     15  C   UNL d   1     -49.986  14.069  22.815  0.00  0.00     0.008 A 
ATOM     16  C   UNL d   1     -50.479  14.652  22.488  0.00  0.00     0.065 A 
ATOM     17  C   UNL d   1     -51.006  14.462  21.904  0.00  0.00     0.006 A 
ATOM     18  C   UNL d   1     -51.064  13.692  21.623  0.00  0.00     0.000 A 
ATOM     19  C   UNL d   1     -50.569  13.111  21.952  0.00  0.00     0.002 A 
BRANCH  16  20
ATOM     20  C   UNL d   1     -50.425  15.444  22.772  0.00  0.00     0.211 C 
ATOM     21  O   UNL d   1     -49.732  15.871  22.669  0.00  0.00    -0.644 OA
ATOM     22  O   UNL d   1     -51.062  15.789  23.148  0.00  0.00    -0.644 OA
ENDBRANCH  16  20
ENDBRANCH  11  14
ENDBRANCH   8   9
ENDBRANCH   3   8
BRANCH   1  23
ATOM     23  C   UNL d   1     -45.176  12.652  22.512  0.00  0.00     0.071 A 
ATOM     24  C   UNL d   1     -44.626  12.083  22.762  0.00  0.00     0.044 A 
ATOM     25  C   UNL d   1     -43.879  12.027  22.391  0.00  0.00     0.121 A 
ATOM     26  O   UNL d   1     -43.236  11.521  22.525  0.00  0.00    -0.299 OA
ATOM     27  C   UNL d   1     -43.695  12.537  21.777  0.00  0.00     0.119 A 
ATOM     28  C   UNL d   1     -42.649  11.727  21.985  0.00  0.00     0.304 A 
ATOM     29  O   UNL d   1     -42.927  12.357  21.517  0.00  0.00    -0.300 OA
ATOM     30  C   UNL d   1     -44.233  13.102  21.523  0.00  0.00     0.028 A 
ATOM     31  C   UNL d   1     -44.978  13.160  21.892  0.00  0.00     0.020 A 
ENDBRANCH   1  23
TORSDOF 5
ENDMDL
MODEL 3
REMARK VINA RESULT:      -4.4      5.835      7.759
REMARK  5 active torsions:
REMARK  status: ('A' for Active; 'I' for Inactive)
REMARK    1  A    between atoms: C_6  and  N_1 
REMARK    2  A    between atoms: C_7  and  C_3 
REMARK    3  A    between atoms: C_10  and  C_7 
REMARK    4  A    between atoms: C_16  and  C_8 
REMARK    5  A    between atoms: C_14  and  C_18 
ROOT
ATOM      1  N   UNL d   1     -46.074  12.843  22.562  0.00  0.00    -0.252 N 
ATOM      2  C   UNL d   1     -45.797  13.591  22.369  0.00  0.00     0.203 A 
ATOM      3  C   UNL d   1     -44.767  12.753  22.338  0.00  0.00     0.091 A 
ATOM      4  C   UNL d   1     -45.439  12.321  22.543  0.00  0.00     0.272 A 
ATOM      5  S   UNL d   1     -44.992  13.538  22.230  0.00  0.00    -0.043 SA
ATOM      6  N   UNL d   1     -46.255  14.281  22.323  0.00  0.00    -0.121 N 
ATOM      7  O   UNL d   1     -45.464  11.516  22.700  0.00  0.00    -0.266 OA
ENDROOT
BRANCH   3   8
ATOM      8  C   UNL d   1     -44.003  12.455  22.253  0.00  0.00     0.036 C 
BRANCH   8   9
ATOM      9  C   UNL d   1     -43.470  12.796  21.714  0.00  0.00     0.101 A 
ATOM     10  O   UNL d   1     -42.844  13.294  21.916  0.00  0.00    -0.307 OA
ATOM     11  C   UNL d   1     -42.451  13.511  21.219  0.00  0.00     0.100 A 
ATOM     12  C   UNL d   1     -42.843  13.140  20.587  0.00  0.00     0.027 A 
ATOM     13  C   UNL d   1     -43.470  12.701  20.901  0.00  0.00     0.027 A 
BRANCH  11  14
ATOM     14  C   UNL d   1     -41.798  14.000  21.163  0.00  0.00     0.023 A 
ATOM     15  C   UNL d   1     -41.046  13.710  21.314  0.00  0.00     0.008 A 
ATOM     16  C   UNL d   1     -40.389  14.213  21.256  0.00  0.00     0.065 A 
ATOM     17  C   UNL d   1     -40.485  14.990  21.050  0.00  0.00     0.006 A 
ATOM     18  C   UNL d   1     -41.231  15.296  20.896  0.00  0.00     0.000 A 
ATOM     19  C   UNL d   1     -41.887  14.790  20.955  0.00  0.00     0.002 A 
BRANCH  16  20
ATOM     20  C   UNL d   1     -39.619  13.906  21.413  0.00  0.00     0.211 C 
ATOM     21  O   UNL d   1     -39.060  13.871  20.813  0.00  0.00    -0.644 OA
ATOM     22  O   UNL d   1     -39.428  13.643  22.161  0.00  0.00    -0.644 OA
ENDBRANCH  16  20
ENDBRANCH  11  14
ENDBRANCH   8   9
ENDBRANCH   3   8
BRANCH   1  23
ATOM     23  C   UNL d   1     -46.859  12.651  22.743  0.00  0.00     0.071 A 
ATOM     24  C   UNL d   1     -47.411  12.553  22.131  0.00  0.00     0.044 A 
ATOM     25  C   UNL d   1     -48.205  12.358  22.306  0.00  0.00     0.121 A 
ATOM     26  O   UNL d   1     -48.859  12.230  21.814  0.00  0.00    -0.299 OA
ATOM     27  C   UNL d   1     -48.434  12.265  23.087  0.00  0.00     0.119 A 
ATOM     28  C   UNL d   1     -49.499  12.056  22.302  0.00  0.00     0.304 A 
ATOM     29  O   UNL d   1     -49.242  12.076  23.094  0.00  0.00    -0.300 OA
ATOM     30  C   UNL d   1     -47.895  12.361  23.698  0.00  0.00     0.028 A 
ATOM     31  C   UNL d   1     -47.103  12.554  23.526  0.00  0.00     0.020 A 
ENDBRANCH   1  23
TORSDOF 5
ENDMDL
MODEL 4
REMARK VINA RESULT:      -4.3      1.488      5.725
REMARK  5 active torsions:
REMARK  status: ('A' for Active; 'I' for Inactive)
REMARK    1  A    between atoms: C_6  and  N_1 
REMARK    2  A    between atoms: C_7  and  C_3 
REMARK    3  A    between atoms: C_10  and  C_7 
REMARK    4  A    between atoms: C_16  and  C_8 
REMARK    5  A    between atoms: C_14  and  C_18 
ROOT
ATOM      1  N   UNL d   1     -40.568  14.517  20.691  0.00  0.00    -0.252 N 
ATOM      2  C   UNL d   1     -41.266  14.915  20.527  0.00  0.00     0.203 A 
ATOM      3  C   UNL d   1     -40.889  14.279  19.424  0.00  0.00     0.091 A 
ATOM      4  C   UNL d   1     -40.331  14.121  20.011  0.00  0.00     0.272 A 
ATOM      5  S   UNL d   1     -41.466  14.771  19.746  0.00  0.00    -0.043 SA
ATOM      6  N   UNL d   1     -41.695  15.385  21.060  0.00  0.00    -0.121 N 
ATOM      7  O   UNL d   1     -39.662  13.653  19.925  0.00  0.00    -0.266 OA
ENDROOT
BRANCH   3   8
ATOM      8  C   UNL d   1     -40.875  13.996  18.649  0.00  0.00     0.036 C 
BRANCH   8   9
ATOM      9  C   UNL d   1     -40.609  14.476  18.025  0.00  0.00     0.101 A 
ATOM     10  O   UNL d   1     -39.881  14.398  17.644  0.00  0.00    -0.307 OA
ATOM     11  C   UNL d   1     -39.833  14.983  17.057  0.00  0.00     0.100 A 
ATOM     12  C   UNL d   1     -40.540  15.420  17.084  0.00  0.00     0.027 A 
ATOM     13  C   UNL d   1     -41.012  15.100  17.683  0.00  0.00     0.027 A 
BRANCH  11  14
ATOM     14  C   UNL d   1     -39.206  15.107  16.547  0.00  0.00     0.023 A 
ATOM     15  C   UNL d   1     -39.041  14.567  15.952  0.00  0.00     0.008 A 
ATOM     16  C   UNL d   1     -38.402  14.701  15.439  0.00  0.00     0.065 A 
ATOM     17  C   UNL d   1     -37.941  15.361  15.521  0.00  0.00     0.006 A 
ATOM     18  C   UNL d   1     -38.094  15.911  16.112  0.00  0.00     0.000 A 
ATOM     19  C   UNL d   1     -38.734  15.774  16.625  0.00  0.00     0.002 A 
BRANCH  16  20
ATOM     20  C   UNL d   1     -38.239  14.141  14.830  0.00  0.00     0.211 C 
ATOM     21  O   UNL d   1     -37.940  14.393  14.109  0.00  0.00    -0.644 OA
ATOM     22  O   UNL d   1     -38.378  13.346  14.955  0.00  0.00    -0.644 OA
ENDBRANCH  16  20
ENDBRANCH  11  14
ENDBRANCH   8   9
ENDBRANCH   3   8
BRANCH   1  23
ATOM     23  C   UNL d   1     -40.173  14.515  21.419  0.00  0.00     0.071 A 
ATOM     24  C   UNL d   1     -39.772  15.197  21.672  0.00  0.00     0.044 A 
ATOM     25  C   UNL d   1     -39.371  15.204  22.405  0.00  0.00     0.121 A 
ATOM     26  O   UNL d   1     -38.935  15.796  22.786  0.00  0.00    -0.299 OA
ATOM     27  C   UNL d   1     -39.376  14.531  22.873  0.00  0.00     0.119 A 
ATOM     28  C   UNL d   1     -38.669  15.480  23.499  0.00  0.00     0.304 A 
ATOM     29  O   UNL d   1     -38.939  14.695  23.559  0.00  0.00    -0.300 OA
ATOM     30  C   UNL d   1     -39.770  13.853  22.631  0.00  0.00     0.028 A 
ATOM     31  C   UNL d   1     -40.170  13.844  21.900  0.00  0.00     0.020 A 
ENDBRANCH   1  23
TORSDOF 5
ENDMDL
MODEL 5
REMARK VINA RESULT:      -4.1      2.697      3.301
REMARK  5 active torsions:
REMARK  status: ('A' for Active; 'I' for Inactive)
REMARK    1  A    between atoms: C_6  and  N_1 
REMARK    2  A    between atoms: C_7  and  C_3 
REMARK    3  A    between atoms: C_10  and  C_7 
REMARK    4  A    between atoms: C_16  and  C_8 
REMARK    5  A    between atoms: C_14  and  C_18 
ROOT
ATOM      1  N   UNL d   1     -39.550  14.332  18.445  0.00  0.00    -0.252 N 
ATOM      2  C   UNL d   1     -39.209  14.670  19.110  0.00  0.00     0.203 A 
ATOM      3  C   UNL d   1     -40.523  14.620  19.303  0.00  0.00     0.091 A 
ATOM      4  C   UNL d   1     -40.363  14.299  18.560  0.00  0.00     0.272 A 
ATOM      5  S   UNL d   1     -39.806  14.848  19.641  0.00  0.00    -0.043 SA
ATOM      6  N   UNL d   1     -38.399  14.806  19.225  0.00  0.00    -0.121 N 
ATOM      7  O   UNL d   1     -40.920  14.003  18.035  0.00  0.00    -0.266 OA
ENDROOT
BRANCH   3   8
ATOM      8  C   UNL d   1     -41.266  14.700  19.651  0.00  0.00     0.036 C 
BRANCH   8   9
ATOM      9  C   UNL d   1     -41.473  14.255  20.321  0.00  0.00     0.101 A 
ATOM     10  O   UNL d   1     -42.192  13.865  20.429  0.00  0.00    -0.307 OA
ATOM     11  C   UNL d   1     -42.174  13.489  21.168  0.00  0.00     0.100 A 
ATOM     12  C   UNL d   1     -41.436  13.653  21.512  0.00  0.00     0.027 A 
ATOM     13  C   UNL d   1     -41.010  14.126  20.983  0.00  0.00     0.027 A 
BRANCH  11  14
ATOM     14  C   UNL d   1     -42.772  13.040  21.497  0.00  0.00     0.023 A 
ATOM     15  C   UNL d   1     -43.545  13.314  21.501  0.00  0.00     0.008 A 
ATOM     16  C   UNL d   1     -44.147  12.851  21.837  0.00  0.00     0.065 A 
ATOM     17  C   UNL d   1     -43.976  12.129  22.162  0.00  0.00     0.006 A 
ATOM     18  C   UNL d   1     -43.207  11.840  22.166  0.00  0.00     0.000 A 
ATOM     19  C   UNL d   1     -42.607  12.306  21.828  0.00  0.00     0.002 A 
BRANCH  16  20
ATOM     20  C   UNL d   1     -44.939  13.141  21.837  0.00  0.00     0.211 C 
ATOM     21  O   UNL d   1     -45.482  12.851  21.295  0.00  0.00    -0.644 OA
ATOM     22  O   UNL d   1     -45.167  13.710  22.376  0.00  0.00    -0.644 OA
ENDBRANCH  16  20
ENDBRANCH  11  14
ENDBRANCH   8   9
ENDBRANCH   3   8
BRANCH   1  23
ATOM     23  C   UNL d   1     -39.141  14.070  17.773  0.00  0.00     0.071 A 
ATOM     24  C   UNL d   1     -39.008  14.593  17.142  0.00  0.00     0.044 A 
ATOM     25  C   UNL d   1     -38.597  14.336  16.462  0.00  0.00     0.121 A 
ATOM     26  O   UNL d   1     -38.390  14.732  15.764  0.00  0.00    -0.299 OA
ATOM     27  C   UNL d   1     -38.326  13.564  16.422  0.00  0.00     0.119 A 
ATOM     28  C   UNL d   1     -37.986  14.193  15.289  0.00  0.00     0.304 A 
ATOM     29  O   UNL d   1     -37.943  13.465  15.692  0.00  0.00    -0.300 OA
ATOM     30  C   UNL d   1     -38.454  13.041  17.041  0.00  0.00     0.028 A 
ATOM     31  C   UNL d   1     -38.863  13.294  17.721  0.00  0.00     0.020 A 
ENDBRANCH   1  23
TORSDOF 5
ENDMDL
