MODEL 1
REMARK VINA RESULT:       3.5      0.000      0.000
REMARK  4 active torsions:
REMARK  status: ('A' for Active; 'I' for Inactive)
REMARK    1  A    between atoms: N_10  and  C_3 
REMARK    2  A    between atoms: C_15  and  C_5 
REMARK    3  A    between atoms: C_14  and  C_9 
REMARK       I    between atoms: C_11  and  N_12 
REMARK    4  A    between atoms: C_13  and  C_11 
ROOT
ATOM      1  N   UNL d   1      32.688  20.027 -22.199  0.00  0.00    -0.196 N 
ATOM      2  C   UNL d   1      32.687  19.613 -22.925  0.00  0.00     0.167 A 
ATOM      3  C   UNL d   1      32.816  20.839 -22.200  0.00  0.00     0.152 A 
ATOM      4  N   UNL d   1      32.435  18.806 -21.518  0.00  0.00    -0.163 NA
ATOM      5  C   UNL d   1      32.561  18.808 -22.943  0.00  0.00     0.055 A 
ATOM      6  N   UNL d   1      32.813  20.022 -23.635  0.00  0.00    -0.231 NA
ATOM      7  C   UNL d   1      32.944  21.252 -22.912  0.00  0.00     0.052 A 
ATOM      8  C   UNL d   1      32.434  18.399 -22.233  0.00  0.00     0.104 A 
ATOM      9  C   UNL d   1      32.943  20.845 -23.627  0.00  0.00     0.063 A 
ATOM     10  C   UNL d   1      32.306  17.587 -22.236  0.00  0.00     0.023 C 
ENDROOT
BRANCH   3  11
ATOM     11  N   UNL d   1      32.818  21.266 -21.451  0.00  0.00    -0.286 N 
ATOM     12  C   UNL d   1      33.011  21.056 -20.685  0.00  0.00     0.101 A 
ATOM     13  C   UNL d   1      32.949  21.610 -20.088  0.00  0.00     0.102 A 
ATOM     14  N   UNL d   1      32.696  22.367 -20.259  0.00  0.00    -0.267 N 
ATOM     15  C   UNL d   1      32.636  22.909 -19.665  0.00  0.00     0.288 C 
ATOM     16  C   UNL d   1      32.509  22.562 -21.015  0.00  0.00     0.102 A 
ATOM     17  O   UNL d   1      32.385  23.664 -19.829  0.00  0.00    -0.264 OA
ATOM     18  C   UNL d   1      32.569  22.010 -21.619  0.00  0.00     0.101 A 
BRANCH  15  19
ATOM     19  C   UNL d   1      32.825  22.710 -18.906  0.00  0.00     0.156 A 
ATOM     20  O   UNL d   1      32.961  23.291 -18.357  0.00  0.00    -0.300 OA
ATOM     21  C   UNL d   1      33.151  23.099 -17.593  0.00  0.00     0.123 A 
ATOM     22  C   UNL d   1      33.205  22.324 -17.375  0.00  0.00     0.029 A 
ATOM     23  C   UNL d   1      32.880  21.937 -18.685  0.00  0.00     0.032 A 
ENDBRANCH  15  19
ENDBRANCH   3  11
BRANCH   9  24
ATOM     24  C   UNL d   1      33.074  21.268 -24.366  0.00  0.00     0.036 C 
ATOM     25  C   UNL d   1      33.205  21.680 -25.097  0.00  0.00     0.006 C 
ATOM     26  C   UNL d   1      33.037  22.128 -24.378  0.00  0.00     0.006 C 
ATOM     27  C   UNL d   1      33.241  20.823 -25.079  0.00  0.00     0.006 C 
ENDBRANCH   9  24
BRANCH   5  28
ATOM     28  C   UNL d   1      32.559  18.398 -23.662  0.00  0.00     0.004 A 
ATOM     29  C   UNL d   1      33.232  17.979 -23.891  0.00  0.00     0.000 A 
ATOM     30  C   UNL d   1      33.230  17.566 -24.617  0.00  0.00     0.000 A 
ATOM     31  C   UNL d   1      32.556  17.583 -25.092  0.00  0.00     0.000 A 
ATOM     32  C   UNL d   1      31.887  18.007 -24.851  0.00  0.00     0.000 A 
ATOM     33  C   UNL d   1      31.889  18.415 -24.136  0.00  0.00     0.000 A 
ENDBRANCH   5  28
TORSDOF 4
ENDMDL
