MODEL 1
REMARK VINA RESULT:      85.2      0.000      0.000
REMARK  5 active torsions:
REMARK  status: ('A' for Active; 'I' for Inactive)
REMARK    1  A    between atoms: S_3  and  C_17 
REMARK    2  A    between atoms: N_11  and  S_3 
REMARK    3  A    between atoms: C_13  and  C_10 
REMARK    4  A    between atoms: C_12  and  N_11 
REMARK       I    between atoms: N_19  and  C_13 
REMARK    5  A    between atoms: C_31  and  N_19 
ROOT
ATOM      1  C   UNL d   1      13.687  13.521  -3.747  0.00  0.00     0.105 A 
ATOM      2  C   UNL d   1      13.373  14.159  -3.410  0.00  0.00     0.015 A 
ATOM      3  C   UNL d   1      14.087  13.586  -4.447  0.00  0.00     0.015 A 
ATOM      4  C   UNL d   1      13.836  14.926  -4.433  0.00  0.00     0.085 A 
ATOM      5  C   UNL d   1      14.150  14.292  -4.771  0.00  0.00     0.020 A 
ATOM      6  C   UNL d   1      13.447  14.887  -3.761  0.00  0.00     0.020 A 
ENDROOT
BRANCH   4   7
ATOM      7  N   UNL d   1      13.894  15.626  -4.748  0.00  0.00    -0.208 NA
ATOM      8  C   UNL d   1      14.254  16.243  -4.324  0.00  0.00     0.285 C 
ATOM      9  O   UNL d   1      14.554  16.104  -3.555  0.00  0.00    -0.265 OA
BRANCH   8  10
ATOM     10  C   UNL d   1      14.322  17.007  -4.659  0.00  0.00     0.089 A 
ATOM     11  C   UNL d   1      15.019  17.437  -4.759  0.00  0.00     0.018 A 
ATOM     12  C   UNL d   1      14.821  18.170  -5.116  0.00  0.00     0.081 A 
ATOM     13  C   UNL d   1      13.993  18.182  -5.233  0.00  0.00     0.117 A 
ATOM     14  C   UNL d   1      15.286  18.818  -5.345  0.00  0.00     0.268 A 
ATOM     15  N   UNL d   1      13.641  18.846  -5.579  0.00  0.00    -0.221 NA
ATOM     16  S   UNL d   1      13.685  17.464  -4.951  0.00  0.00    -0.063 SA
ATOM     17  C   UNL d   1      14.102  19.501  -5.812  0.00  0.00     0.151 A 
ATOM     18  N   UNL d   1      14.922  19.482  -5.693  0.00  0.00    -0.258 N 
ATOM     19  C   UNL d   1      13.746  20.160  -6.157  0.00  0.00     0.038 A 
ATOM     20  C   UNL d   1      15.395  20.137  -5.924  0.00  0.00     0.084 A 
ATOM     21  C   UNL d   1      15.023  20.796  -6.272  0.00  0.00     0.019 A 
ATOM     22  C   UNL d   1      14.202  20.808  -6.388  0.00  0.00     0.005 A 
ATOM     23  O   UNL d   1      16.115  18.806  -5.228  0.00  0.00    -0.267 OA
ENDBRANCH   8  10
ENDBRANCH   4   7
BRANCH   1  24
ATOM     24  S   UNL d   1      13.610  12.850  -3.409  0.00  0.00     0.287 S 
ATOM     25  O   UNL d   1      13.679  11.779  -3.457  0.00  0.00    -0.198 OA
ATOM     26  O   UNL d   1      13.933  12.384  -4.328  0.00  0.00    -0.198 OA
BRANCH  24  27
ATOM     27  N   UNL d   1      13.302  12.779  -2.457  0.00  0.00    -0.139 NA
BRANCH  27  28
ATOM     28  C   UNL d   1      13.826  12.679  -1.895  0.00  0.00     0.178 A 
ATOM     29  N   UNL d   1      13.579  12.264  -1.230  0.00  0.00    -0.207 NA
ATOM     30  C   UNL d   1      14.140  12.166  -0.646  0.00  0.00     0.164 A 
ATOM     31  C   UNL d   1      13.923  11.784  -0.028  0.00  0.00     0.042 C 
ATOM     32  N   UNL d   1      14.922  12.467  -0.714  0.00  0.00    -0.227 NA
ATOM     33  C   UNL d   1      15.152  12.877  -1.381  0.00  0.00     0.086 A 
ATOM     34  C   UNL d   1      14.602  12.981  -1.970  0.00  0.00     0.059 A 
ATOM     35  C   UNL d   1      15.851  13.148  -1.446  0.00  0.00     0.021 C 
ENDBRANCH  27  28
ENDBRANCH  24  27
ENDBRANCH   1  24
TORSDOF 5
ENDMDL
