MODEL 1
REMARK VINA RESULT:      -8.8      0.000      0.000
REMARK  3 active torsions:
REMARK  status: ('A' for Active; 'I' for Inactive)
REMARK    1  A    between atoms: C_8  and  C_6 
REMARK    2  A    between atoms: C_9  and  C_8 
REMARK       I    between atoms: N_10  and  C_9 
REMARK    3  A    between atoms: C_13  and  N_10 
ROOT
ATOM      1  N   UNL d   1     -47.545  11.365  23.574  0.00  0.00    -0.207 NA
ATOM      2  N   UNL d   1     -47.875  12.813  22.794  0.00  0.00    -0.240 NA
ATOM      3  C   UNL d   1     -48.245  11.749  23.393  0.00  0.00     0.297 A 
ATOM      4  C   UNL d   1     -46.767  11.600  23.412  0.00  0.00     0.086 A 
ATOM      5  C   UNL d   1     -47.061  12.829  22.750  0.00  0.00     0.083 A 
ATOM      6  C   UNL d   1     -48.346  12.235  23.131  0.00  0.00     0.144 A 
ATOM      7  C   UNL d   1     -46.506  12.286  23.025  0.00  0.00     0.035 A 
ATOM      8  O   UNL d   1     -48.919  11.352  23.640  0.00  0.00    -0.264 OA
ATOM      9  C   UNL d   1     -45.702  12.411  22.922  0.00  0.00     0.003 A 
ATOM     10  C   UNL d   1     -46.215  11.048  23.691  0.00  0.00     0.019 A 
ATOM     11  C   UNL d   1     -46.803  13.515  22.364  0.00  0.00     0.019 A 
ATOM     12  C   UNL d   1     -45.989  13.649  22.255  0.00  0.00     0.002 A 
ATOM     13  C   UNL d   1     -45.409  11.185  23.582  0.00  0.00     0.002 A 
ATOM     14  C   UNL d   1     -45.440  13.097  22.535  0.00  0.00     0.000 A 
ATOM     15  C   UNL d   1     -45.153  11.859  23.202  0.00  0.00     0.000 A 
ENDROOT
BRANCH   6  16
ATOM     16  C   UNL d   1     -49.154  12.399  23.075  0.00  0.00     0.086 C 
BRANCH  16  17
ATOM     17  C   UNL d   1     -49.569  12.177  22.391  0.00  0.00     0.281 C 
ATOM     18  N   UNL d   1     -50.207  12.626  22.136  0.00  0.00    -0.208 NA
ATOM     19  O   UNL d   1     -49.344  11.507  21.963  0.00  0.00    -0.265 OA
BRANCH  18  20
ATOM     20  C   UNL d   1     -50.438  13.295  22.557  0.00  0.00     0.085 A 
ATOM     21  C   UNL d   1     -50.276  14.049  22.262  0.00  0.00     0.019 A 
ATOM     22  C   UNL d   1     -50.507  14.710  22.683  0.00  0.00     0.002 A 
ATOM     23  C   UNL d   1     -50.345  15.454  22.390  0.00  0.00     0.000 C 
ATOM     24  C   UNL d   1     -50.901  14.631  23.401  0.00  0.00     0.000 A 
ATOM     25  C   UNL d   1     -51.064  13.873  23.698  0.00  0.00     0.002 A 
ATOM     26  C   UNL d   1     -50.830  13.208  23.271  0.00  0.00     0.019 A 
ENDBRANCH  18  20
ENDBRANCH  16  17
ENDBRANCH   6  16
TORSDOF 3
ENDMDL
MODEL 2
REMARK VINA RESULT:      -8.7      8.480     10.381
REMARK  3 active torsions:
REMARK  status: ('A' for Active; 'I' for Inactive)
REMARK    1  A    between atoms: C_8  and  C_6 
REMARK    2  A    between atoms: C_9  and  C_8 
REMARK       I    between atoms: N_10  and  C_9 
REMARK    3  A    between atoms: C_13  and  N_10 
ROOT
ATOM      1  N   UNL d   1     -39.349  15.269  17.175  0.00  0.00    -0.207 NA
ATOM      2  N   UNL d   1     -39.346  13.986  18.256  0.00  0.00    -0.240 NA
ATOM      3  C   UNL d   1     -39.692  15.164  17.911  0.00  0.00     0.297 A 
ATOM      4  C   UNL d   1     -38.881  14.740  16.741  0.00  0.00     0.086 A 
ATOM      5  C   UNL d   1     -38.886  13.657  17.669  0.00  0.00     0.083 A 
ATOM      6  C   UNL d   1     -39.686  14.730  18.267  0.00  0.00     0.144 A 
ATOM      7  C   UNL d   1     -38.645  13.972  16.947  0.00  0.00     0.035 A 
ATOM      8  O   UNL d   1     -40.122  15.811  18.175  0.00  0.00    -0.264 OA
ATOM      9  C   UNL d   1     -38.177  13.541  16.430  0.00  0.00     0.003 A 
ATOM     10  C   UNL d   1     -38.642  15.065  16.017  0.00  0.00     0.019 A 
ATOM     11  C   UNL d   1     -38.652  12.890  17.877  0.00  0.00     0.019 A 
ATOM     12  C   UNL d   1     -38.176  12.445  17.358  0.00  0.00     0.002 A 
ATOM     13  C   UNL d   1     -38.171  14.621  15.504  0.00  0.00     0.002 A 
ATOM     14  C   UNL d   1     -37.940  12.771  16.635  0.00  0.00     0.000 A 
ATOM     15  C   UNL d   1     -37.940  13.867  15.707  0.00  0.00     0.000 A 
ENDROOT
BRANCH   6  16
ATOM     16  C   UNL d   1     -40.118  14.882  18.954  0.00  0.00     0.086 C 
BRANCH  16  17
ATOM     17  C   UNL d   1     -40.790  14.423  19.122  0.00  0.00     0.281 C 
ATOM     18  N   UNL d   1     -41.055  14.354  19.896  0.00  0.00    -0.208 NA
ATOM     19  O   UNL d   1     -41.194  14.035  18.516  0.00  0.00    -0.265 OA
BRANCH  18  20
ATOM     20  C   UNL d   1     -40.657  14.739  20.506  0.00  0.00     0.085 A 
ATOM     21  C   UNL d   1     -40.109  14.330  20.968  0.00  0.00     0.019 A 
ATOM     22  C   UNL d   1     -39.717  14.716  21.573  0.00  0.00     0.002 A 
ATOM     23  C   UNL d   1     -39.175  14.310  22.028  0.00  0.00     0.000 C 
ATOM     24  C   UNL d   1     -39.864  15.510  21.725  0.00  0.00     0.000 A 
ATOM     25  C   UNL d   1     -40.416  15.922  21.261  0.00  0.00     0.002 A 
ATOM     26  C   UNL d   1     -40.810  15.531  20.652  0.00  0.00     0.019 A 
ENDBRANCH  18  20
ENDBRANCH  16  17
ENDBRANCH   6  16
TORSDOF 3
ENDMDL
MODEL 3
REMARK VINA RESULT:      -8.0      1.508      4.585
REMARK  3 active torsions:
REMARK  status: ('A' for Active; 'I' for Inactive)
REMARK    1  A    between atoms: C_8  and  C_6 
REMARK    2  A    between atoms: C_9  and  C_8 
REMARK       I    between atoms: N_10  and  C_9 
REMARK    3  A    between atoms: C_13  and  N_10 
ROOT
ATOM      1  N   UNL d   1     -48.897  13.563  21.553  0.00  0.00    -0.207 NA
ATOM      2  N   UNL d   1     -48.225  12.682  22.813  0.00  0.00    -0.240 NA
ATOM      3  C   UNL d   1     -48.133  13.503  21.842  0.00  0.00     0.297 A 
ATOM      4  C   UNL d   1     -49.583  13.183  21.821  0.00  0.00     0.086 A 
ATOM      5  C   UNL d   1     -48.999  12.440  22.889  0.00  0.00     0.083 A 
ATOM      6  C   UNL d   1     -47.916  13.205  22.265  0.00  0.00     0.144 A 
ATOM      7  C   UNL d   1     -49.664  12.647  22.449  0.00  0.00     0.035 A 
ATOM      8  O   UNL d   1     -47.586  13.963  21.438  0.00  0.00    -0.264 OA
ATOM      9  C   UNL d   1     -50.403  12.334  22.620  0.00  0.00     0.003 A 
ATOM     10  C   UNL d   1     -50.246  13.397  21.373  0.00  0.00     0.019 A 
ATOM     11  C   UNL d   1     -49.078  11.905  23.517  0.00  0.00     0.019 A 
ATOM     12  C   UNL d   1     -49.824  11.582  23.698  0.00  0.00     0.002 A 
ATOM     13  C   UNL d   1     -50.985  13.076  21.555  0.00  0.00     0.002 A 
ATOM     14  C   UNL d   1     -50.485  11.798  23.249  0.00  0.00     0.000 A 
ATOM     15  C   UNL d   1     -51.064  12.550  22.172  0.00  0.00     0.000 A 
ENDROOT
BRANCH   6  16
ATOM     16  C   UNL d   1     -47.103  13.325  22.350  0.00  0.00     0.086 C 
BRANCH  16  17
ATOM     17  C   UNL d   1     -46.825  13.816  22.960  0.00  0.00     0.281 C 
ATOM     18  N   UNL d   1     -46.054  13.733  23.230  0.00  0.00    -0.208 NA
ATOM     19  O   UNL d   1     -47.317  14.386  23.296  0.00  0.00    -0.265 OA
BRANCH  18  20
ATOM     20  C   UNL d   1     -45.557  13.167  22.900  0.00  0.00     0.085 A 
ATOM     21  C   UNL d   1     -45.057  13.365  22.274  0.00  0.00     0.019 A 
ATOM     22  C   UNL d   1     -44.565  12.800  21.949  0.00  0.00     0.002 A 
ATOM     23  C   UNL d   1     -44.071  12.999  21.330  0.00  0.00     0.000 C 
ATOM     24  C   UNL d   1     -44.563  12.031  22.241  0.00  0.00     0.000 A 
ATOM     25  C   UNL d   1     -45.065  11.830  22.871  0.00  0.00     0.002 A 
ATOM     26  C   UNL d   1     -45.561  12.403  23.197  0.00  0.00     0.019 A 
ENDBRANCH  18  20
ENDBRANCH  16  17
ENDBRANCH   6  16
TORSDOF 3
ENDMDL
MODEL 4
REMARK VINA RESULT:      -7.7      1.187      4.491
REMARK  3 active torsions:
REMARK  status: ('A' for Active; 'I' for Inactive)
REMARK    1  A    between atoms: C_8  and  C_6 
REMARK    2  A    between atoms: C_9  and  C_8 
REMARK       I    between atoms: N_10  and  C_9 
REMARK    3  A    between atoms: C_13  and  N_10 
ROOT
ATOM      1  N   UNL d   1     -49.117  12.696  21.635  0.00  0.00    -0.207 NA
ATOM      2  N   UNL d   1     -48.266  13.770  22.602  0.00  0.00    -0.240 NA
ATOM      3  C   UNL d   1     -48.353  12.691  21.929  0.00  0.00     0.297 A 
ATOM      4  C   UNL d   1     -49.709  13.266  21.742  0.00  0.00     0.086 A 
ATOM      5  C   UNL d   1     -48.975  14.171  22.564  0.00  0.00     0.083 A 
ATOM      6  C   UNL d   1     -48.076  13.055  22.253  0.00  0.00     0.144 A 
ATOM      7  C   UNL d   1     -49.673  13.973  22.175  0.00  0.00     0.035 A 
ATOM      8  O   UNL d   1     -47.914  12.033  21.710  0.00  0.00    -0.264 OA
ATOM      9  C   UNL d   1     -50.332  14.461  22.207  0.00  0.00     0.003 A 
ATOM     10  C   UNL d   1     -50.408  13.059  21.347  0.00  0.00     0.019 A 
ATOM     11  C   UNL d   1     -48.936  14.876  22.997  0.00  0.00     0.019 A 
ATOM     12  C   UNL d   1     -49.600  15.377  23.035  0.00  0.00     0.002 A 
ATOM     13  C   UNL d   1     -51.064  13.558  21.387  0.00  0.00     0.002 A 
ATOM     14  C   UNL d   1     -50.296  15.169  22.641  0.00  0.00     0.000 A 
ATOM     15  C   UNL d   1     -51.028  14.252  21.813  0.00  0.00     0.000 A 
ENDROOT
BRANCH   6  16
ATOM     16  C   UNL d   1     -47.302  12.811  22.409  0.00  0.00     0.086 C 
BRANCH  16  17
ATOM     17  C   UNL d   1     -47.097  12.578  23.180  0.00  0.00     0.281 C 
ATOM     18  N   UNL d   1     -46.316  12.632  23.428  0.00  0.00    -0.208 NA
ATOM     19  O   UNL d   1     -47.671  12.291  23.698  0.00  0.00    -0.265 OA
BRANCH  18  20
ATOM     20  C   UNL d   1     -45.736  12.917  22.917  0.00  0.00     0.085 A 
ATOM     21  C   UNL d   1     -45.169  12.406  22.604  0.00  0.00     0.019 A 
ATOM     22  C   UNL d   1     -44.596  12.694  22.098  0.00  0.00     0.002 A 
ATOM     23  C   UNL d   1     -44.035  12.186  21.790  0.00  0.00     0.000 C 
ATOM     24  C   UNL d   1     -44.580  13.491  21.896  0.00  0.00     0.000 A 
ATOM     25  C   UNL d   1     -45.150  14.005  22.209  0.00  0.00     0.002 A 
ATOM     26  C   UNL d   1     -45.727  13.713  22.720  0.00  0.00     0.019 A 
ENDBRANCH  18  20
ENDBRANCH  16  17
ENDBRANCH   6  16
TORSDOF 3
ENDMDL
MODEL 5
REMARK VINA RESULT:      -7.5      1.348      2.117
REMARK  3 active torsions:
REMARK  status: ('A' for Active; 'I' for Inactive)
REMARK    1  A    between atoms: C_8  and  C_6 
REMARK    2  A    between atoms: C_9  and  C_8 
REMARK       I    between atoms: N_10  and  C_9 
REMARK    3  A    between atoms: C_13  and  N_10 
ROOT
ATOM      1  N   UNL d   1     -46.118  11.406  23.565  0.00  0.00    -0.207 NA
ATOM      2  N   UNL d   1     -46.091  12.723  22.527  0.00  0.00    -0.240 NA
ATOM      3  C   UNL d   1     -46.689  11.948  23.344  0.00  0.00     0.297 A 
ATOM      4  C   UNL d   1     -45.327  11.358  23.322  0.00  0.00     0.086 A 
ATOM      5  C   UNL d   1     -45.318  12.480  22.442  0.00  0.00     0.083 A 
ATOM      6  C   UNL d   1     -46.672  12.387  22.995  0.00  0.00     0.144 A 
ATOM      7  C   UNL d   1     -44.920  11.850  22.793  0.00  0.00     0.035 A 
ATOM      8  O   UNL d   1     -47.420  11.828  23.698  0.00  0.00    -0.264 OA
ATOM      9  C   UNL d   1     -44.130  11.701  22.629  0.00  0.00     0.003 A 
ATOM     10  C   UNL d   1     -44.934  10.721  23.680  0.00  0.00     0.019 A 
ATOM     11  C   UNL d   1     -44.913  12.973  21.913  0.00  0.00     0.019 A 
ATOM     12  C   UNL d   1     -44.112  12.829  21.741  0.00  0.00     0.002 A 
ATOM     13  C   UNL d   1     -44.139  10.582  23.507  0.00  0.00     0.002 A 
ATOM     14  C   UNL d   1     -43.721  12.194  22.099  0.00  0.00     0.000 A 
ATOM     15  C   UNL d   1     -43.740  11.066  22.987  0.00  0.00     0.000 A 
ENDROOT
BRANCH   6  16
ATOM     16  C   UNL d   1     -47.398  12.779  22.947  0.00  0.00     0.086 C 
BRANCH  16  17
ATOM     17  C   UNL d   1     -47.430  13.596  23.096  0.00  0.00     0.281 C 
ATOM     18  N   UNL d   1     -48.065  14.036  22.818  0.00  0.00    -0.208 NA
ATOM     19  O   UNL d   1     -46.830  13.968  23.522  0.00  0.00    -0.265 OA
BRANCH  18  20
ATOM     20  C   UNL d   1     -48.668  13.672  22.392  0.00  0.00     0.085 A 
ATOM     21  C   UNL d   1     -49.349  13.408  22.776  0.00  0.00     0.019 A 
ATOM     22  C   UNL d   1     -49.945  13.048  22.350  0.00  0.00     0.002 A 
ATOM     23  C   UNL d   1     -50.618  12.788  22.732  0.00  0.00     0.000 C 
ATOM     24  C   UNL d   1     -49.873  12.945  21.537  0.00  0.00     0.000 A 
ATOM     25  C   UNL d   1     -49.188  13.210  21.149  0.00  0.00     0.002 A 
ATOM     26  C   UNL d   1     -48.588  13.573  21.582  0.00  0.00     0.019 A 
ENDBRANCH  18  20
ENDBRANCH  16  17
ENDBRANCH   6  16
TORSDOF 3
ENDMDL
MODEL 6
REMARK VINA RESULT:      -7.4      9.081     10.469
REMARK  3 active torsions:
REMARK  status: ('A' for Active; 'I' for Inactive)
REMARK    1  A    between atoms: C_8  and  C_6 
REMARK    2  A    between atoms: C_9  and  C_8 
REMARK       I    between atoms: N_10  and  C_9 
REMARK    3  A    between atoms: C_13  and  N_10 
ROOT
ATOM      1  N   UNL d   1     -38.584  13.627  20.185  0.00  0.00    -0.207 NA
ATOM      2  N   UNL d   1     -39.607  14.803  19.566  0.00  0.00    -0.240 NA
ATOM      3  C   UNL d   1     -38.820  13.810  19.423  0.00  0.00     0.297 A 
ATOM      4  C   UNL d   1     -38.799  13.993  20.897  0.00  0.00     0.086 A 
ATOM      5  C   UNL d   1     -39.667  14.989  20.357  0.00  0.00     0.083 A 
ATOM      6  C   UNL d   1     -39.163  14.207  19.224  0.00  0.00     0.144 A 
ATOM      7  C   UNL d   1     -39.308  14.639  21.011  0.00  0.00     0.035 A 
ATOM      8  O   UNL d   1     -38.494  13.326  18.846  0.00  0.00    -0.264 OA
ATOM      9  C   UNL d   1     -39.445  14.916  21.771  0.00  0.00     0.003 A 
ATOM     10  C   UNL d   1     -38.434  13.635  21.549  0.00  0.00     0.019 A 
ATOM     11  C   UNL d   1     -40.175  15.633  20.469  0.00  0.00     0.019 A 
ATOM     12  C   UNL d   1     -40.320  15.921  21.237  0.00  0.00     0.002 A 
ATOM     13  C   UNL d   1     -38.580  13.923  22.309  0.00  0.00     0.002 A 
ATOM     14  C   UNL d   1     -39.955  15.561  21.886  0.00  0.00     0.000 A 
ATOM     15  C   UNL d   1     -39.080  14.556  22.420  0.00  0.00     0.000 A 
ENDROOT
BRANCH   6  16
ATOM     16  C   UNL d   1     -39.234  14.178  18.402  0.00  0.00     0.086 C 
BRANCH  16  17
ATOM     17  C   UNL d   1     -39.990  14.138  18.059  0.00  0.00     0.281 C 
ATOM     18  N   UNL d   1     -40.107  14.419  17.296  0.00  0.00    -0.208 NA
ATOM     19  O   UNL d   1     -40.624  13.819  18.479  0.00  0.00    -0.265 OA
BRANCH  18  20
ATOM     20  C   UNL d   1     -39.479  14.739  16.870  0.00  0.00     0.085 A 
ATOM     21  C   UNL d   1     -39.018  14.258  16.383  0.00  0.00     0.019 A 
ATOM     22  C   UNL d   1     -38.396  14.580  15.962  0.00  0.00     0.002 A 
ATOM     23  C   UNL d   1     -37.942  14.103  15.481  0.00  0.00     0.000 C 
ATOM     24  C   UNL d   1     -38.225  15.383  16.021  0.00  0.00     0.000 A 
ATOM     25  C   UNL d   1     -38.687  15.867  16.510  0.00  0.00     0.002 A 
ATOM     26  C   UNL d   1     -39.315  15.539  16.934  0.00  0.00     0.019 A 
ENDBRANCH  18  20
ENDBRANCH  16  17
ENDBRANCH   6  16
TORSDOF 3
ENDMDL
MODEL 7
REMARK VINA RESULT:      -7.0      1.349      4.619
REMARK  3 active torsions:
REMARK  status: ('A' for Active; 'I' for Inactive)
REMARK    1  A    between atoms: C_8  and  C_6 
REMARK    2  A    between atoms: C_9  and  C_8 
REMARK       I    between atoms: N_10  and  C_9 
REMARK    3  A    between atoms: C_13  and  N_10 
ROOT
ATOM      1  N   UNL d   1     -48.761  15.098  22.808  0.00  0.00    -0.207 NA
ATOM      2  N   UNL d   1     -48.767  13.421  22.809  0.00  0.00    -0.240 NA
ATOM      3  C   UNL d   1     -48.201  14.542  22.591  0.00  0.00     0.297 A 
ATOM      4  C   UNL d   1     -49.526  14.976  23.103  0.00  0.00     0.086 A 
ATOM      5  C   UNL d   1     -49.518  13.549  23.099  0.00  0.00     0.083 A 
ATOM      6  C   UNL d   1     -48.211  13.982  22.595  0.00  0.00     0.144 A 
ATOM      7  C   UNL d   1     -49.912  14.256  23.252  0.00  0.00     0.035 A 
ATOM      8  O   UNL d   1     -47.497  14.865  22.320  0.00  0.00    -0.264 OA
ATOM      9  C   UNL d   1     -50.677  14.262  23.548  0.00  0.00     0.003 A 
ATOM     10  C   UNL d   1     -49.915  15.692  23.254  0.00  0.00     0.019 A 
ATOM     11  C   UNL d   1     -49.902  12.830  23.247  0.00  0.00     0.019 A 
ATOM     12  C   UNL d   1     -50.678  12.826  23.547  0.00  0.00     0.002 A 
ATOM     13  C   UNL d   1     -50.685  15.684  23.552  0.00  0.00     0.002 A 
ATOM     14  C   UNL d   1     -51.064  13.542  23.697  0.00  0.00     0.000 A 
ATOM     15  C   UNL d   1     -51.064  14.978  23.698  0.00  0.00     0.000 A 
ENDROOT
BRANCH   6  16
ATOM     16  C   UNL d   1     -47.505  13.653  22.321  0.00  0.00     0.086 C 
BRANCH  16  17
ATOM     17  C   UNL d   1     -47.502  13.228  21.607  0.00  0.00     0.281 C 
ATOM     18  N   UNL d   1     -46.894  12.701  21.448  0.00  0.00    -0.208 NA
ATOM     19  O   UNL d   1     -48.107  13.333  21.055  0.00  0.00    -0.265 OA
BRANCH  18  20
ATOM     20  C   UNL d   1     -46.287  12.590  21.993  0.00  0.00     0.085 A 
ATOM     21  C   UNL d   1     -46.346  12.004  22.570  0.00  0.00     0.019 A 
ATOM     22  C   UNL d   1     -45.741  11.898  23.109  0.00  0.00     0.002 A 
ATOM     23  C   UNL d   1     -45.802  11.316  23.679  0.00  0.00     0.000 C 
ATOM     24  C   UNL d   1     -45.070  12.373  23.081  0.00  0.00     0.000 A 
ATOM     25  C   UNL d   1     -45.009  12.963  22.501  0.00  0.00     0.002 A 
ATOM     26  C   UNL d   1     -45.621  13.068  21.958  0.00  0.00     0.019 A 
ENDBRANCH  18  20
ENDBRANCH  16  17
ENDBRANCH   6  16
TORSDOF 3
ENDMDL
MODEL 8
REMARK VINA RESULT:      -6.3      9.259     10.584
REMARK  3 active torsions:
REMARK  status: ('A' for Active; 'I' for Inactive)
REMARK    1  A    between atoms: C_8  and  C_6 
REMARK    2  A    between atoms: C_9  and  C_8 
REMARK       I    between atoms: N_10  and  C_9 
REMARK    3  A    between atoms: C_13  and  N_10 
ROOT
ATOM      1  N   UNL d   1     -38.557  14.111  18.279  0.00  0.00    -0.207 NA
ATOM      2  N   UNL d   1     -39.533  15.060  19.259  0.00  0.00    -0.240 NA
ATOM      3  C   UNL d   1     -38.546  14.273  19.081  0.00  0.00     0.297 A 
ATOM      4  C   UNL d   1     -39.083  14.387  17.702  0.00  0.00     0.086 A 
ATOM      5  C   UNL d   1     -39.906  15.191  18.546  0.00  0.00     0.083 A 
ATOM      6  C   UNL d   1     -38.877  14.592  19.402  0.00  0.00     0.144 A 
ATOM      7  C   UNL d   1     -39.730  14.898  17.796  0.00  0.00     0.035 A 
ATOM      8  O   UNL d   1     -37.940  13.900  19.490  0.00  0.00    -0.264 OA
ATOM      9  C   UNL d   1     -40.182  15.103  17.143  0.00  0.00     0.003 A 
ATOM     10  C   UNL d   1     -38.899  14.088  16.951  0.00  0.00     0.019 A 
ATOM     11  C   UNL d   1     -40.551  15.701  18.642  0.00  0.00     0.019 A 
ATOM     12  C   UNL d   1     -41.015  15.913  17.985  0.00  0.00     0.002 A 
ATOM     13  C   UNL d   1     -39.362  14.301  16.301  0.00  0.00     0.002 A 
ATOM     14  C   UNL d   1     -40.830  15.614  17.236  0.00  0.00     0.000 A 
ATOM     15  C   UNL d   1     -39.997  14.803  16.394  0.00  0.00     0.000 A 
ENDROOT
BRANCH   6  16
ATOM     16  C   UNL d   1     -38.647  14.587  20.195  0.00  0.00     0.086 C 
BRANCH  16  17
ATOM     17  C   UNL d   1     -38.342  15.280  20.536  0.00  0.00     0.281 C 
ATOM     18  N   UNL d   1     -38.337  15.365  21.353  0.00  0.00    -0.208 NA
ATOM     19  O   UNL d   1     -38.044  15.885  20.060  0.00  0.00    -0.265 OA
BRANCH  18  20
ATOM     20  C   UNL d   1     -38.632  14.767  21.835  0.00  0.00     0.085 A 
ATOM     21  C   UNL d   1     -38.135  14.164  22.103  0.00  0.00     0.019 A 
ATOM     22  C   UNL d   1     -38.433  13.572  22.581  0.00  0.00     0.002 A 
ATOM     23  C   UNL d   1     -37.940  12.978  22.845  0.00  0.00     0.000 C 
ATOM     24  C   UNL d   1     -39.226  13.571  22.798  0.00  0.00     0.000 A 
ATOM     25  C   UNL d   1     -39.726  14.176  22.529  0.00  0.00     0.002 A 
ATOM     26  C   UNL d   1     -39.423  14.772  22.047  0.00  0.00     0.019 A 
ENDBRANCH  18  20
ENDBRANCH  16  17
ENDBRANCH   6  16
TORSDOF 3
ENDMDL
