MODEL 1
REMARK VINA RESULT:      -3.7      0.000      0.000
REMARK  3 active torsions:
REMARK  status: ('A' for Active; 'I' for Inactive)
REMARK    1  A    between atoms: C_12  and  C_3 
REMARK       I    between atoms: C_6  and  N_9 
REMARK    2  A    between atoms: C_7  and  C_6 
REMARK    3  A    between atoms: N_9  and  C_22 
ROOT
ATOM      1  C   UNL d   1      58.542   0.175  30.728  0.00  0.00     0.019 A 
ATOM      2  C   UNL d   1      57.748   0.037  30.550  0.00  0.00     0.003 A 
ATOM      3  C   UNL d   1      58.754   0.468  31.471  0.00  0.00     0.003 A 
ATOM      4  C   UNL d   1      57.378   0.484  31.856  0.00  0.00     0.085 A 
ATOM      5  C   UNL d   1      58.172   0.622  32.034  0.00  0.00     0.019 A 
ATOM      6  C   UNL d   1      57.166   0.191  31.114  0.00  0.00     0.019 A 
ENDROOT
BRANCH   4   7
ATOM      7  N   UNL d   1      56.799   0.638  32.417  0.00  0.00    -0.208 NA
ATOM      8  C   UNL d   1      56.575   0.058  32.948  0.00  0.00     0.279 C 
ATOM      9  O   UNL d   1      56.935  -0.693  32.922  0.00  0.00    -0.265 OA
BRANCH   8  10
ATOM     10  C   UNL d   1      55.993   0.212  33.512  0.00  0.00     0.060 A 
ATOM     11  C   UNL d   1      56.191   0.260  34.307  0.00  0.00     0.031 A 
ATOM     12  C   UNL d   1      55.609   0.414  34.871  0.00  0.00     0.119 A 
ATOM     13  O   UNL d   1      55.648   0.491  35.695  0.00  0.00    -0.300 OA
ATOM     14  C   UNL d   1      54.829   0.521  34.639  0.00  0.00     0.119 A 
ATOM     15  C   UNL d   1      54.887   0.647  35.973  0.00  0.00     0.304 A 
ATOM     16  O   UNL d   1      54.377   0.666  35.319  0.00  0.00    -0.300 OA
ATOM     17  C   UNL d   1      54.626   0.474  33.840  0.00  0.00     0.026 A 
ATOM     18  C   UNL d   1      55.208   0.320  33.276  0.00  0.00     0.007 A 
ENDBRANCH   8  10
ENDBRANCH   4   7
BRANCH   1  19
ATOM     19  C   UNL d   1      59.125   0.020  30.164  0.00  0.00     0.101 A 
ATOM     20  N   UNL d   1      59.202  -0.630  29.678  0.00  0.00    -0.221 NA
ATOM     21  C   UNL d   1      59.882  -0.520  29.209  0.00  0.00     0.179 A 
ATOM     22  N   UNL d   1      60.218   0.187  29.404  0.00  0.00    -0.282 N 
ATOM     23  S   UNL d   1      60.334  -0.871  28.620  0.00  0.00    -0.048 SA
ATOM     24  C   UNL d   1      59.755   0.532  29.997  0.00  0.00     0.101 A 
ATOM     25  C   UNL d   1      60.886   0.281  28.934  0.00  0.00     0.089 A 
ATOM     26  C   UNL d   1      60.958  -0.358  28.459  0.00  0.00     0.057 A 
ENDBRANCH   1  19
TORSDOF 3
ENDMDL
MODEL 2
REMARK VINA RESULT:      -2.2      0.647      1.188
REMARK  3 active torsions:
REMARK  status: ('A' for Active; 'I' for Inactive)
REMARK    1  A    between atoms: C_12  and  C_3 
REMARK       I    between atoms: C_6  and  N_9 
REMARK    2  A    between atoms: C_7  and  C_6 
REMARK    3  A    between atoms: N_9  and  C_22 
ROOT
ATOM      1  C   UNL d   1      58.544   0.315  31.003  0.00  0.00     0.019 A 
ATOM      2  C   UNL d   1      58.779   0.478  31.777  0.00  0.00     0.003 A 
ATOM      3  C   UNL d   1      57.741   0.275  30.815  0.00  0.00     0.003 A 
ATOM      4  C   UNL d   1      57.409   0.560  32.175  0.00  0.00     0.085 A 
ATOM      5  C   UNL d   1      57.174   0.397  31.402  0.00  0.00     0.019 A 
ATOM      6  C   UNL d   1      58.212   0.600  32.364  0.00  0.00     0.019 A 
ENDROOT
BRANCH   4   7
ATOM      7  N   UNL d   1      56.845   0.682  32.759  0.00  0.00    -0.208 NA
ATOM      8  C   UNL d   1      56.391   0.058  33.029  0.00  0.00     0.279 C 
ATOM      9  O   UNL d   1      56.499  -0.705  32.714  0.00  0.00    -0.265 OA
BRANCH   8  10
ATOM     10  C   UNL d   1      55.824   0.180  33.616  0.00  0.00     0.060 A 
ATOM     11  C   UNL d   1      55.037   0.298  33.411  0.00  0.00     0.031 A 
ATOM     12  C   UNL d   1      54.470   0.421  33.998  0.00  0.00     0.119 A 
ATOM     13  O   UNL d   1      53.653   0.552  33.954  0.00  0.00    -0.300 OA
ATOM     14  C   UNL d   1      54.689   0.425  34.789  0.00  0.00     0.119 A 
ATOM     15  C   UNL d   1      53.367   0.637  34.723  0.00  0.00     0.304 A 
ATOM     16  O   UNL d   1      54.008   0.559  35.243  0.00  0.00    -0.300 OA
ATOM     17  C   UNL d   1      55.479   0.306  34.998  0.00  0.00     0.026 A 
ATOM     18  C   UNL d   1      56.046   0.184  34.412  0.00  0.00     0.007 A 
ENDBRANCH   8  10
ENDBRANCH   4   7
BRANCH   1  19
ATOM     19  C   UNL d   1      59.111   0.193  30.416  0.00  0.00     0.101 A 
ATOM     20  N   UNL d   1      59.896   0.414  30.414  0.00  0.00    -0.221 NA
ATOM     21  C   UNL d   1      60.231   0.162  29.694  0.00  0.00     0.179 A 
ATOM     22  N   UNL d   1      59.661  -0.209  29.260  0.00  0.00    -0.282 N 
ATOM     23  S   UNL d   1      60.933   0.154  29.266  0.00  0.00    -0.048 SA
ATOM     24  C   UNL d   1      58.960  -0.195  29.699  0.00  0.00     0.101 A 
ATOM     25  C   UNL d   1      60.007  -0.451  28.554  0.00  0.00     0.089 A 
ATOM     26  C   UNL d   1      60.776  -0.233  28.556  0.00  0.00     0.057 A 
ENDBRANCH   1  19
TORSDOF 3
ENDMDL
