MODEL 1
REMARK VINA RESULT:      -5.3      0.000      0.000
REMARK  3 active torsions:
REMARK  status: ('A' for Active; 'I' for Inactive)
REMARK    1  A    between atoms: C_6  and  C_2 
REMARK    2  A    between atoms: O_7  and  C_6 
REMARK    3  A    between atoms: C_8  and  O_7 
ROOT
ATOM      1  N   UNL d   1      58.782   0.359  30.310  0.00  0.00    -0.224 NA
ATOM      2  C   UNL d   1      58.110  -0.118  30.331  0.00  0.00     0.188 A 
ATOM      3  N   UNL d   1      58.187  -0.695  29.716  0.00  0.00    -0.224 NA
ATOM      4  C   UNL d   1      59.273   0.079  29.686  0.00  0.00     0.101 A 
ATOM      5  C   UNL d   1      58.908  -0.567  29.322  0.00  0.00     0.101 A 
ATOM      6  C   UNL d   1      60.006   0.344  29.416  0.00  0.00     0.021 A 
ATOM      7  C   UNL d   1      59.278  -0.946  28.689  0.00  0.00     0.021 A 
ATOM      8  C   UNL d   1      60.332  -0.030  28.819  0.00  0.00     0.002 A 
ATOM      9  C   UNL d   1      59.967  -0.676  28.455  0.00  0.00     0.002 A 
ENDROOT
BRANCH   2  10
ATOM     10  C   UNL d   1      57.758   0.257  30.947  0.00  0.00     0.161 C 
BRANCH  10  11
ATOM     11  O   UNL d   1      57.168  -0.127  31.372  0.00  0.00    -0.302 OA
BRANCH  11  12
ATOM     12  C   UNL d   1      56.628  -0.141  31.996  0.00  0.00     0.100 A 
ATOM     13  C   UNL d   1      56.320   0.565  32.291  0.00  0.00     0.026 A 
ATOM     14  C   UNL d   1      55.784   0.551  32.912  0.00  0.00     0.013 A 
ATOM     15  C   UNL d   1      55.550  -0.169  33.245  0.00  0.00     0.058 A 
ATOM     16  C   UNL d   1      55.862  -0.877  32.947  0.00  0.00     0.013 A 
ATOM     17 CL   UNL d   1      55.014  -0.182  33.865  0.00  0.00    -0.082 Cl
ATOM     18  C   UNL d   1      56.398  -0.864  32.327  0.00  0.00     0.026 A 
ENDBRANCH  11  12
ENDBRANCH  10  11
ENDBRANCH   2  10
TORSDOF 3
ENDMDL
MODEL 2
REMARK VINA RESULT:      -5.3      2.094      4.742
REMARK  3 active torsions:
REMARK  status: ('A' for Active; 'I' for Inactive)
REMARK    1  A    between atoms: C_6  and  C_2 
REMARK    2  A    between atoms: O_7  and  C_6 
REMARK    3  A    between atoms: C_8  and  O_7 
ROOT
ATOM      1  N   UNL d   1      56.774   0.411  31.837  0.00  0.00    -0.224 NA
ATOM      2  C   UNL d   1      57.126  -0.209  31.424  0.00  0.00     0.188 A 
ATOM      3  N   UNL d   1      56.832  -0.933  31.751  0.00  0.00    -0.224 NA
ATOM      4  C   UNL d   1      56.265   0.074  32.417  0.00  0.00     0.101 A 
ATOM      5  C   UNL d   1      56.300  -0.749  32.364  0.00  0.00     0.101 A 
ATOM      6  C   UNL d   1      55.779   0.430  32.981  0.00  0.00     0.021 A 
ATOM      7  C   UNL d   1      55.850  -1.215  32.875  0.00  0.00     0.021 A 
ATOM      8  C   UNL d   1      55.365  -0.031  33.449  0.00  0.00     0.002 A 
ATOM      9  C   UNL d   1      55.401  -0.855  33.396  0.00  0.00     0.002 A 
ENDROOT
BRANCH   2  10
ATOM     10  C   UNL d   1      57.561   0.252  30.932  0.00  0.00     0.161 C 
BRANCH  10  11
ATOM     11  O   UNL d   1      58.093  -0.100  30.411  0.00  0.00    -0.302 OA
BRANCH  11  12
ATOM     12  C   UNL d   1      58.755  -0.049  29.922  0.00  0.00     0.100 A 
ATOM     13  C   UNL d   1      58.826  -0.549  29.270  0.00  0.00     0.026 A 
ATOM     14  C   UNL d   1      59.484  -0.499  28.783  0.00  0.00     0.013 A 
ATOM     15  C   UNL d   1      60.079   0.053  28.943  0.00  0.00     0.058 A 
ATOM     16  C   UNL d   1      60.006   0.555  29.599  0.00  0.00     0.013 A 
ATOM     17 CL   UNL d   1      60.737   0.104  28.456  0.00  0.00    -0.082 Cl
ATOM     18  C   UNL d   1      59.348   0.505  30.085  0.00  0.00     0.026 A 
ENDBRANCH  11  12
ENDBRANCH  10  11
ENDBRANCH   2  10
TORSDOF 3
ENDMDL
MODEL 3
REMARK VINA RESULT:      -4.6      0.968      1.281
REMARK  3 active torsions:
REMARK  status: ('A' for Active; 'I' for Inactive)
REMARK    1  A    between atoms: C_6  and  C_2 
REMARK    2  A    between atoms: O_7  and  C_6 
REMARK    3  A    between atoms: C_8  and  O_7 
ROOT
ATOM      1  N   UNL d   1      57.741   0.245  30.431  0.00  0.00    -0.224 NA
ATOM      2  C   UNL d   1      57.450  -0.292  30.985  0.00  0.00     0.188 A 
ATOM      3  N   UNL d   1      57.701  -1.065  30.748  0.00  0.00    -0.224 NA
ATOM      4  C   UNL d   1      58.170  -0.193  29.854  0.00  0.00     0.101 A 
ATOM      5  C   UNL d   1      58.146  -0.996  30.048  0.00  0.00     0.101 A 
ATOM      6  C   UNL d   1      58.575   0.055  29.179  0.00  0.00     0.021 A 
ATOM      7  C   UNL d   1      58.527  -1.547  29.567  0.00  0.00     0.021 A 
ATOM      8  C   UNL d   1      58.925  -0.484  28.745  0.00  0.00     0.002 A 
ATOM      9  C   UNL d   1      58.900  -1.287  28.939  0.00  0.00     0.002 A 
ENDROOT
BRANCH   2  10
ATOM     10  C   UNL d   1      57.083   0.252  31.447  0.00  0.00     0.161 C 
BRANCH  10  11
ATOM     11  O   UNL d   1      56.658   0.004  32.106  0.00  0.00    -0.302 OA
BRANCH  11  12
ATOM     12  C   UNL d   1      56.280   0.174  32.820  0.00  0.00     0.100 A 
ATOM     13  C   UNL d   1      55.476   0.011  32.910  0.00  0.00     0.026 A 
ATOM     14  C   UNL d   1      55.100   0.180  33.619  0.00  0.00     0.013 A 
ATOM     15  C   UNL d   1      55.524   0.513  34.246  0.00  0.00     0.058 A 
ATOM     16  C   UNL d   1      56.332   0.676  34.154  0.00  0.00     0.013 A 
ATOM     17 CL   UNL d   1      55.148   0.682  34.955  0.00  0.00    -0.082 Cl
ATOM     18  C   UNL d   1      56.707   0.507  33.445  0.00  0.00     0.026 A 
ENDBRANCH  11  12
ENDBRANCH  10  11
ENDBRANCH   2  10
TORSDOF 3
ENDMDL
MODEL 4
REMARK VINA RESULT:      -3.8      2.289      5.033
REMARK  3 active torsions:
REMARK  status: ('A' for Active; 'I' for Inactive)
REMARK    1  A    between atoms: C_6  and  C_2 
REMARK    2  A    between atoms: O_7  and  C_6 
REMARK    3  A    between atoms: C_8  and  O_7 
ROOT
ATOM      1  N   UNL d   1      56.726   0.494  33.604  0.00  0.00    -0.224 NA
ATOM      2  C   UNL d   1      56.554   0.457  32.799  0.00  0.00     0.188 A 
ATOM      3  N   UNL d   1      55.712   0.502  32.716  0.00  0.00    -0.224 NA
ATOM      4  C   UNL d   1      55.996   0.561  34.018  0.00  0.00     0.101 A 
ATOM      5  C   UNL d   1      55.375   0.566  33.474  0.00  0.00     0.101 A 
ATOM      6  C   UNL d   1      55.837   0.618  34.826  0.00  0.00     0.021 A 
ATOM      7  C   UNL d   1      54.596   0.628  33.739  0.00  0.00     0.021 A 
ATOM      8  C   UNL d   1      55.095   0.675  35.048  0.00  0.00     0.002 A 
ATOM      9  C   UNL d   1      54.474   0.680  34.504  0.00  0.00     0.002 A 
ENDROOT
BRANCH   2  10
ATOM     10  C   UNL d   1      57.314   0.397  32.551  0.00  0.00     0.161 C 
BRANCH  10  11
ATOM     11  O   UNL d   1      57.480   0.410  31.745  0.00  0.00    -0.302 OA
BRANCH  11  12
ATOM     12  C   UNL d   1      58.026   0.408  31.126  0.00  0.00     0.100 A 
ATOM     13  C   UNL d   1      58.794   0.682  31.252  0.00  0.00     0.026 A 
ATOM     14  C   UNL d   1      59.337   0.680  30.637  0.00  0.00     0.013 A 
ATOM     15  C   UNL d   1      59.118   0.405  29.889  0.00  0.00     0.058 A 
ATOM     16  C   UNL d   1      58.345   0.131  29.764  0.00  0.00     0.013 A 
ATOM     17 CL   UNL d   1      59.660   0.404  29.274  0.00  0.00    -0.082 Cl
ATOM     18  C   UNL d   1      57.802   0.133  30.379  0.00  0.00     0.026 A 
ENDBRANCH  11  12
ENDBRANCH  10  11
ENDBRANCH   2  10
TORSDOF 3
ENDMDL
MODEL 5
REMARK VINA RESULT:      -2.9      9.755     10.166
REMARK  3 active torsions:
REMARK  status: ('A' for Active; 'I' for Inactive)
REMARK    1  A    between atoms: C_6  and  C_2 
REMARK    2  A    between atoms: O_7  and  C_6 
REMARK    3  A    between atoms: C_8  and  O_7 
ROOT
ATOM      1  N   UNL d   1      59.129  -9.249  34.215  0.00  0.00    -0.224 NA
ATOM      2  C   UNL d   1      59.520  -9.508  33.537  0.00  0.00     0.188 A 
ATOM      3  N   UNL d   1      60.340  -9.313  33.626  0.00  0.00    -0.224 NA
ATOM      4  C   UNL d   1      59.702  -8.897  34.721  0.00  0.00     0.101 A 
ATOM      5  C   UNL d   1      60.444  -8.936  34.360  0.00  0.00     0.101 A 
ATOM      6  C   UNL d   1      59.623  -8.548  35.464  0.00  0.00     0.021 A 
ATOM      7  C   UNL d   1      61.106  -8.627  34.744  0.00  0.00     0.021 A 
ATOM      8  C   UNL d   1      60.262  -8.265  35.803  0.00  0.00     0.002 A 
ATOM      9  C   UNL d   1      61.004  -8.304  35.443  0.00  0.00     0.002 A 
ENDROOT
BRANCH   2  10
ATOM     10  C   UNL d   1      58.871  -9.806  33.171  0.00  0.00     0.161 C 
BRANCH  10  11
ATOM     11  O   UNL d   1      58.786  -9.714  32.358  0.00  0.00    -0.302 OA
BRANCH  11  12
ATOM     12  C   UNL d   1      58.316  -9.740  31.680  0.00  0.00     0.100 A 
ATOM     13  C   UNL d   1      58.667  -9.715  30.934  0.00  0.00     0.026 A 
ATOM     14  C   UNL d   1      58.200  -9.740  30.260  0.00  0.00     0.013 A 
ATOM     15  C   UNL d   1      57.377  -9.792  30.324  0.00  0.00     0.058 A 
ATOM     16  C   UNL d   1      57.027  -9.817  31.076  0.00  0.00     0.013 A 
ATOM     17 CL   UNL d   1      56.911  -9.817  29.651  0.00  0.00    -0.082 Cl
ATOM     18  C   UNL d   1      57.493  -9.791  31.749  0.00  0.00     0.026 A 
ENDBRANCH  11  12
ENDBRANCH  10  11
ENDBRANCH   2  10
TORSDOF 3
ENDMDL
MODEL 6
REMARK VINA RESULT:      -2.5      9.439     10.369
REMARK  3 active torsions:
REMARK  status: ('A' for Active; 'I' for Inactive)
REMARK    1  A    between atoms: C_6  and  C_2 
REMARK    2  A    between atoms: O_7  and  C_6 
REMARK    3  A    between atoms: C_8  and  O_7 
ROOT
ATOM      1  N   UNL d   1      59.482  -8.770  34.586  0.00  0.00    -0.224 NA
ATOM      2  C   UNL d   1      60.236  -9.024  34.374  0.00  0.00     0.188 A 
ATOM      3  N   UNL d   1      60.792  -8.601  34.853  0.00  0.00    -0.224 NA
ATOM      4  C   UNL d   1      59.569  -8.193  35.193  0.00  0.00     0.101 A 
ATOM      5  C   UNL d   1      60.372  -8.090  35.357  0.00  0.00     0.101 A 
ATOM      6  C   UNL d   1      59.005  -7.757  35.609  0.00  0.00     0.021 A 
ATOM      7  C   UNL d   1      60.609  -7.551  35.935  0.00  0.00     0.021 A 
ATOM      8  C   UNL d   1      59.255  -7.257  36.147  0.00  0.00     0.002 A 
ATOM      9  C   UNL d   1      60.058  -7.154  36.311  0.00  0.00     0.002 A 
ENDROOT
BRANCH   2  10
ATOM     10  C   UNL d   1      59.997  -9.546  33.813  0.00  0.00     0.161 C 
BRANCH  10  11
ATOM     11  O   UNL d   1      60.408  -9.595  33.103  0.00  0.00    -0.302 OA
BRANCH  11  12
ATOM     12  C   UNL d   1      60.411  -9.651  32.279  0.00  0.00     0.100 A 
ATOM     13  C   UNL d   1      61.123  -9.609  31.865  0.00  0.00     0.026 A 
ATOM     14  C   UNL d   1      61.126  -9.665  31.047  0.00  0.00     0.013 A 
ATOM     15  C   UNL d   1      60.417  -9.762  30.633  0.00  0.00     0.058 A 
ATOM     16  C   UNL d   1      59.702  -9.804  31.051  0.00  0.00     0.013 A 
ATOM     17 CL   UNL d   1      60.420  -9.817  29.815  0.00  0.00    -0.082 Cl
ATOM     18  C   UNL d   1      59.699  -9.748  31.869  0.00  0.00     0.026 A 
ENDBRANCH  11  12
ENDBRANCH  10  11
ENDBRANCH   2  10
TORSDOF 3
ENDMDL
