MODEL 1
REMARK VINA RESULT:      55.4      0.000      0.000
REMARK  7 active torsions:
REMARK  status: ('A' for Active; 'I' for Inactive)
REMARK    1  A    between atoms: C_10  and  N_2 
REMARK    2  A    between atoms: S_11  and  C_5 
REMARK    3  A    between atoms: C_12  and  C_10 
REMARK    4  A    between atoms: C_22  and  S_11 
REMARK    5  A    between atoms: C_14  and  C_22 
REMARK       I    between atoms: N_16  and  C_14 
REMARK    6  A    between atoms: C_23  and  N_16 
REMARK    7  A    between atoms: C_24  and  C_23 
ROOT
ATOM      1  C   UNL d   1      46.090 -16.811  44.006  0.00  0.00     0.104 A 
ATOM      2  N   UNL d   1      46.304 -17.899  43.114  0.00  0.00    -0.250 N 
ATOM      3  C   UNL d   1      45.791 -16.354  43.377  0.00  0.00     0.095 A 
ATOM      4  C   UNL d   1      46.345 -17.583  43.870  0.00  0.00     0.274 A 
ATOM      5  C   UNL d   1      46.006 -17.442  42.485  0.00  0.00     0.182 A 
ATOM      6  N   UNL d   1      45.751 -16.674  42.618  0.00  0.00    -0.222 NA
ATOM      7  S   UNL d   1      46.060 -16.339  44.696  0.00  0.00    -0.081 SA
ATOM      8  C   UNL d   1      45.582 -15.607  43.689  0.00  0.00     0.024 A 
ATOM      9  C   UNL d   1      45.745 -15.598  44.491  0.00  0.00     0.031 A 
ATOM     10  O   UNL d   1      46.646 -18.044  44.504  0.00  0.00    -0.266 OA
ATOM     11  C   UNL d   1      45.261 -14.937  43.328  0.00  0.00     0.002 A 
ATOM     12  C   UNL d   1      45.595 -14.928  44.953  0.00  0.00     0.006 A 
ATOM     13  C   UNL d   1      45.104 -14.257  43.772  0.00  0.00     0.000 A 
ATOM     14  C   UNL d   1      45.272 -14.255  44.588  0.00  0.00     0.001 A 
ENDROOT
BRANCH   5  15
ATOM     15  S   UNL d   1      45.964 -17.764  41.715  0.00  0.00    -0.044 SA
BRANCH  15  16
ATOM     16  C   UNL d   1      45.417 -17.450  41.163  0.00  0.00     0.101 C 
BRANCH  16  17
ATOM     17  C   UNL d   1      45.470 -17.661  40.371  0.00  0.00     0.286 C 
ATOM     18  N   UNL d   1      45.071 -17.213  39.804  0.00  0.00    -0.204 NA
ATOM     19  O   UNL d   1      45.920 -18.315  40.146  0.00  0.00    -0.265 OA
BRANCH  18  20
ATOM     20  C   UNL d   1      45.124 -17.424  39.008  0.00  0.00     0.127 C 
BRANCH  20  21
ATOM     21  C   UNL d   1      44.856 -16.905  38.429  0.00  0.00     0.119 A 
ATOM     22  O   UNL d   1      44.508 -16.158  38.397  0.00  0.00    -0.304 OA
ATOM     23  C   UNL d   1      44.381 -15.965  37.609  0.00  0.00     0.123 A 
ATOM     24  C   UNL d   1      44.653 -16.596  37.148  0.00  0.00     0.029 A 
ATOM     25  C   UNL d   1      44.943 -17.169  37.658  0.00  0.00     0.028 A 
ENDBRANCH  20  21
ENDBRANCH  18  20
ENDBRANCH  16  17
ENDBRANCH  15  16
ENDBRANCH   5  15
BRANCH   2  26
ATOM     26  C   UNL d   1      46.560 -18.677  42.973  0.00  0.00     0.110 C 
BRANCH  26  27
ATOM     27  C   UNL d   1      46.196 -19.315  43.360  0.00  0.00     0.118 A 
ATOM     28  O   UNL d   1      45.588 -19.760  43.058  0.00  0.00    -0.304 OA
ATOM     29  C   UNL d   1      45.395 -20.319  43.604  0.00  0.00     0.123 A 
ATOM     30  C   UNL d   1      45.877 -20.226  44.241  0.00  0.00     0.029 A 
ATOM     31  C   UNL d   1      46.367 -19.607  44.087  0.00  0.00     0.028 A 
ENDBRANCH  26  27
ENDBRANCH   2  26
TORSDOF 7
ENDMDL
MODEL 2
REMARK VINA RESULT:      55.6      2.708      6.675
REMARK  7 active torsions:
REMARK  status: ('A' for Active; 'I' for Inactive)
REMARK    1  A    between atoms: C_10  and  N_2 
REMARK    2  A    between atoms: S_11  and  C_5 
REMARK    3  A    between atoms: C_12  and  C_10 
REMARK    4  A    between atoms: C_22  and  S_11 
REMARK    5  A    between atoms: C_14  and  C_22 
REMARK       I    between atoms: N_16  and  C_14 
REMARK    6  A    between atoms: C_23  and  N_16 
REMARK    7  A    between atoms: C_24  and  C_23 
ROOT
ATOM      1  C   UNL d   1      43.751 -15.352  36.742  0.00  0.00     0.104 A 
ATOM      2  N   UNL d   1      45.045 -15.739  37.191  0.00  0.00    -0.250 N 
ATOM      3  C   UNL d   1      43.415 -15.986  37.166  0.00  0.00     0.095 A 
ATOM      4  C   UNL d   1      44.566 -15.233  36.758  0.00  0.00     0.274 A 
ATOM      5  C   UNL d   1      44.709 -16.373  37.614  0.00  0.00     0.182 A 
ATOM      6  N   UNL d   1      43.898 -16.494  37.600  0.00  0.00    -0.222 NA
ATOM      7  S   UNL d   1      43.126 -14.945  36.363  0.00  0.00    -0.081 SA
ATOM      8  C   UNL d   1      42.588 -15.960  37.041  0.00  0.00     0.024 A 
ATOM      9  C   UNL d   1      42.413 -15.326  36.553  0.00  0.00     0.031 A 
ATOM     10  O   UNL d   1      44.904 -14.594  36.332  0.00  0.00    -0.266 OA
ATOM     11  C   UNL d   1      41.980 -16.444  37.320  0.00  0.00     0.002 A 
ATOM     12  C   UNL d   1      41.634 -15.157  36.330  0.00  0.00     0.006 A 
ATOM     13  C   UNL d   1      41.194 -16.292  37.108  0.00  0.00     0.000 A 
ATOM     14  C   UNL d   1      41.023 -15.645  36.611  0.00  0.00     0.001 A 
ENDROOT
BRANCH   5  15
ATOM     15  S   UNL d   1      45.196 -16.888  38.055  0.00  0.00    -0.044 SA
BRANCH  15  16
ATOM     16  C   UNL d   1      45.035 -17.020  38.867  0.00  0.00     0.101 C 
BRANCH  16  17
ATOM     17  C   UNL d   1      45.303 -17.705  39.231  0.00  0.00     0.286 C 
ATOM     18  N   UNL d   1      45.663 -17.657  39.973  0.00  0.00    -0.204 NA
ATOM     19  O   UNL d   1      45.214 -18.435  38.857  0.00  0.00    -0.265 OA
BRANCH  18  20
ATOM     20  C   UNL d   1      45.933 -18.345  40.339  0.00  0.00     0.127 C 
BRANCH  20  21
ATOM     21  C   UNL d   1      45.950 -18.392  41.160  0.00  0.00     0.119 A 
ATOM     22  O   UNL d   1      45.481 -18.144  41.792  0.00  0.00    -0.304 OA
ATOM     23  C   UNL d   1      45.839 -18.386  42.490  0.00  0.00     0.123 A 
ATOM     24  C   UNL d   1      46.535 -18.787  42.291  0.00  0.00     0.029 A 
ATOM     25  C   UNL d   1      46.596 -18.787  41.472  0.00  0.00     0.028 A 
ENDBRANCH  20  21
ENDBRANCH  18  20
ENDBRANCH  16  17
ENDBRANCH  15  16
ENDBRANCH   5  15
BRANCH   2  26
ATOM     26  C   UNL d   1      45.867 -15.621  37.209  0.00  0.00     0.110 C 
BRANCH  26  27
ATOM     27  C   UNL d   1      46.179 -14.861  37.326  0.00  0.00     0.118 A 
ATOM     28  O   UNL d   1      46.357 -14.333  36.736  0.00  0.00    -0.304 OA
ATOM     29  C   UNL d   1      46.645 -13.664  37.081  0.00  0.00     0.123 A 
ATOM     30  C   UNL d   1      46.647 -13.773  37.878  0.00  0.00     0.029 A 
ATOM     31  C   UNL d   1      46.359 -14.510  38.024  0.00  0.00     0.028 A 
ENDBRANCH  26  27
ENDBRANCH   2  26
TORSDOF 7
ENDMDL
