MODEL 1
REMARK VINA RESULT:      83.5      0.000      0.000
REMARK  8 active torsions:
REMARK  status: ('A' for Active; 'I' for Inactive)
REMARK    1  A    between atoms: N_7  and  N_1 
REMARK    2  A    between atoms: S_9  and  C_2 
REMARK       I    between atoms: C_8  and  N_7 
REMARK    3  A    between atoms: C_21  and  C_8 
REMARK    4  A    between atoms: C_20  and  S_9 
REMARK    5  A    between atoms: C_10  and  C_20 
REMARK       I    between atoms: N_14  and  C_10 
REMARK    6  A    between atoms: C_12  and  C_22 
REMARK    7  A    between atoms: C_22  and  N_14 
REMARK    8  A    between atoms: C_24  and  C_21 
ROOT
ATOM      1  N   UNL d   1     -50.241  27.238  34.574  0.00  0.00    -0.168 N 
ATOM      2  C   UNL d   1     -50.115  27.153  35.378  0.00  0.00     0.199 A 
ATOM      3  C   UNL d   1     -49.747  27.741  34.123  0.00  0.00     0.283 A 
ATOM      4  N   UNL d   1     -49.490  27.569  35.757  0.00  0.00    -0.221 NA
ATOM      5  C   UNL d   1     -49.123  28.155  34.508  0.00  0.00     0.076 A 
ATOM      6  C   UNL d   1     -49.002  28.064  35.320  0.00  0.00     0.088 A 
ATOM      7  O   UNL d   1     -49.875  27.827  33.312  0.00  0.00    -0.265 OA
ATOM      8  C   UNL d   1     -48.637  28.651  34.058  0.00  0.00     0.006 A 
ATOM      9  C   UNL d   1     -48.382  28.480  35.679  0.00  0.00     0.019 A 
ATOM     10  C   UNL d   1     -48.025  29.058  34.431  0.00  0.00     0.000 A 
ATOM     11  C   UNL d   1     -47.897  28.972  35.243  0.00  0.00     0.002 A 
ENDROOT
BRANCH   2  12
ATOM     12  S   UNL d   1     -50.589  26.668  35.817  0.00  0.00    -0.043 SA
BRANCH  12  13
ATOM     13  C   UNL d   1     -51.069  26.980  36.409  0.00  0.00     0.101 C 
BRANCH  13  14
ATOM     14  C   UNL d   1     -51.069  26.643  37.162  0.00  0.00     0.286 C 
ATOM     15  N   UNL d   1     -51.775  26.553  37.573  0.00  0.00    -0.204 NA
ATOM     16  O   UNL d   1     -50.356  26.396  37.506  0.00  0.00    -0.265 OA
BRANCH  15  17
ATOM     17  C   UNL d   1     -51.766  26.214  38.327  0.00  0.00     0.127 C 
BRANCH  17  18
ATOM     18  C   UNL d   1     -52.334  25.636  38.516  0.00  0.00     0.119 A 
ATOM     19  O   UNL d   1     -53.147  25.726  38.477  0.00  0.00    -0.304 OA
ATOM     20  C   UNL d   1     -53.494  25.015  38.714  0.00  0.00     0.123 A 
ATOM     21  C   UNL d   1     -52.889  24.482  38.901  0.00  0.00     0.029 A 
ATOM     22  C   UNL d   1     -52.166  24.869  38.777  0.00  0.00     0.028 A 
ENDBRANCH  17  18
ENDBRANCH  15  17
ENDBRANCH  13  14
ENDBRANCH  12  13
ENDBRANCH   2  12
BRANCH   1  23
ATOM     23  N   UNL d   1     -50.843  26.839  34.206  0.00  0.00    -0.119 NA
ATOM     24  C   UNL d   1     -50.669  26.217  33.685  0.00  0.00     0.296 C 
ATOM     25  O   UNL d   1     -49.884  26.009  33.545  0.00  0.00    -0.264 OA
BRANCH  24  26
ATOM     26  C   UNL d   1     -51.281  25.810  33.310  0.00  0.00     0.064 C 
BRANCH  26  27
ATOM     27  C   UNL d   1     -51.286  24.991  33.314  0.00  0.00     0.005 A 
ATOM     28  C   UNL d   1     -50.574  24.589  33.317  0.00  0.00     0.000 A 
ATOM     29  C   UNL d   1     -50.579  23.763  33.321  0.00  0.00     0.000 A 
ATOM     30  C   UNL d   1     -51.290  23.356  33.322  0.00  0.00     0.000 A 
ATOM     31  C   UNL d   1     -51.997  23.775  33.319  0.00  0.00     0.000 A 
ATOM     32  C   UNL d   1     -51.992  24.584  33.315  0.00  0.00     0.000 A 
ENDBRANCH  26  27
ENDBRANCH  24  26
ENDBRANCH   1  23
TORSDOF 8
ENDMDL
MODEL 2
REMARK VINA RESULT:      85.6      1.116      1.619
REMARK  8 active torsions:
REMARK  status: ('A' for Active; 'I' for Inactive)
REMARK    1  A    between atoms: N_7  and  N_1 
REMARK    2  A    between atoms: S_9  and  C_2 
REMARK       I    between atoms: C_8  and  N_7 
REMARK    3  A    between atoms: C_21  and  C_8 
REMARK    4  A    between atoms: C_20  and  S_9 
REMARK    5  A    between atoms: C_10  and  C_20 
REMARK       I    between atoms: N_14  and  C_10 
REMARK    6  A    between atoms: C_12  and  C_22 
REMARK    7  A    between atoms: C_22  and  N_14 
REMARK    8  A    between atoms: C_24  and  C_21 
ROOT
ATOM      1  N   UNL d   1     -49.038  27.633  35.256  0.00  0.00    -0.168 N 
ATOM      2  C   UNL d   1     -49.329  27.903  35.972  0.00  0.00     0.199 A 
ATOM      3  C   UNL d   1     -48.391  28.023  34.893  0.00  0.00     0.283 A 
ATOM      4  N   UNL d   1     -48.983  28.570  36.348  0.00  0.00    -0.221 NA
ATOM      5  C   UNL d   1     -48.049  28.691  35.275  0.00  0.00     0.076 A 
ATOM      6  C   UNL d   1     -48.349  28.956  35.998  0.00  0.00     0.088 A 
ATOM      7  O   UNL d   1     -48.097  27.751  34.171  0.00  0.00    -0.265 OA
ATOM      8  C   UNL d   1     -47.410  29.073  34.912  0.00  0.00     0.006 A 
ATOM      9  C   UNL d   1     -47.997  29.616  36.356  0.00  0.00     0.019 A 
ATOM     10  C   UNL d   1     -47.072  29.727  35.283  0.00  0.00     0.000 A 
ATOM     11  C   UNL d   1     -47.366  29.999  36.005  0.00  0.00     0.002 A 
ENDROOT
BRANCH   2  12
ATOM     12  S   UNL d   1     -49.952  27.530  36.326  0.00  0.00    -0.043 SA
BRANCH  12  13
ATOM     13  C   UNL d   1     -49.846  27.118  37.030  0.00  0.00     0.101 C 
BRANCH  13  14
ATOM     14  C   UNL d   1     -50.431  27.137  37.612  0.00  0.00     0.286 C 
ATOM     15  N   UNL d   1     -50.972  26.521  37.671  0.00  0.00    -0.204 NA
ATOM     16  O   UNL d   1     -50.473  27.777  38.138  0.00  0.00    -0.265 OA
BRANCH  15  17
ATOM     17  C   UNL d   1     -51.555  26.547  38.256  0.00  0.00     0.127 C 
BRANCH  17  18
ATOM     18  C   UNL d   1     -52.003  25.863  38.410  0.00  0.00     0.119 A 
ATOM     19  O   UNL d   1     -51.850  25.305  38.990  0.00  0.00    -0.304 OA
ATOM     20  C   UNL d   1     -52.433  24.722  38.944  0.00  0.00     0.123 A 
ATOM     21  C   UNL d   1     -52.950  24.922  38.329  0.00  0.00     0.029 A 
ATOM     22  C   UNL d   1     -52.682  25.633  37.997  0.00  0.00     0.028 A 
ENDBRANCH  17  18
ENDBRANCH  15  17
ENDBRANCH  13  14
ENDBRANCH  12  13
ENDBRANCH   2  12
BRANCH   1  23
ATOM     23  N   UNL d   1     -49.369  26.990  34.891  0.00  0.00    -0.119 NA
ATOM     24  C   UNL d   1     -49.641  27.052  34.110  0.00  0.00     0.296 C 
ATOM     25  O   UNL d   1     -49.572  27.768  33.709  0.00  0.00    -0.264 OA
BRANCH  24  26
ATOM     26  C   UNL d   1     -49.978  26.397  33.738  0.00  0.00     0.064 C 
BRANCH  26  27
ATOM     27  C   UNL d   1     -50.784  26.383  33.593  0.00  0.00     0.005 A 
ATOM     28  C   UNL d   1     -51.176  25.666  33.595  0.00  0.00     0.000 A 
ATOM     29  C   UNL d   1     -51.989  25.652  33.449  0.00  0.00     0.000 A 
ATOM     30  C   UNL d   1     -52.393  26.350  33.305  0.00  0.00     0.000 A 
ATOM     31  C   UNL d   1     -51.985  27.063  33.307  0.00  0.00     0.000 A 
ATOM     32  C   UNL d   1     -51.188  27.076  33.450  0.00  0.00     0.000 A 
ENDBRANCH  26  27
ENDBRANCH  24  26
ENDBRANCH   1  23
TORSDOF 8
ENDMDL
MODEL 3
REMARK VINA RESULT:      85.7      1.774      4.679
REMARK  8 active torsions:
REMARK  status: ('A' for Active; 'I' for Inactive)
REMARK    1  A    between atoms: N_7  and  N_1 
REMARK    2  A    between atoms: S_9  and  C_2 
REMARK       I    between atoms: C_8  and  N_7 
REMARK    3  A    between atoms: C_21  and  C_8 
REMARK    4  A    between atoms: C_20  and  S_9 
REMARK    5  A    between atoms: C_10  and  C_20 
REMARK       I    between atoms: N_14  and  C_10 
REMARK    6  A    between atoms: C_12  and  C_22 
REMARK    7  A    between atoms: C_22  and  N_14 
REMARK    8  A    between atoms: C_24  and  C_21 
ROOT
ATOM      1  N   UNL d   1     -50.179  26.991  36.013  0.00  0.00    -0.168 N 
ATOM      2  C   UNL d   1     -49.745  27.625  36.292  0.00  0.00     0.199 A 
ATOM      3  C   UNL d   1     -50.733  26.609  36.512  0.00  0.00     0.283 A 
ATOM      4  N   UNL d   1     -49.850  27.899  37.080  0.00  0.00    -0.221 NA
ATOM      5  C   UNL d   1     -50.833  26.888  37.301  0.00  0.00     0.076 A 
ATOM      6  C   UNL d   1     -50.391  27.530  37.574  0.00  0.00     0.088 A 
ATOM      7  O   UNL d   1     -51.171  25.969  36.230  0.00  0.00    -0.265 OA
ATOM      8  C   UNL d   1     -51.382  26.508  37.790  0.00  0.00     0.006 A 
ATOM      9  C   UNL d   1     -50.506  27.788  38.353  0.00  0.00     0.019 A 
ATOM     10  C   UNL d   1     -51.483  26.778  38.563  0.00  0.00     0.000 A 
ATOM     11  C   UNL d   1     -51.045  27.419  38.845  0.00  0.00     0.002 A 
ENDROOT
BRANCH   2  12
ATOM     12  S   UNL d   1     -49.209  27.996  35.814  0.00  0.00    -0.043 SA
BRANCH  12  13
ATOM     13  C   UNL d   1     -48.659  28.519  36.132  0.00  0.00     0.101 C 
BRANCH  13  14
ATOM     14  C   UNL d   1     -48.110  28.890  35.640  0.00  0.00     0.286 C 
ATOM     15  N   UNL d   1     -48.039  29.709  35.648  0.00  0.00    -0.204 NA
ATOM     16  O   UNL d   1     -47.629  28.438  35.138  0.00  0.00    -0.265 OA
BRANCH  15  17
ATOM     17  C   UNL d   1     -47.487  30.074  35.153  0.00  0.00     0.127 C 
BRANCH  17  18
ATOM     18  C   UNL d   1     -47.467  30.905  35.114  0.00  0.00     0.119 A 
ATOM     19  O   UNL d   1     -46.959  31.396  35.528  0.00  0.00    -0.304 OA
ATOM     20  C   UNL d   1     -47.133  32.177  35.322  0.00  0.00     0.123 A 
ATOM     21  C   UNL d   1     -47.754  32.166  34.775  0.00  0.00     0.029 A 
ATOM     22  C   UNL d   1     -47.962  31.374  34.646  0.00  0.00     0.028 A 
ENDBRANCH  17  18
ENDBRANCH  15  17
ENDBRANCH  13  14
ENDBRANCH  12  13
ENDBRANCH   2  12
BRANCH   1  23
ATOM     23  N   UNL d   1     -50.080  26.724  35.254  0.00  0.00    -0.119 NA
ATOM     24  C   UNL d   1     -50.708  26.771  34.713  0.00  0.00     0.296 C 
ATOM     25  O   UNL d   1     -51.430  27.088  34.953  0.00  0.00    -0.264 OA
BRANCH  24  26
ATOM     26  C   UNL d   1     -50.608  26.500  33.941  0.00  0.00     0.064 C 
BRANCH  26  27
ATOM     27  C   UNL d   1     -50.893  25.761  33.729  0.00  0.00     0.005 A 
ATOM     28  C   UNL d   1     -50.361  25.165  33.556  0.00  0.00     0.000 A 
ATOM     29  C   UNL d   1     -50.648  24.420  33.343  0.00  0.00     0.000 A 
ATOM     30  C   UNL d   1     -51.456  24.285  33.307  0.00  0.00     0.000 A 
ATOM     31  C   UNL d   1     -51.977  24.896  33.484  0.00  0.00     0.000 A 
ATOM     32  C   UNL d   1     -51.695  25.625  33.693  0.00  0.00     0.000 A 
ENDBRANCH  26  27
ENDBRANCH  24  26
ENDBRANCH   1  23
TORSDOF 8
ENDMDL
MODEL 4
REMARK VINA RESULT:      86.2      2.933      5.852
REMARK  8 active torsions:
REMARK  status: ('A' for Active; 'I' for Inactive)
REMARK    1  A    between atoms: N_7  and  N_1 
REMARK    2  A    between atoms: S_9  and  C_2 
REMARK       I    between atoms: C_8  and  N_7 
REMARK    3  A    between atoms: C_21  and  C_8 
REMARK    4  A    between atoms: C_20  and  S_9 
REMARK    5  A    between atoms: C_10  and  C_20 
REMARK       I    between atoms: N_14  and  C_10 
REMARK    6  A    between atoms: C_12  and  C_22 
REMARK    7  A    between atoms: C_22  and  N_14 
REMARK    8  A    between atoms: C_24  and  C_21 
ROOT
ATOM      1  N   UNL d   1     -47.608  30.013  35.389  0.00  0.00    -0.168 N 
ATOM      2  C   UNL d   1     -48.111  29.368  35.399  0.00  0.00     0.199 A 
ATOM      3  C   UNL d   1     -47.291  30.308  36.106  0.00  0.00     0.283 A 
ATOM      4  N   UNL d   1     -48.315  28.998  36.126  0.00  0.00    -0.221 NA
ATOM      5  C   UNL d   1     -47.499  29.934  36.831  0.00  0.00     0.076 A 
ATOM      6  C   UNL d   1     -48.009  29.284  36.832  0.00  0.00     0.088 A 
ATOM      7  O   UNL d   1     -46.783  30.959  36.096  0.00  0.00    -0.265 OA
ATOM      8  C   UNL d   1     -47.184  30.230  37.537  0.00  0.00     0.006 A 
ATOM      9  C   UNL d   1     -48.200  28.930  37.557  0.00  0.00     0.019 A 
ATOM     10  C   UNL d   1     -47.385  29.867  38.249  0.00  0.00     0.000 A 
ATOM     11  C   UNL d   1     -47.894  29.216  38.259  0.00  0.00     0.002 A 
ENDROOT
BRANCH   2  12
ATOM     12  S   UNL d   1     -48.419  29.079  34.710  0.00  0.00    -0.043 SA
BRANCH  12  13
ATOM     13  C   UNL d   1     -48.846  28.375  34.708  0.00  0.00     0.101 C 
BRANCH  13  14
ATOM     14  C   UNL d   1     -49.204  28.111  34.013  0.00  0.00     0.286 C 
ATOM     15  N   UNL d   1     -49.635  27.412  34.012  0.00  0.00    -0.204 NA
ATOM     16  O   UNL d   1     -49.129  28.551  33.314  0.00  0.00    -0.265 OA
BRANCH  15  17
ATOM     17  C   UNL d   1     -49.990  27.154  33.312  0.00  0.00     0.127 C 
BRANCH  17  18
ATOM     18  C   UNL d   1     -50.603  26.592  33.353  0.00  0.00     0.119 A 
ATOM     19  O   UNL d   1     -51.406  26.752  33.353  0.00  0.00    -0.304 OA
ATOM     20  C   UNL d   1     -51.810  26.033  33.402  0.00  0.00     0.123 A 
ATOM     21  C   UNL d   1     -51.250  25.424  33.432  0.00  0.00     0.029 A 
ATOM     22  C   UNL d   1     -50.498  25.773  33.402  0.00  0.00     0.028 A 
ENDBRANCH  17  18
ENDBRANCH  15  17
ENDBRANCH  13  14
ENDBRANCH  12  13
ENDBRANCH   2  12
BRANCH   1  23
ATOM     23  N   UNL d   1     -47.409  30.371  34.690  0.00  0.00    -0.119 NA
ATOM     24  C   UNL d   1     -47.353  31.198  34.649  0.00  0.00     0.296 C 
ATOM     25  O   UNL d   1     -47.500  31.650  35.322  0.00  0.00    -0.264 OA
BRANCH  24  26
ATOM     26  C   UNL d   1     -47.151  31.563  33.938  0.00  0.00     0.064 C 
BRANCH  26  27
ATOM     27  C   UNL d   1     -47.507  32.271  33.730  0.00  0.00     0.005 A 
ATOM     28  C   UNL d   1     -47.063  32.958  33.746  0.00  0.00     0.000 A 
ATOM     29  C   UNL d   1     -47.422  33.673  33.537  0.00  0.00     0.000 A 
ATOM     30  C   UNL d   1     -48.211  33.688  33.317  0.00  0.00     0.000 A 
ATOM     31  C   UNL d   1     -48.642  32.989  33.306  0.00  0.00     0.000 A 
ATOM     32  C   UNL d   1     -48.291  32.289  33.511  0.00  0.00     0.000 A 
ENDBRANCH  26  27
ENDBRANCH  24  26
ENDBRANCH   1  23
TORSDOF 8
ENDMDL
