MODEL 1
REMARK VINA RESULT:      -2.3      0.000      0.000
REMARK  0 active torsions:
REMARK  status: ('A' for Active; 'I' for Inactive)
ROOT
ATOM      1  C   UNL d   1      22.980  13.230  -0.257  0.00  0.00     0.286 A 
ATOM      2  N   UNL d   1      23.386  13.872  -0.027  0.00  0.00    -0.170 NA
ATOM      3  C   UNL d   1      23.450  12.807  -0.781  0.00  0.00     0.066 A 
ATOM      4  S   UNL d   1      24.117  13.896  -0.381  0.00  0.00     0.017 SA
ATOM      5  C   UNL d   1      24.174  13.231  -0.860  0.00  0.00     0.052 A 
ATOM      6  O   UNL d   1      22.227  13.018  -0.020  0.00  0.00    -0.265 OA
ATOM      7  C   UNL d   1      23.331  12.108  -1.194  0.00  0.00     0.005 A 
ATOM      8  C   UNL d   1      24.768  12.949  -1.352  0.00  0.00     0.008 A 
ATOM      9  C   UNL d   1      23.928  11.820  -1.691  0.00  0.00     0.000 A 
ATOM     10  C   UNL d   1      24.652  12.244  -1.771  0.00  0.00     0.001 A 
ENDROOT
TORSDOF 0
ENDMDL
MODEL 2
REMARK VINA RESULT:      -1.6      1.691      2.280
REMARK  0 active torsions:
REMARK  status: ('A' for Active; 'I' for Inactive)
ROOT
ATOM      1  C   UNL d   1      24.257  12.283  -1.900  0.00  0.00     0.286 A 
ATOM      2  N   UNL d   1      23.664  11.785  -1.728  0.00  0.00    -0.170 NA
ATOM      3  C   UNL d   1      24.273  12.868  -1.323  0.00  0.00     0.066 A 
ATOM      4  S   UNL d   1      23.278  12.015  -1.051  0.00  0.00     0.017 SA
ATOM      5  C   UNL d   1      23.649  12.697  -0.782  0.00  0.00     0.052 A 
ATOM      6  O   UNL d   1      24.767  12.233  -2.537  0.00  0.00    -0.265 OA
ATOM      7  C   UNL d   1      24.755  13.522  -1.208  0.00  0.00     0.005 A 
ATOM      8  C   UNL d   1      23.517  13.184  -0.135  0.00  0.00     0.008 A 
ATOM      9  C   UNL d   1      24.624  14.016  -0.556  0.00  0.00     0.000 A 
ATOM     10  C   UNL d   1      24.001  13.845  -0.015  0.00  0.00     0.001 A 
ENDROOT
TORSDOF 0
ENDMDL
