MODEL 1
REMARK VINA RESULT:       9.4      0.000      0.000
REMARK  3 active torsions:
REMARK  status: ('A' for Active; 'I' for Inactive)
REMARK    1  A    between atoms: C_4  and  S_13 
REMARK    2  A    between atoms: C_16  and  C_6 
REMARK    3  A    between atoms: S_13  and  C_16 
ROOT
ATOM      1  C   UNL d   1      45.927 -16.831  43.910  0.00  0.00     0.059 C 
ENDROOT
BRANCH   1   2
ATOM      2  S   UNL d   1      45.668 -16.451  44.576  0.00  0.00    -0.046 SA
BRANCH   2   3
ATOM      3  C   UNL d   1      45.696 -15.627  44.603  0.00  0.00     0.194 A 
ATOM      4  N   UNL d   1      46.259 -15.090  44.874  0.00  0.00    -0.220 NA
ATOM      5  C   UNL d   1      45.972 -14.334  44.753  0.00  0.00     0.101 A 
ATOM      6  C   UNL d   1      46.294 -13.601  44.915  0.00  0.00     0.021 A 
ATOM      7  C   UNL d   1      45.251 -14.395  44.416  0.00  0.00     0.101 A 
ATOM      8  C   UNL d   1      45.893 -12.915  44.740  0.00  0.00     0.002 A 
ATOM      9  C   UNL d   1      45.138 -12.953  44.387  0.00  0.00     0.002 A 
ATOM     10  C   UNL d   1      44.811 -13.716  44.222  0.00  0.00     0.021 A 
ATOM     11  N   UNL d   1      45.047 -15.197  44.307  0.00  0.00    -0.220 NA
ENDBRANCH   2   3
ENDBRANCH   1   2
BRANCH   1  12
ATOM     12  C   UNL d   1      46.090 -17.630  43.940  0.00  0.00     0.107 A 
ATOM     13  C   UNL d   1      46.194 -18.131  43.307  0.00  0.00     0.101 A 
ATOM     14  N   UNL d   1      46.350 -18.896  43.563  0.00  0.00    -0.289 N 
ATOM     15  C   UNL d   1      46.343 -18.874  44.392  0.00  0.00     0.148 A 
ATOM     16  C   UNL d   1      46.499 -19.622  43.174  0.00  0.00     0.066 A 
ATOM     17  N   UNL d   1      46.183 -18.093  44.634  0.00  0.00    -0.226 NA
ATOM     18  C   UNL d   1      46.482 -19.561  44.826  0.00  0.00     0.037 A 
ATOM     19  C   UNL d   1      46.630 -20.282  44.429  0.00  0.00     0.005 A 
ATOM     20  C   UNL d   1      46.637 -20.305  43.602  0.00  0.00     0.018 A 
ATOM     21  C   UNL d   1      46.505 -19.640  42.339  0.00  0.00     0.019 C 
ENDBRANCH   1  12
TORSDOF 3
ENDMDL
MODEL 2
REMARK VINA RESULT:      11.6      0.539      5.158
REMARK  3 active torsions:
REMARK  status: ('A' for Active; 'I' for Inactive)
REMARK    1  A    between atoms: C_4  and  S_13 
REMARK    2  A    between atoms: C_16  and  C_6 
REMARK    3  A    between atoms: S_13  and  C_16 
ROOT
ATOM      1  C   UNL d   1      45.572 -16.301  44.161  0.00  0.00     0.059 C 
ENDROOT
BRANCH   1   2
ATOM      2  S   UNL d   1      46.145 -16.789  44.460  0.00  0.00    -0.046 SA
BRANCH   2   3
ATOM      3  C   UNL d   1      46.226 -17.548  44.148  0.00  0.00     0.194 A 
ATOM      4  N   UNL d   1      46.280 -17.840  43.379  0.00  0.00    -0.220 NA
ATOM      5  C   UNL d   1      46.354 -18.654  43.419  0.00  0.00     0.101 A 
ATOM      6  C   UNL d   1      46.427 -19.219  42.833  0.00  0.00     0.021 A 
ATOM      7  C   UNL d   1      46.347 -18.866  44.189  0.00  0.00     0.101 A 
ATOM      8  C   UNL d   1      46.494 -20.009  43.015  0.00  0.00     0.002 A 
ATOM      9  C   UNL d   1      46.488 -20.255  43.813  0.00  0.00     0.002 A 
ATOM     10  C   UNL d   1      46.413 -19.664  44.414  0.00  0.00     0.021 A 
ATOM     11  N   UNL d   1      46.267 -18.192  44.675  0.00  0.00    -0.220 NA
ENDBRANCH   2   3
ENDBRANCH   1   2
BRANCH   1  12
ATOM     12  C   UNL d   1      45.634 -15.495  44.268  0.00  0.00     0.107 A 
ATOM     13  C   UNL d   1      45.122 -14.925  43.992  0.00  0.00     0.101 A 
ATOM     14  N   UNL d   1      45.373 -14.175  44.214  0.00  0.00    -0.289 N 
ATOM     15  C   UNL d   1      46.072 -14.279  44.647  0.00  0.00     0.148 A 
ATOM     16  C   UNL d   1      45.077 -13.402  44.093  0.00  0.00     0.066 A 
ATOM     17  N   UNL d   1      46.242 -15.094  44.685  0.00  0.00    -0.226 NA
ATOM     18  C   UNL d   1      46.470 -13.625  44.954  0.00  0.00     0.037 A 
ATOM     19  C   UNL d   1      46.169 -12.856  44.828  0.00  0.00     0.005 A 
ATOM     20  C   UNL d   1      45.470 -12.752  44.395  0.00  0.00     0.018 A 
ATOM     21  C   UNL d   1      44.372 -13.301  43.656  0.00  0.00     0.019 C 
ENDBRANCH   1  12
TORSDOF 3
ENDMDL
