MODEL 1
REMARK VINA RESULT:       3.4      0.000      0.000
REMARK  4 active torsions:
REMARK  status: ('A' for Active; 'I' for Inactive)
REMARK    1  A    between atoms: C_2  and  C_1 
REMARK    2  A    between atoms: C_3  and  C_2 
REMARK    3  A    between atoms: C_5  and  C_3 
REMARK    4  A    between atoms: O_12  and  C_7 
ROOT
ATOM      1  C   UNL d   1      24.410  12.422  -2.260  0.00  0.00     0.000 A 
ATOM      2  C   UNL d   1      23.684  12.738  -0.811  0.00  0.00     0.094 A 
ATOM      3  C   UNL d   1      23.688  12.825  -2.236  0.00  0.00     0.002 A 
ATOM      4  C   UNL d   1      24.768  12.178  -1.556  0.00  0.00     0.002 A 
ATOM      5  C   UNL d   1      23.326  12.982  -1.515  0.00  0.00     0.024 A 
ATOM      6  C   UNL d   1      24.401  12.338  -0.831  0.00  0.00     0.024 A 
ENDROOT
BRANCH   1   7
ATOM      7  C   UNL d   1      24.767  12.268  -2.988  0.00  0.00     0.006 C 
BRANCH   7   8
ATOM      8  C   UNL d   1      24.298  12.193  -3.663  0.00  0.00     0.070 C 
BRANCH   8   9
ATOM      9  C   UNL d   1      24.607  12.382  -4.400  0.00  0.00     0.211 C 
ATOM     10  O   UNL d   1      24.765  11.785  -4.942  0.00  0.00    -0.644 OA
ATOM     11  O   UNL d   1      24.759  13.164  -4.593  0.00  0.00    -0.644 OA
ENDBRANCH   8   9
ENDBRANCH   7   8
ENDBRANCH   1   7
BRANCH   2  12
ATOM     12  O   UNL d   1      23.324  12.895  -0.091  0.00  0.00    -0.328 OA
ATOM     13  C   UNL d   1      22.699  13.429  -0.050  0.00  0.00     0.181 C 
ENDBRANCH   2  12
TORSDOF 4
ENDMDL
MODEL 2
REMARK VINA RESULT:       4.3      9.471     10.313
REMARK  4 active torsions:
REMARK  status: ('A' for Active; 'I' for Inactive)
REMARK    1  A    between atoms: C_2  and  C_1 
REMARK    2  A    between atoms: C_3  and  C_2 
REMARK    3  A    between atoms: C_5  and  C_3 
REMARK    4  A    between atoms: O_12  and  C_7 
ROOT
ATOM      1  C   UNL d   1      13.658  12.118  -2.320  0.00  0.00     0.000 A 
ATOM      2  C   UNL d   1      14.534  12.224  -0.924  0.00  0.00     0.094 A 
ATOM      3  C   UNL d   1      13.369  11.783  -1.621  0.00  0.00     0.002 A 
ATOM      4  C   UNL d   1      14.388  12.506  -2.317  0.00  0.00     0.002 A 
ATOM      5  C   UNL d   1      13.804  11.836  -0.927  0.00  0.00     0.024 A 
ATOM      6  C   UNL d   1      14.824  12.558  -1.616  0.00  0.00     0.024 A 
ENDROOT
BRANCH   1   7
ATOM      7  C   UNL d   1      13.215  12.060  -3.014  0.00  0.00     0.006 C 
BRANCH   7   8
ATOM      8  C   UNL d   1      13.595  12.126  -3.744  0.00  0.00     0.070 C 
BRANCH   8   9
ATOM      9  C   UNL d   1      13.162  12.318  -4.415  0.00  0.00     0.211 C 
ATOM     10  O   UNL d   1      13.106  11.780  -5.034  0.00  0.00    -0.644 OA
ATOM     11  O   UNL d   1      12.786  13.045  -4.467  0.00  0.00    -0.644 OA
ENDBRANCH   8   9
ENDBRANCH   7   8
ENDBRANCH   1   7
BRANCH   2  12
ATOM     12  O   UNL d   1      14.969  12.278  -0.230  0.00  0.00    -0.328 OA
ATOM     13  C   UNL d   1      15.425  12.946  -0.080  0.00  0.00     0.181 C 
ENDBRANCH   2  12
TORSDOF 4
ENDMDL
MODEL 3
REMARK VINA RESULT:       5.8      9.558     10.738
REMARK  4 active torsions:
REMARK  status: ('A' for Active; 'I' for Inactive)
REMARK    1  A    between atoms: C_2  and  C_1 
REMARK    2  A    between atoms: C_3  and  C_2 
REMARK    3  A    between atoms: C_5  and  C_3 
REMARK    4  A    between atoms: O_12  and  C_7 
ROOT
ATOM      1  C   UNL d   1      13.915  11.782  -2.463  0.00  0.00     0.000 A 
ATOM      2  C   UNL d   1      13.259  11.781  -3.978  0.00  0.00     0.094 A 
ATOM      3  C   UNL d   1      14.407  11.783  -3.128  0.00  0.00     0.002 A 
ATOM      4  C   UNL d   1      13.094  11.780  -2.559  0.00  0.00     0.002 A 
ATOM      5  C   UNL d   1      14.081  11.783  -3.882  0.00  0.00     0.024 A 
ATOM      6  C   UNL d   1      12.769  11.779  -3.320  0.00  0.00     0.024 A 
ENDROOT
BRANCH   1   7
ATOM      7  C   UNL d   1      14.250  11.782  -1.708  0.00  0.00     0.006 C 
BRANCH   7   8
ATOM      8  C   UNL d   1      14.296  12.489  -1.284  0.00  0.00     0.070 C 
BRANCH   8   9
ATOM      9  C   UNL d   1      14.762  12.533  -0.611  0.00  0.00     0.211 C 
ATOM     10  O   UNL d   1      14.768  11.909  -0.075  0.00  0.00    -0.644 OA
ATOM     11  O   UNL d   1      15.221  13.197  -0.472  0.00  0.00    -0.644 OA
ENDBRANCH   8   9
ENDBRANCH   7   8
ENDBRANCH   1   7
BRANCH   2  12
ATOM     12  O   UNL d   1      12.934  11.780  -4.731  0.00  0.00    -0.328 OA
ATOM     13  C   UNL d   1      13.378  12.042  -5.373  0.00  0.00     0.181 C 
ENDBRANCH   2  12
TORSDOF 4
ENDMDL
