MODEL 1
REMARK VINA RESULT:      -8.5      0.000      0.000
REMARK  3 active torsions:
REMARK  status: ('A' for Active; 'I' for Inactive)
REMARK    1  A    between atoms: S_9  and  C_3 
REMARK    2  A    between atoms: C_15  and  S_9 
REMARK    3  A    between atoms: C_11  and  C_15 
ROOT
ATOM      1  N   UNL d   1      53.341  33.298  54.049  0.00  0.00    -0.263 N 
ATOM      2  C   UNL d   1      53.748  33.808  54.566  0.00  0.00     0.202 A 
ATOM      3  C   UNL d   1      53.689  32.545  54.128  0.00  0.00     0.202 A 
ATOM      4  N   UNL d   1      54.333  33.381  54.956  0.00  0.00    -0.121 NA
ATOM      5  S   UNL d   1      53.399  34.568  54.489  0.00  0.00    -0.047 SA
ATOM      6  N   UNL d   1      54.295  32.595  54.682  0.00  0.00    -0.121 NA
ATOM      7  C   UNL d   1      52.756  33.732  53.661  0.00  0.00     0.074 A 
ATOM      8  C   UNL d   1      52.787  34.513  53.928  0.00  0.00     0.049 A 
ATOM      9  C   UNL d   1      52.198  33.511  53.097  0.00  0.00     0.018 A 
ATOM     10  C   UNL d   1      52.267  35.062  53.633  0.00  0.00     0.008 A 
ATOM     11  C   UNL d   1      51.671  34.073  52.801  0.00  0.00     0.002 A 
ATOM     12  C   UNL d   1      51.709  34.852  53.073  0.00  0.00     0.001 A 
ENDROOT
BRANCH   3  13
ATOM     13  S   UNL d   1      53.462  31.874  53.721  0.00  0.00    -0.047 SA
BRANCH  13  14
ATOM     14  C   UNL d   1      53.774  31.143  53.927  0.00  0.00     0.045 C 
BRANCH  14  15
ATOM     15  C   UNL d   1      53.410  30.449  53.663  0.00  0.00     0.036 A 
ATOM     16  S   UNL d   1      53.259  29.777  54.122  0.00  0.00    -0.086 SA
ATOM     17  C   UNL d   1      52.892  29.225  53.638  0.00  0.00     0.035 A 
ATOM     18  C   UNL d   1      52.812  29.545  52.884  0.00  0.00     0.007 A 
ATOM     19  C   UNL d   1      53.135  30.304  52.906  0.00  0.00     0.007 A 
ENDBRANCH  14  15
ENDBRANCH  13  14
ENDBRANCH   3  13
TORSDOF 3
ENDMDL
MODEL 2
REMARK VINA RESULT:      -8.4      1.112      1.858
REMARK  3 active torsions:
REMARK  status: ('A' for Active; 'I' for Inactive)
REMARK    1  A    between atoms: S_9  and  C_3 
REMARK    2  A    between atoms: C_15  and  S_9 
REMARK    3  A    between atoms: C_11  and  C_15 
ROOT
ATOM      1  N   UNL d   1      52.587  33.453  53.289  0.00  0.00    -0.263 N 
ATOM      2  C   UNL d   1      52.128  33.976  52.830  0.00  0.00     0.202 A 
ATOM      3  C   UNL d   1      52.502  32.697  52.951  0.00  0.00     0.202 A 
ATOM      4  N   UNL d   1      51.769  33.552  52.224  0.00  0.00    -0.121 NA
ATOM      5  S   UNL d   1      52.210  34.740  53.168  0.00  0.00    -0.047 SA
ATOM      6  N   UNL d   1      52.003  32.755  52.300  0.00  0.00    -0.121 NA
ATOM      7  C   UNL d   1      52.944  33.885  53.895  0.00  0.00     0.074 A 
ATOM      8  C   UNL d   1      52.716  34.675  53.825  0.00  0.00     0.049 A 
ATOM      9  C   UNL d   1      53.450  33.654  54.503  0.00  0.00     0.018 A 
ATOM     10  C   UNL d   1      52.992  35.224  54.357  0.00  0.00     0.008 A 
ATOM     11  C   UNL d   1      53.727  34.215  55.041  0.00  0.00     0.002 A 
ATOM     12  C   UNL d   1      53.494  35.003  54.963  0.00  0.00     0.001 A 
ENDROOT
BRANCH   3  13
ATOM     13  S   UNL d   1      52.859  32.014  53.225  0.00  0.00    -0.047 SA
BRANCH  13  14
ATOM     14  C   UNL d   1      52.698  31.293  52.867  0.00  0.00     0.045 C 
BRANCH  14  15
ATOM     15  C   UNL d   1      52.951  30.590  53.220  0.00  0.00     0.036 A 
ATOM     16  S   UNL d   1      52.472  29.940  53.401  0.00  0.00    -0.086 SA
ATOM     17  C   UNL d   1      52.950  29.368  53.745  0.00  0.00     0.035 A 
ATOM     18  C   UNL d   1      53.722  29.654  53.779  0.00  0.00     0.007 A 
ATOM     19  C   UNL d   1      53.716  30.413  53.453  0.00  0.00     0.007 A 
ENDBRANCH  14  15
ENDBRANCH  13  14
ENDBRANCH   3  13
TORSDOF 3
ENDMDL
MODEL 3
REMARK VINA RESULT:      -8.4      1.398      3.728
REMARK  3 active torsions:
REMARK  status: ('A' for Active; 'I' for Inactive)
REMARK    1  A    between atoms: S_9  and  C_3 
REMARK    2  A    between atoms: C_15  and  S_9 
REMARK    3  A    between atoms: C_11  and  C_15 
ROOT
ATOM      1  N   UNL d   1      53.091  32.740  53.512  0.00  0.00    -0.263 N 
ATOM      2  C   UNL d   1      53.781  32.926  53.941  0.00  0.00     0.202 A 
ATOM      3  C   UNL d   1      52.686  33.456  53.386  0.00  0.00     0.202 A 
ATOM      4  N   UNL d   1      53.801  33.737  54.075  0.00  0.00    -0.121 NA
ATOM      5  S   UNL d   1      54.194  32.206  54.070  0.00  0.00    -0.047 SA
ATOM      6  N   UNL d   1      53.118  34.066  53.729  0.00  0.00    -0.121 NA
ATOM      7  C   UNL d   1      53.078  31.925  53.381  0.00  0.00     0.074 A 
ATOM      8  C   UNL d   1      53.752  31.592  53.721  0.00  0.00     0.049 A 
ATOM      9  C   UNL d   1      52.533  31.446  52.991  0.00  0.00     0.018 A 
ATOM     10  C   UNL d   1      53.877  30.791  53.671  0.00  0.00     0.008 A 
ATOM     11  C   UNL d   1      52.664  30.633  52.944  0.00  0.00     0.002 A 
ATOM     12  C   UNL d   1      53.342  30.308  53.287  0.00  0.00     0.001 A 
ENDROOT
BRANCH   3  13
ATOM     13  S   UNL d   1      51.977  33.534  52.986  0.00  0.00    -0.047 SA
BRANCH  13  14
ATOM     14  C   UNL d   1      51.616  34.269  52.926  0.00  0.00     0.045 C 
BRANCH  14  15
ATOM     15  C   UNL d   1      50.868  34.335  52.581  0.00  0.00     0.036 A 
ATOM     16  S   UNL d   1      50.163  34.500  52.983  0.00  0.00    -0.086 SA
ATOM     17  C   UNL d   1      49.559  34.515  52.427  0.00  0.00     0.035 A 
ATOM     18  C   UNL d   1      49.880  34.361  51.683  0.00  0.00     0.007 A 
ATOM     19  C   UNL d   1      50.692  34.251  51.787  0.00  0.00     0.007 A 
ENDBRANCH  14  15
ENDBRANCH  13  14
ENDBRANCH   3  13
TORSDOF 3
ENDMDL
MODEL 4
REMARK VINA RESULT:      -8.1      1.685      3.721
REMARK  3 active torsions:
REMARK  status: ('A' for Active; 'I' for Inactive)
REMARK    1  A    between atoms: S_9  and  C_3 
REMARK    2  A    between atoms: C_15  and  S_9 
REMARK    3  A    between atoms: C_11  and  C_15 
ROOT
ATOM      1  N   UNL d   1      53.031  32.874  53.508  0.00  0.00    -0.263 N 
ATOM      2  C   UNL d   1      53.433  32.174  53.304  0.00  0.00     0.202 A 
ATOM      3  C   UNL d   1      52.341  32.901  53.041  0.00  0.00     0.202 A 
ATOM      4  N   UNL d   1      53.003  31.778  52.726  0.00  0.00    -0.121 NA
ATOM      5  S   UNL d   1      54.129  32.143  53.773  0.00  0.00    -0.047 SA
ATOM      6  N   UNL d   1      52.323  32.232  52.563  0.00  0.00    -0.121 NA
ATOM      7  C   UNL d   1      53.468  33.266  54.088  0.00  0.00     0.074 A 
ATOM      8  C   UNL d   1      54.143  32.821  54.255  0.00  0.00     0.049 A 
ATOM      9  C   UNL d   1      53.332  33.975  54.486  0.00  0.00     0.018 A 
ATOM     10  C   UNL d   1      54.672  33.084  54.811  0.00  0.00     0.008 A 
ATOM     11  C   UNL d   1      53.874  34.237  55.050  0.00  0.00     0.002 A 
ATOM     12  C   UNL d   1      54.546  33.786  55.211  0.00  0.00     0.001 A 
ENDROOT
BRANCH   3  13
ATOM     13  S   UNL d   1      51.781  33.496  53.059  0.00  0.00    -0.047 SA
BRANCH  13  14
ATOM     14  C   UNL d   1      51.191  33.524  52.489  0.00  0.00     0.045 C 
BRANCH  14  15
ATOM     15  C   UNL d   1      50.564  34.057  52.568  0.00  0.00     0.036 A 
ATOM     16  S   UNL d   1      50.057  34.300  51.960  0.00  0.00    -0.086 SA
ATOM     17  C   UNL d   1      49.520  34.829  52.285  0.00  0.00     0.035 A 
ATOM     18  C   UNL d   1      49.686  34.918  53.087  0.00  0.00     0.007 A 
ATOM     19  C   UNL d   1      50.335  34.436  53.256  0.00  0.00     0.007 A 
ENDBRANCH  14  15
ENDBRANCH  13  14
ENDBRANCH   3  13
TORSDOF 3
ENDMDL
MODEL 5
REMARK VINA RESULT:      -7.4      1.688      4.225
REMARK  3 active torsions:
REMARK  status: ('A' for Active; 'I' for Inactive)
REMARK    1  A    between atoms: S_9  and  C_3 
REMARK    2  A    between atoms: C_15  and  S_9 
REMARK    3  A    between atoms: C_11  and  C_15 
ROOT
ATOM      1  N   UNL d   1      53.154  30.949  53.453  0.00  0.00    -0.263 N 
ATOM      2  C   UNL d   1      52.749  30.744  52.754  0.00  0.00     0.202 A 
ATOM      3  C   UNL d   1      53.315  31.765  53.408  0.00  0.00     0.202 A 
ATOM      4  N   UNL d   1      52.663  31.418  52.289  0.00  0.00    -0.121 NA
ATOM      5  S   UNL d   1      52.584  29.922  52.795  0.00  0.00    -0.047 SA
ATOM      6  N   UNL d   1      53.016  32.053  52.699  0.00  0.00    -0.121 NA
ATOM      7  C   UNL d   1      53.236  30.269  53.914  0.00  0.00     0.074 A 
ATOM      8  C   UNL d   1      52.889  29.636  53.514  0.00  0.00     0.049 A 
ATOM      9  C   UNL d   1      53.587  30.151  54.650  0.00  0.00     0.018 A 
ATOM     10  C   UNL d   1      52.893  28.896  53.849  0.00  0.00     0.008 A 
ATOM     11  C   UNL d   1      53.589  29.396  54.985  0.00  0.00     0.002 A 
ATOM     12  C   UNL d   1      53.239  28.769  54.579  0.00  0.00     0.001 A 
ENDROOT
BRANCH   3  13
ATOM     13  S   UNL d   1      53.706  32.201  53.979  0.00  0.00    -0.047 SA
BRANCH  13  14
ATOM     14  C   UNL d   1      53.831  33.005  53.868  0.00  0.00     0.045 C 
BRANCH  14  15
ATOM     15  C   UNL d   1      54.207  33.449  54.455  0.00  0.00     0.036 A 
ATOM     16  S   UNL d   1      53.852  34.035  54.919  0.00  0.00    -0.086 SA
ATOM     17  C   UNL d   1      54.427  34.330  55.427  0.00  0.00     0.035 A 
ATOM     18  C   UNL d   1      55.135  33.934  55.284  0.00  0.00     0.007 A 
ATOM     19  C   UNL d   1      54.992  33.389  54.680  0.00  0.00     0.007 A 
ENDBRANCH  14  15
ENDBRANCH  13  14
ENDBRANCH   3  13
TORSDOF 3
ENDMDL
MODEL 6
REMARK VINA RESULT:      -6.3      1.873      3.017
REMARK  3 active torsions:
REMARK  status: ('A' for Active; 'I' for Inactive)
REMARK    1  A    between atoms: S_9  and  C_3 
REMARK    2  A    between atoms: C_15  and  S_9 
REMARK    3  A    between atoms: C_11  and  C_15 
ROOT
ATOM      1  N   UNL d   1      52.262  32.869  53.148  0.00  0.00    -0.263 N 
ATOM      2  C   UNL d   1      51.861  32.211  52.832  0.00  0.00     0.202 A 
ATOM      3  C   UNL d   1      53.027  32.610  53.352  0.00  0.00     0.202 A 
ATOM      4  N   UNL d   1      52.366  31.561  52.842  0.00  0.00    -0.121 NA
ATOM      5  S   UNL d   1      51.089  32.467  52.625  0.00  0.00    -0.047 SA
ATOM      6  N   UNL d   1      53.092  31.812  53.165  0.00  0.00    -0.121 NA
ATOM      7  C   UNL d   1      51.750  33.516  53.136  0.00  0.00     0.074 A 
ATOM      8  C   UNL d   1      51.028  33.275  52.816  0.00  0.00     0.049 A 
ATOM      9  C   UNL d   1      51.854  34.297  53.378  0.00  0.00     0.018 A 
ATOM     10  C   UNL d   1      50.421  33.809  52.740  0.00  0.00     0.008 A 
ATOM     11  C   UNL d   1      51.234  34.835  53.298  0.00  0.00     0.002 A 
ATOM     12  C   UNL d   1      50.515  34.586  52.977  0.00  0.00     0.001 A 
ENDROOT
BRANCH   3  13
ATOM     13  S   UNL d   1      53.611  33.077  53.682  0.00  0.00    -0.047 SA
BRANCH  13  14
ATOM     14  C   UNL d   1      54.223  32.731  54.106  0.00  0.00     0.045 C 
BRANCH  14  15
ATOM     15  C   UNL d   1      54.693  33.193  54.606  0.00  0.00     0.036 A 
ATOM     16  S   UNL d   1      55.336  33.659  54.371  0.00  0.00    -0.086 SA
ATOM     17  C   UNL d   1      55.638  34.020  55.044  0.00  0.00     0.035 A 
ATOM     18  C   UNL d   1      55.190  33.786  55.694  0.00  0.00     0.007 A 
ATOM     19  C   UNL d   1      54.606  33.273  55.416  0.00  0.00     0.007 A 
ENDBRANCH  14  15
ENDBRANCH  13  14
ENDBRANCH   3  13
TORSDOF 3
ENDMDL
MODEL 7
REMARK VINA RESULT:      -6.1      9.503      9.977
REMARK  3 active torsions:
REMARK  status: ('A' for Active; 'I' for Inactive)
REMARK    1  A    between atoms: S_9  and  C_3 
REMARK    2  A    between atoms: C_15  and  S_9 
REMARK    3  A    between atoms: C_11  and  C_15 
ROOT
ATOM      1  N   UNL d   1      44.832  30.055  58.003  0.00  0.00    -0.263 N 
ATOM      2  C   UNL d   1      44.924  30.792  58.380  0.00  0.00     0.202 A 
ATOM      3  C   UNL d   1      44.960  29.470  58.582  0.00  0.00     0.202 A 
ATOM      4  N   UNL d   1      45.104  30.665  59.173  0.00  0.00    -0.121 NA
ATOM      5  S   UNL d   1      44.796  31.385  57.799  0.00  0.00    -0.047 SA
ATOM      6  N   UNL d   1      45.126  29.841  59.297  0.00  0.00    -0.121 NA
ATOM      7  C   UNL d   1      44.651  30.189  57.209  0.00  0.00     0.074 A 
ATOM      8  C   UNL d   1      44.628  31.004  57.079  0.00  0.00     0.049 A 
ATOM      9  C   UNL d   1      44.505  29.667  56.589  0.00  0.00     0.018 A 
ATOM     10  C   UNL d   1      44.461  31.289  56.337  0.00  0.00     0.008 A 
ATOM     11  C   UNL d   1      44.336  29.963  55.837  0.00  0.00     0.002 A 
ATOM     12  C   UNL d   1      44.314  30.780  55.715  0.00  0.00     0.001 A 
ENDROOT
BRANCH   3  13
ATOM     13  S   UNL d   1      44.924  28.663  58.455  0.00  0.00    -0.047 SA
BRANCH  13  14
ATOM     14  C   UNL d   1      44.981  28.144  59.088  0.00  0.00     0.045 C 
BRANCH  14  15
ATOM     15  C   UNL d   1      44.901  27.330  58.965  0.00  0.00     0.036 A 
ATOM     16  S   UNL d   1      44.317  26.846  59.296  0.00  0.00    -0.086 SA
ATOM     17  C   UNL d   1      44.447  26.082  59.025  0.00  0.00     0.035 A 
ATOM     18  C   UNL d   1      45.104  26.085  58.528  0.00  0.00     0.007 A 
ATOM     19  C   UNL d   1      45.381  26.862  58.496  0.00  0.00     0.007 A 
ENDBRANCH  14  15
ENDBRANCH  13  14
ENDBRANCH   3  13
TORSDOF 3
ENDMDL
MODEL 8
REMARK VINA RESULT:      -5.9      9.861     10.769
REMARK  3 active torsions:
REMARK  status: ('A' for Active; 'I' for Inactive)
REMARK    1  A    between atoms: S_9  and  C_3 
REMARK    2  A    between atoms: C_15  and  S_9 
REMARK    3  A    between atoms: C_11  and  C_15 
ROOT
ATOM      1  N   UNL d   1      44.910  29.358  57.952  0.00  0.00    -0.263 N 
ATOM      2  C   UNL d   1      44.833  29.623  57.166  0.00  0.00     0.202 A 
ATOM      3  C   UNL d   1      44.809  30.023  58.443  0.00  0.00     0.202 A 
ATOM      4  N   UNL d   1      44.689  30.433  57.172  0.00  0.00    -0.121 NA
ATOM      5  S   UNL d   1      44.934  28.955  56.668  0.00  0.00    -0.047 SA
ATOM      6  N   UNL d   1      44.674  30.681  57.968  0.00  0.00    -0.121 NA
ATOM      7  C   UNL d   1      45.054  28.545  57.939  0.00  0.00     0.074 A 
ATOM      8  C   UNL d   1      45.070  28.293  57.154  0.00  0.00     0.049 A 
ATOM      9  C   UNL d   1      45.173  28.004  58.549  0.00  0.00     0.018 A 
ATOM     10  C   UNL d   1      45.203  27.510  56.983  0.00  0.00     0.008 A 
ATOM     11  C   UNL d   1      45.308  27.210  58.370  0.00  0.00     0.002 A 
ATOM     12  C   UNL d   1      45.322  26.966  57.581  0.00  0.00     0.001 A 
ENDROOT
BRANCH   3  13
ATOM     13  S   UNL d   1      44.840  30.017  59.260  0.00  0.00    -0.047 SA
BRANCH  13  14
ATOM     14  C   UNL d   1      44.702  30.707  59.682  0.00  0.00     0.045 C 
BRANCH  14  15
ATOM     15  C   UNL d   1      44.692  30.691  60.508  0.00  0.00     0.036 A 
ATOM     16  S   UNL d   1      44.314  31.241  60.999  0.00  0.00    -0.086 SA
ATOM     17  C   UNL d   1      44.448  31.012  61.776  0.00  0.00     0.035 A 
ATOM     18  C   UNL d   1      44.905  30.327  61.775  0.00  0.00     0.007 A 
ATOM     19  C   UNL d   1      45.053  30.133  60.986  0.00  0.00     0.007 A 
ENDBRANCH  14  15
ENDBRANCH  13  14
ENDBRANCH   3  13
TORSDOF 3
ENDMDL
MODEL 9
REMARK VINA RESULT:      -5.7     10.324     10.949
REMARK  3 active torsions:
REMARK  status: ('A' for Active; 'I' for Inactive)
REMARK    1  A    between atoms: S_9  and  C_3 
REMARK    2  A    between atoms: C_15  and  S_9 
REMARK    3  A    between atoms: C_11  and  C_15 
ROOT
ATOM      1  N   UNL d   1      44.761  29.716  60.056  0.00  0.00    -0.263 N 
ATOM      2  C   UNL d   1      44.822  30.525  60.244  0.00  0.00     0.202 A 
ATOM      3  C   UNL d   1      44.869  29.651  59.233  0.00  0.00     0.202 A 
ATOM      4  N   UNL d   1      44.964  30.950  59.554  0.00  0.00    -0.121 NA
ATOM      5  S   UNL d   1      44.714  30.595  61.074  0.00  0.00    -0.047 SA
ATOM      6  N   UNL d   1      44.993  30.404  58.925  0.00  0.00    -0.121 NA
ATOM      7  C   UNL d   1      44.619  29.297  60.753  0.00  0.00     0.074 A 
ATOM      8  C   UNL d   1      44.589  29.832  61.380  0.00  0.00     0.049 A 
ATOM      9  C   UNL d   1      44.513  28.492  60.891  0.00  0.00     0.018 A 
ATOM     10  C   UNL d   1      44.455  29.562  62.135  0.00  0.00     0.008 A 
ATOM     11  C   UNL d   1      44.377  28.223  61.659  0.00  0.00     0.002 A 
ATOM     12  C   UNL d   1      44.348  28.765  62.281  0.00  0.00     0.001 A 
ENDROOT
BRANCH   3  13
ATOM     13  S   UNL d   1      44.853  28.953  58.807  0.00  0.00    -0.047 SA
BRANCH  13  14
ATOM     14  C   UNL d   1      45.047  28.953  58.010  0.00  0.00     0.045 C 
BRANCH  14  15
ATOM     15  C   UNL d   1      45.053  28.243  57.586  0.00  0.00     0.036 A 
ATOM     16  S   UNL d   1      44.510  28.026  57.000  0.00  0.00    -0.086 SA
ATOM     17  C   UNL d   1      44.724  27.280  56.730  0.00  0.00     0.035 A 
ATOM     18  C   UNL d   1      45.393  27.031  57.140  0.00  0.00     0.007 A 
ATOM     19  C   UNL d   1      45.592  27.633  57.670  0.00  0.00     0.007 A 
ENDBRANCH  14  15
ENDBRANCH  13  14
ENDBRANCH   3  13
TORSDOF 3
ENDMDL
