MODEL 1
REMARK VINA RESULT:      27.4      0.000      0.000
REMARK  3 active torsions:
REMARK  status: ('A' for Active; 'I' for Inactive)
REMARK    1  A    between atoms: N_2  and  S_1 
REMARK    2  A    between atoms: C_5  and  S_1 
REMARK    3  A    between atoms: S_9  and  C_3 
ROOT
ATOM      1  S   UNL d   1     -55.097-101.304 -38.227  0.00  0.00     0.273 S 
ATOM      2  O   UNL d   1     -54.712-100.582 -38.111  0.00  0.00    -0.200 OA
ATOM      3  O   UNL d   1     -55.179-100.903 -38.933  0.00  0.00    -0.200 OA
ENDROOT
BRANCH   1   4
ATOM      4  N   UNL d   1     -55.522-101.924 -38.571  0.00  0.00    -0.208 N 
ATOM      5  C   UNL d   1     -55.345-102.289 -39.294  0.00  0.00     0.185 A 
ATOM      6  N   UNL d   1     -55.907-102.878 -39.429  0.00  0.00    -0.219 NA
ATOM      7  C   UNL d   1     -56.430-102.876 -38.788  0.00  0.00     0.121 A 
ATOM      8  C   UNL d   1     -56.197-102.291 -38.258  0.00  0.00     0.114 A 
BRANCH   5   9
ATOM      9  S   UNL d   1     -54.713-102.094 -39.795  0.00  0.00    -0.075 SA
ATOM     10  C   UNL d   1     -54.735-102.319 -40.586  0.00  0.00     0.077 C 
ENDBRANCH   5   9
ENDBRANCH   1   4
BRANCH   1  11
ATOM     11  C   UNL d   1     -55.004-101.693 -37.507  0.00  0.00     0.104 A 
ATOM     12  C   UNL d   1     -54.830-102.494 -37.504  0.00  0.00     0.013 A 
ATOM     13  C   UNL d   1     -54.738-102.880 -36.780  0.00  0.00     0.001 A 
ATOM     14  C   UNL d   1     -54.819-102.464 -36.071  0.00  0.00     0.000 A 
ATOM     15  C   UNL d   1     -54.995-101.658 -36.086  0.00  0.00     0.001 A 
ATOM     16  C   UNL d   1     -54.726-102.852 -35.350  0.00  0.00     0.000 C 
ATOM     17  C   UNL d   1     -55.087-101.273 -36.809  0.00  0.00     0.013 A 
ENDBRANCH   1  11
TORSDOF 3
ENDMDL
