MODEL 1
REMARK VINA RESULT:      13.3      0.000      0.000
REMARK  3 active torsions:
REMARK  status: ('A' for Active; 'I' for Inactive)
REMARK    1  A    between atoms: C_4  and  C_1 
REMARK    2  A    between atoms: N_7  and  C_4 
REMARK    3  A    between atoms: C_9  and  N_7 
ROOT
ATOM      1  C   UNL d   1      46.021 -16.856  44.268  0.00  0.00     0.159 C 
ATOM      2  S   UNL d   1      46.446 -16.682  44.955  0.00  0.00    -0.055 SA
ENDROOT
BRANCH   1   3
ATOM      3  C   UNL d   1      46.161 -17.565  43.869  0.00  0.00     0.139 A 
ATOM      4  N   UNL d   1      46.284 -17.642  43.056  0.00  0.00    -0.236 NA
ATOM      5  C   UNL d   1      46.402 -18.445  42.893  0.00  0.00     0.088 A 
ATOM      6  C   UNL d   1      46.549 -18.856  42.192  0.00  0.00     0.020 A 
ATOM      7  C   UNL d   1      46.351 -18.859  43.610  0.00  0.00     0.049 A 
ATOM      8  C   UNL d   1      46.644 -19.670  42.203  0.00  0.00     0.002 A 
ATOM      9  C   UNL d   1      46.593 -20.083  42.920  0.00  0.00     0.001 A 
ATOM     10  C   UNL d   1      46.448 -19.680  43.618  0.00  0.00     0.008 A 
ATOM     11  S   UNL d   1      46.202 -18.309  44.210  0.00  0.00    -0.064 SA
ENDBRANCH   1   3
BRANCH   1  12
ATOM     12  N   UNL d   1      45.460 -16.328  43.981  0.00  0.00    -0.233 NA
BRANCH  12  13
ATOM     13  C   UNL d   1      45.477 -15.535  44.223  0.00  0.00     0.082 A 
ATOM     14  C   UNL d   1      44.848 -15.224  44.654  0.00  0.00     0.020 A 
ATOM     15  C   UNL d   1      44.857 -14.440  44.898  0.00  0.00     0.013 A 
ATOM     16  C   UNL d   1      45.510 -13.962  44.705  0.00  0.00     0.058 A 
ATOM     17  C   UNL d   1      46.142 -14.272  44.273  0.00  0.00     0.013 A 
ATOM     18 CL   UNL d   1      45.526 -13.177  44.946  0.00  0.00    -0.082 Cl
ATOM     19  C   UNL d   1      46.118 -15.061  44.035  0.00  0.00     0.020 A 
ENDBRANCH  12  13
ENDBRANCH   1  12
TORSDOF 3
ENDMDL
