MODEL 1
REMARK VINA RESULT:      26.0      0.000      0.000
REMARK  3 active torsions:
REMARK  status: ('A' for Active; 'I' for Inactive)
REMARK    1  A    between atoms: C_2  and  S_1 
REMARK    2  A    between atoms: N_3  and  S_1 
REMARK    3  A    between atoms: C_4  and  N_3 
ROOT
ATOM      1  C   UNL d   1     -57.597 -98.759 -44.617  0.00  0.00     0.094 A 
ATOM      2  C   UNL d   1     -58.312 -98.761 -44.199  0.00  0.00     0.021 A 
ATOM      3  C   UNL d   1     -58.992 -98.760 -44.601  0.00  0.00     0.040 A 
ATOM      4  C   UNL d   1     -58.989 -98.758 -45.426  0.00  0.00     0.196 A 
ATOM      5  C   UNL d   1     -57.591 -98.757 -45.430  0.00  0.00     0.023 A 
ATOM      6  C   UNL d   1     -58.273 -98.756 -45.843  0.00  0.00     0.044 A 
ATOM      7  O   UNL d   1     -59.736 -98.757 -45.827  0.00  0.00    -0.287 OA
ATOM      8  C   UNL d   1     -58.316 -98.763 -43.375  0.00  0.00     0.002 A 
ATOM      9  C   UNL d   1     -59.743 -98.762 -44.177  0.00  0.00     0.003 A 
ATOM     10  C   UNL d   1     -59.749 -98.764 -43.364  0.00  0.00     0.000 A 
ATOM     11  C   UNL d   1     -59.037 -98.765 -42.956  0.00  0.00     0.000 A 
ENDROOT
BRANCH   1  12
ATOM     12  N   UNL d   1     -56.872 -98.759 -44.211  0.00  0.00    -0.158 NA
BRANCH  12  13
ATOM     13  S   UNL d   1     -56.319 -99.361 -44.341  0.00  0.00     0.291 S 
ATOM     14  O   UNL d   1     -55.813 -98.816 -44.721  0.00  0.00    -0.198 OA
ATOM     15  O   UNL d   1     -56.800 -99.894 -43.977  0.00  0.00    -0.198 OA
BRANCH  13  16
ATOM     16  C   UNL d   1     -55.789 -99.973 -44.457  0.00  0.00     0.135 A 
ATOM     17  S   UNL d   1     -55.271-100.019 -45.060  0.00  0.00    -0.073 SA
ATOM     18  C   UNL d   1     -54.821-100.715 -45.003  0.00  0.00     0.036 A 
ATOM     19  C   UNL d   1     -55.070-101.109 -44.346  0.00  0.00     0.008 A 
ATOM     20  C   UNL d   1     -55.675-100.666 -43.987  0.00  0.00     0.020 A 
ENDBRANCH  13  16
ENDBRANCH  12  13
ENDBRANCH   1  12
TORSDOF 3
ENDMDL
