MODEL 1
REMARK VINA RESULT:      -4.8      0.000      0.000
REMARK  4 active torsions:
REMARK  status: ('A' for Active; 'I' for Inactive)
REMARK    1  A    between atoms: N_4  and  C_1 
REMARK       I    between atoms: C_6  and  N_4 
REMARK    2  A    between atoms: C_10  and  C_6 
REMARK    3  A    between atoms: C_8  and  C_11 
REMARK    4  A    between atoms: C_11  and  C_10 
ROOT
ATOM      1  N   UNL d   1      57.445   0.106  30.926  0.00  0.00    -0.187 NA
ATOM      2  C   UNL d   1      57.010  -0.353  31.459  0.00  0.00     0.281 C 
ATOM      3  O   UNL d   1      56.983  -1.195  31.419  0.00  0.00    -0.265 OA
ENDROOT
BRANCH   2   4
ATOM      4  C   UNL d   1      56.562   0.044  32.086  0.00  0.00     0.063 C 
BRANCH   4   5
ATOM      5  C   UNL d   1      56.306  -0.415  32.745  0.00  0.00     0.011 C 
BRANCH   5   6
ATOM      6  C   UNL d   1      55.882  -0.047  33.326  0.00  0.00     0.030 A 
ATOM      7  S   UNL d   1      56.181   0.391  33.893  0.00  0.00    -0.086 SA
ATOM      8  C   UNL d   1      55.591   0.681  34.391  0.00  0.00     0.035 A 
ATOM      9  C   UNL d   1      54.892   0.407  34.113  0.00  0.00     0.007 A 
ATOM     10  C   UNL d   1      55.042  -0.053  33.446  0.00  0.00     0.007 A 
ENDBRANCH   5   6
ENDBRANCH   4   5
ENDBRANCH   2   4
BRANCH   1  11
ATOM     11  C   UNL d   1      57.871  -0.271  30.330  0.00  0.00     0.194 A 
ATOM     12  N   UNL d   1      57.808  -1.007  29.991  0.00  0.00    -0.107 NA
ATOM     13  O   UNL d   1      58.370  -1.077  29.434  0.00  0.00    -0.210 OA
ATOM     14  C   UNL d   1      58.832  -0.383  29.383  0.00  0.00     0.128 A 
ATOM     15  C   UNL d   1      58.515   0.117  29.945  0.00  0.00     0.068 A 
ATOM     16  C   UNL d   1      59.470  -0.199  28.894  0.00  0.00     0.029 C 
ENDBRANCH   1  11
TORSDOF 4
ENDMDL
MODEL 2
REMARK VINA RESULT:      -4.7      1.699      4.506
REMARK  4 active torsions:
REMARK  status: ('A' for Active; 'I' for Inactive)
REMARK    1  A    between atoms: N_4  and  C_1 
REMARK       I    between atoms: C_6  and  N_4 
REMARK    2  A    between atoms: C_10  and  C_6 
REMARK    3  A    between atoms: C_8  and  C_11 
REMARK    4  A    between atoms: C_11  and  C_10 
ROOT
ATOM      1  N   UNL d   1      57.063  -0.007  31.765  0.00  0.00    -0.187 NA
ATOM      2  C   UNL d   1      57.359  -0.481  31.154  0.00  0.00     0.281 C 
ATOM      3  O   UNL d   1      57.122  -1.283  31.044  0.00  0.00    -0.265 OA
ENDROOT
BRANCH   2   4
ATOM      4  C   UNL d   1      57.936  -0.143  30.603  0.00  0.00     0.063 C 
BRANCH   4   5
ATOM      5  C   UNL d   1      58.195  -0.616  29.956  0.00  0.00     0.011 C 
BRANCH   5   6
ATOM      6  C   UNL d   1      58.699  -0.286  29.418  0.00  0.00     0.030 A 
ATOM      7  S   UNL d   1      59.431  -0.511  29.290  0.00  0.00    -0.086 SA
ATOM      8  C   UNL d   1      59.788  -0.055  28.703  0.00  0.00     0.035 A 
ATOM      9  C   UNL d   1      59.243   0.479  28.457  0.00  0.00     0.007 A 
ATOM     10  C   UNL d   1      58.551   0.359  28.887  0.00  0.00     0.007 A 
ENDBRANCH   5   6
ENDBRANCH   4   5
ENDBRANCH   2   4
BRANCH   1  11
ATOM     11  C   UNL d   1      56.514  -0.329  32.289  0.00  0.00     0.194 A 
ATOM     12  N   UNL d   1      56.332  -1.095  32.493  0.00  0.00    -0.107 NA
ATOM     13  O   UNL d   1      55.750  -1.079  33.032  0.00  0.00    -0.210 OA
ATOM     14  C   UNL d   1      55.521  -0.296  33.208  0.00  0.00     0.128 A 
ATOM     15  C   UNL d   1      56.003   0.169  32.741  0.00  0.00     0.068 A 
ATOM     16  C   UNL d   1      54.948  -0.009  33.727  0.00  0.00     0.029 C 
ENDBRANCH   1  11
TORSDOF 4
ENDMDL
MODEL 3
REMARK VINA RESULT:      -4.6      1.029      1.370
REMARK  4 active torsions:
REMARK  status: ('A' for Active; 'I' for Inactive)
REMARK    1  A    between atoms: N_4  and  C_1 
REMARK       I    between atoms: C_6  and  N_4 
REMARK    2  A    between atoms: C_10  and  C_6 
REMARK    3  A    between atoms: C_8  and  C_11 
REMARK    4  A    between atoms: C_11  and  C_10 
ROOT
ATOM      1  N   UNL d   1      57.889  -0.477  30.138  0.00  0.00    -0.187 NA
ATOM      2  C   UNL d   1      57.711  -0.075  30.839  0.00  0.00     0.281 C 
ATOM      3  O   UNL d   1      58.114   0.626  31.077  0.00  0.00    -0.265 OA
ENDROOT
BRANCH   2   4
ATOM      4  C   UNL d   1      57.085  -0.385  31.352  0.00  0.00     0.063 C 
BRANCH   4   5
ATOM      5  C   UNL d   1      56.977  -0.029  32.108  0.00  0.00     0.011 C 
BRANCH   5   6
ATOM      6  C   UNL d   1      56.369  -0.292  32.571  0.00  0.00     0.030 A 
ATOM      7  S   UNL d   1      55.879   0.159  32.970  0.00  0.00    -0.086 SA
ATOM      8  C   UNL d   1      55.326  -0.290  33.385  0.00  0.00     0.035 A 
ATOM      9  C   UNL d   1      55.486  -1.060  33.230  0.00  0.00     0.007 A 
ATOM     10  C   UNL d   1      56.134  -1.094  32.724  0.00  0.00     0.007 A 
ENDBRANCH   5   6
ENDBRANCH   4   5
ENDBRANCH   2   4
BRANCH   1  11
ATOM     11  C   UNL d   1      58.484  -0.183  29.650  0.00  0.00     0.194 A 
ATOM     12  N   UNL d   1      58.656   0.565  29.382  0.00  0.00    -0.107 NA
ATOM     13  O   UNL d   1      59.301   0.526  28.921  0.00  0.00    -0.210 OA
ATOM     14  C   UNL d   1      59.585  -0.258  28.865  0.00  0.00     0.128 A 
ATOM     15  C   UNL d   1      59.070  -0.696  29.322  0.00  0.00     0.068 A 
ATOM     16  C   UNL d   1      60.231  -0.565  28.455  0.00  0.00     0.029 C 
ENDBRANCH   1  11
TORSDOF 4
ENDMDL
MODEL 4
REMARK VINA RESULT:      -2.8      9.652      9.730
REMARK  4 active torsions:
REMARK  status: ('A' for Active; 'I' for Inactive)
REMARK    1  A    between atoms: N_4  and  C_1 
REMARK       I    between atoms: C_6  and  N_4 
REMARK    2  A    between atoms: C_10  and  C_6 
REMARK    3  A    between atoms: C_8  and  C_11 
REMARK    4  A    between atoms: C_11  and  C_10 
ROOT
ATOM      1  N   UNL d   1      58.259  -9.656  32.684  0.00  0.00    -0.187 NA
ATOM      2  C   UNL d   1      59.009  -9.585  33.025  0.00  0.00     0.281 C 
ATOM      3  O   UNL d   1      59.718  -9.570  32.570  0.00  0.00    -0.265 OA
ENDROOT
BRANCH   2   4
ATOM      4  C   UNL d   1      59.073  -9.524  33.888  0.00  0.00     0.063 C 
BRANCH   4   5
ATOM      5  C   UNL d   1      59.677  -9.034  34.210  0.00  0.00     0.011 C 
BRANCH   5   6
ATOM      6  C   UNL d   1      59.678  -8.900  35.007  0.00  0.00     0.030 A 
ATOM      7  S   UNL d   1      60.137  -8.395  35.378  0.00  0.00    -0.086 SA
ATOM      8  C   UNL d   1      59.993  -8.399  36.190  0.00  0.00     0.035 A 
ATOM      9  C   UNL d   1      59.414  -8.936  36.323  0.00  0.00     0.007 A 
ATOM     10  C   UNL d   1      59.196  -9.267  35.601  0.00  0.00     0.007 A 
ENDBRANCH   5   6
ENDBRANCH   4   5
ENDBRANCH   2   4
BRANCH   1  11
ATOM     11  C   UNL d   1      58.198  -9.714  31.864  0.00  0.00     0.194 A 
ATOM     12  N   UNL d   1      58.755  -9.766  31.274  0.00  0.00    -0.107 NA
ATOM     13  O   UNL d   1      58.379  -9.810  30.576  0.00  0.00    -0.210 OA
ATOM     14  C   UNL d   1      57.550  -9.788  30.678  0.00  0.00     0.128 A 
ATOM     15  C   UNL d   1      57.444  -9.728  31.485  0.00  0.00     0.068 A 
ATOM     16  C   UNL d   1      56.942  -9.818  30.122  0.00  0.00     0.029 C 
ENDBRANCH   1  11
TORSDOF 4
ENDMDL
MODEL 5
REMARK VINA RESULT:      -2.2      9.836     10.333
REMARK  4 active torsions:
REMARK  status: ('A' for Active; 'I' for Inactive)
REMARK    1  A    between atoms: N_4  and  C_1 
REMARK       I    between atoms: C_6  and  N_4 
REMARK    2  A    between atoms: C_10  and  C_6 
REMARK    3  A    between atoms: C_8  and  C_11 
REMARK    4  A    between atoms: C_11  and  C_10 
ROOT
ATOM      1  N   UNL d   1      58.929  -9.330  33.190  0.00  0.00    -0.187 NA
ATOM      2  C   UNL d   1      59.204  -9.606  32.461  0.00  0.00     0.281 C 
ATOM      3  O   UNL d   1      60.020  -9.752  32.306  0.00  0.00    -0.265 OA
ENDROOT
BRANCH   2   4
ATOM      4  C   UNL d   1      58.633  -9.753  31.825  0.00  0.00     0.063 C 
BRANCH   4   5
ATOM      5  C   UNL d   1      58.919  -9.798  31.034  0.00  0.00     0.011 C 
BRANCH   5   6
ATOM      6  C   UNL d   1      58.380  -9.806  30.432  0.00  0.00     0.030 A 
ATOM      7  S   UNL d   1      58.551  -9.811  29.675  0.00  0.00    -0.086 SA
ATOM      8  C   UNL d   1      57.869  -9.818  29.212  0.00  0.00     0.035 A 
ATOM      9  C   UNL d   1      57.245  -9.817  29.715  0.00  0.00     0.007 A 
ATOM     10  C   UNL d   1      57.533  -9.810  30.486  0.00  0.00     0.007 A 
ENDBRANCH   5   6
ENDBRANCH   4   5
ENDBRANCH   2   4
BRANCH   1  11
ATOM     11  C   UNL d   1      59.472  -9.191  33.794  0.00  0.00     0.194 A 
ATOM     12  N   UNL d   1      60.248  -8.947  33.790  0.00  0.00    -0.107 NA
ATOM     13  O   UNL d   1      60.502  -8.906  34.542  0.00  0.00    -0.210 OA
ATOM     14  C   UNL d   1      59.899  -9.123  35.077  0.00  0.00     0.128 A 
ATOM     15  C   UNL d   1      59.258  -9.300  34.604  0.00  0.00     0.068 A 
ATOM     16  C   UNL d   1      59.904  -9.164  35.901  0.00  0.00     0.029 C 
ENDBRANCH   1  11
TORSDOF 4
ENDMDL
