MODEL 1
REMARK VINA RESULT:      20.9      0.000      0.000
REMARK  4 active torsions:
REMARK  status: ('A' for Active; 'I' for Inactive)
REMARK    1  A    between atoms: N_2  and  S_1 
REMARK    2  A    between atoms: N_3  and  S_1 
REMARK    3  A    between atoms: C_8  and  N_3 
REMARK    4  A    between atoms: C_7  and  C_6 
ROOT
ATOM      1  N   UNL d   1      15.258  13.014  -0.105  0.00  0.00    -0.144 NA
ENDROOT
BRANCH   1   2
ATOM      2  S   UNL d   1      15.326  13.833  -0.175  0.00  0.00     0.351 S 
ATOM      3  O   UNL d   1      16.149  13.836  -0.161  0.00  0.00    -0.180 OA
ATOM      4  O   UNL d   1      14.503  13.829  -0.189  0.00  0.00    -0.180 OA
BRANCH   2   5
ATOM      5  N   UNL d   1      15.324  14.653  -0.247  0.00  0.00    -0.215 N 
ATOM      6  C   UNL d   1      14.758  15.021  -0.730  0.00  0.00     0.093 C 
ATOM      7  C   UNL d   1      14.759  15.834  -0.798  0.00  0.00     0.020 C 
ATOM      8  C   UNL d   1      15.370  16.281  -0.489  0.00  0.00     0.003 C 
ATOM      9  C   UNL d   1      15.993  15.904  -0.103  0.00  0.00     0.020 C 
ATOM     10  C   UNL d   1      16.004  15.080  -0.027  0.00  0.00     0.093 C 
ENDBRANCH   2   5
ENDBRANCH   1   2
BRANCH   1  11
ATOM     11  C   UNL d   1      14.624  12.608  -0.480  0.00  0.00     0.095 A 
ATOM     12  C   UNL d   1      14.619  12.520  -1.308  0.00  0.00     0.023 A 
ATOM     13  C   UNL d   1      14.000  12.110  -1.676  0.00  0.00     0.041 A 
ATOM     14  C   UNL d   1      13.383  11.793  -1.215  0.00  0.00     0.003 A 
ATOM     15  C   UNL d   1      13.377  11.872  -0.383  0.00  0.00     0.002 A 
ATOM     16  C   UNL d   1      14.010  12.284  -0.016  0.00  0.00     0.020 A 
BRANCH  13  17
ATOM     17  C   UNL d   1      13.914  12.143  -2.498  0.00  0.00     0.196 C 
ATOM     18  O   UNL d   1      14.543  12.397  -2.964  0.00  0.00    -0.287 OA
ATOM     19  C   UNL d   1      13.198  11.922  -2.845  0.00  0.00     0.045 C 
ENDBRANCH  13  17
ENDBRANCH   1  11
TORSDOF 4
ENDMDL
