MODEL 1
REMARK VINA RESULT:      25.9      0.000      0.000
REMARK  2 active torsions:
REMARK  status: ('A' for Active; 'I' for Inactive)
REMARK    1  A    between atoms: C_8  and  N_1 
REMARK    2  A    between atoms: O_15  and  C_14 
ROOT
ATOM      1  N   UNL d   1      58.941  49.686  50.915  0.00  0.00    -0.243 N 
ATOM      2  C   UNL d   1      58.591  49.700  51.626  0.00  0.00     0.251 A 
ATOM      3  C   UNL d   1      58.395  49.682  50.328  0.00  0.00     0.264 A 
ATOM      4  C   UNL d   1      57.758  49.705  51.494  0.00  0.00     0.129 A 
ATOM      5  C   UNL d   1      57.637  49.694  50.690  0.00  0.00     0.047 A 
ATOM      6  C   UNL d   1      56.956  49.692  50.180  0.00  0.00     0.001 A 
ATOM      7  C   UNL d   1      57.000  49.698  50.592  0.00  0.00    -0.009 A 
ATOM      8  C   UNL d   1      56.048  49.702  50.311  0.00  0.00    -0.000 A 
ATOM      9  C   UNL d   1      56.110  49.708  50.727  0.00  0.00    -0.004 A 
ATOM     10  C   UNL d   1      57.387  49.678  49.500  0.00  0.00    -0.004 A 
ATOM     11  O   UNL d   1      58.996  49.708  52.368  0.00  0.00    -0.271 OA
ATOM     12  O   UNL d   1      58.704  49.667  49.501  0.00  0.00    -0.267 OA
ENDROOT
BRANCH   1  13
ATOM     13  C   UNL d   1      59.751  49.678  50.814  0.00  0.00     0.092 A 
ATOM     14  C   UNL d   1      60.253  49.641  51.471  0.00  0.00     0.110 A 
ATOM     15  C   UNL d   1      61.062  49.633  51.363  0.00  0.00     0.026 A 
ATOM     16  C   UNL d   1      61.381  49.661  50.603  0.00  0.00     0.002 A 
ATOM     17  C   UNL d   1      60.884  49.697  49.963  0.00  0.00     0.002 A 
ATOM     18  C   UNL d   1      60.068  49.705  50.066  0.00  0.00     0.020 A 
BRANCH  14  19
ATOM     19  O   UNL d   1      59.914  49.614  52.216  0.00  0.00    -0.327 OA
ATOM     20  C   UNL d   1      60.320  49.707  52.837  0.00  0.00     0.181 C 
ENDBRANCH  14  19
ENDBRANCH   1  13
TORSDOF 2
ENDMDL
