MODEL 1
REMARK VINA RESULT:      43.4      0.000      0.000
REMARK  2 active torsions:
REMARK  status: ('A' for Active; 'I' for Inactive)
REMARK    1  A    between atoms: N_14  and  C_4 
REMARK    2  A    between atoms: C_9  and  C_5 
ROOT
ATOM      1  C   UNL d   1     -57.472 -98.756 -44.254  0.00  0.00     0.060 A 
ATOM      2  C   UNL d   1     -57.177 -98.756 -45.024  0.00  0.00     0.197 A 
ATOM      3  C   UNL d   1     -56.962 -98.756 -43.604  0.00  0.00     0.043 A 
ATOM      4  C   UNL d   1     -58.291 -98.756 -44.114  0.00  0.00     0.090 A 
ATOM      5  C   UNL d   1     -58.586 -98.756 -43.343  0.00  0.00     0.082 A 
ATOM      6  C   UNL d   1     -56.144 -98.756 -43.707  0.00  0.00     0.196 A 
ATOM      7  C   UNL d   1     -56.358 -98.756 -45.127  0.00  0.00     0.042 A 
ATOM      8  C   UNL d   1     -55.848 -98.756 -44.477  0.00  0.00     0.042 A 
ATOM      9  C   UNL d   1     -57.276 -98.756 -42.819  0.00  0.00     0.004 A 
ATOM     10  C   UNL d   1     -58.113 -98.756 -42.740  0.00  0.00     0.008 A 
ATOM     11  O   UNL d   1     -57.700 -98.756 -45.654  0.00  0.00    -0.286 OA
ATOM     12  O   UNL d   1     -55.638 -98.756 -43.024  0.00  0.00    -0.287 OA
ATOM     13  C   UNL d   1     -56.040 -98.756 -45.915  0.00  0.00     0.003 A 
ATOM     14  C   UNL d   1     -55.008 -98.756 -44.597  0.00  0.00     0.003 A 
ATOM     15  C   UNL d   1     -54.712 -98.756 -45.368  0.00  0.00     0.000 A 
ATOM     16  C   UNL d   1     -55.222 -98.756 -46.018  0.00  0.00     0.000 A 
ENDROOT
BRANCH   5  17
ATOM     17  C   UNL d   1     -59.384 -98.756 -43.167  0.00  0.00     0.212 C 
ATOM     18  O   UNL d   1     -59.658 -98.756 -42.384  0.00  0.00    -0.644 OA
ATOM     19  O   UNL d   1     -59.959 -98.755 -43.756  0.00  0.00    -0.644 OA
ENDBRANCH   5  17
BRANCH   4  20
ATOM     20  N   UNL d   1     -58.837 -98.756 -44.763  0.00  0.00    -0.242 NA
ATOM     21  C   UNL d   1     -59.285 -99.410 -44.943  0.00  0.00     0.119 C 
ENDBRANCH   4  20
TORSDOF 2
ENDMDL
