MODEL 1
REMARK VINA RESULT:      -3.1      0.000      0.000
REMARK  5 active torsions:
REMARK  status: ('A' for Active; 'I' for Inactive)
REMARK    1  A    between atoms: C_5  and  C_1 
REMARK       I    between atoms: N_7  and  C_5 
REMARK    2  A    between atoms: C_10  and  N_7 
REMARK    3  A    between atoms: S_15  and  C_14 
REMARK    4  A    between atoms: C_20  and  S_15 
REMARK    5  A    between atoms: C_16  and  C_20 
ROOT
ATOM      1  N   UNL d   1      28.095  18.194 -23.701  0.00  0.00    -0.191 NA
ATOM      2  C   UNL d   1      28.733  17.968 -24.190  0.00  0.00     0.102 C 
ATOM      3  C   UNL d   1      29.366  17.740 -24.666  0.00  0.00     0.085 C 
ENDROOT
BRANCH   3   4
ATOM      4  C   UNL d   1      29.913  17.191 -24.397  0.00  0.00     0.046 C 
BRANCH   4   5
ATOM      5  S   UNL d   1      30.716  17.396 -24.346  0.00  0.00    -0.084 SA
BRANCH   5   6
ATOM      6  C   UNL d   1      31.267  16.839 -24.074  0.00  0.00     0.047 A 
ATOM      7  C   UNL d   1      31.950  17.094 -23.695  0.00  0.00     0.091 A 
ATOM      8  C   UNL d   1      32.505  16.546 -23.421  0.00  0.00     0.020 A 
ATOM      9  C   UNL d   1      32.374  15.740 -23.528  0.00  0.00     0.002 A 
ATOM     10  C   UNL d   1      31.684  15.481 -23.911  0.00  0.00     0.001 A 
ATOM     11  C   UNL d   1      31.136  16.034 -24.181  0.00  0.00     0.008 A 
BRANCH   7  12
ATOM     12  N   UNL d   1      32.084  17.902 -23.587  0.00  0.00    -0.206 NA
ATOM     13  C   UNL d   1      32.698  18.150 -23.106  0.00  0.00     0.302 C 
ATOM     14  O   UNL d   1      33.183  17.603 -22.728  0.00  0.00    -0.263 OA
BRANCH  13  15
ATOM     15  C   UNL d   1      32.836  18.965 -22.994  0.00  0.00     0.161 A 
ATOM     16  C   UNL d   1      32.969  19.455 -23.635  0.00  0.00     0.072 A 
ATOM     17  C   UNL d   1      33.105  20.262 -23.514  0.00  0.00     0.200 A 
ATOM     18  O   UNL d   1      33.241  20.765 -24.159  0.00  0.00    -0.286 OA
ATOM     19  C   UNL d   1      33.105  20.566 -22.751  0.00  0.00     0.062 A 
ATOM     20  C   UNL d   1      32.972  20.079 -22.106  0.00  0.00     0.103 A 
ATOM     21  C   UNL d   1      33.241  21.376 -22.625  0.00  0.00     0.005 A 
ATOM     22  O   UNL d   1      32.836  19.268 -22.232  0.00  0.00    -0.302 OA
ATOM     23  C   UNL d   1      32.970  20.377 -21.335  0.00  0.00     0.025 A 
ATOM     24  C   UNL d   1      33.106  21.183 -21.216  0.00  0.00     0.002 A 
ATOM     25  C   UNL d   1      33.241  21.679 -21.862  0.00  0.00     0.000 A 
ENDBRANCH  13  15
ENDBRANCH   7  12
ENDBRANCH   5   6
ENDBRANCH   4   5
ENDBRANCH   3   4
TORSDOF 5
ENDMDL
