MODEL 1
REMARK VINA RESULT:      -2.8      0.000      0.000
REMARK  5 active torsions:
REMARK  status: ('A' for Active; 'I' for Inactive)
REMARK    1  A    between atoms: N_5  and  C_1 
REMARK    2  A    between atoms: C_8  and  C_2 
REMARK       I    between atoms: C_7  and  N_5 
REMARK    3  A    between atoms: C_9  and  C_7 
REMARK    4  A    between atoms: O_16  and  C_8 
REMARK    5  A    between atoms: C_20  and  O_16 
ROOT
ATOM      1  C   UNL d   1      32.919  21.737 -21.213  0.00  0.00     0.119 A 
ATOM      2  C   UNL d   1      32.740  22.544 -21.300  0.00  0.00     0.088 A 
ATOM      3  S   UNL d   1      33.105  21.585 -20.430  0.00  0.00    -0.068 SA
ATOM      4  C   UNL d   1      32.820  22.906 -20.536  0.00  0.00     0.013 A 
ATOM      5  C   UNL d   1      33.045  22.298 -20.012  0.00  0.00     0.031 A 
ATOM      6  C   UNL d   1      32.768  23.601 -20.097  0.00  0.00     0.001 A 
ATOM      7  C   UNL d   1      33.131  22.640 -19.236  0.00  0.00     0.006 A 
ATOM      8  C   UNL d   1      32.957  23.434 -19.315  0.00  0.00     0.001 A 
ENDROOT
BRANCH   1   9
ATOM      9  N   UNL d   1      32.914  21.142 -21.834  0.00  0.00    -0.201 NA
ATOM     10  C   UNL d   1      32.952  20.330 -21.631  0.00  0.00     0.286 C 
ATOM     11  O   UNL d   1      32.994  20.070 -20.858  0.00  0.00    -0.265 OA
BRANCH  10  12
ATOM     12  C   UNL d   1      32.948  19.745 -22.236  0.00  0.00     0.087 A 
ATOM     13  S   UNL d   1      33.240  19.014 -22.048  0.00  0.00    -0.082 SA
ATOM     14  C   UNL d   1      33.174  18.535 -22.745  0.00  0.00     0.036 A 
ATOM     15  C   UNL d   1      32.846  18.989 -23.323  0.00  0.00     0.008 A 
ATOM     16  C   UNL d   1      32.706  19.734 -23.013  0.00  0.00     0.012 A 
ENDBRANCH  10  12
ENDBRANCH   1   9
BRANCH   2  17
ATOM     17  C   UNL d   1      32.524  22.938 -21.994  0.00  0.00     0.302 C 
ATOM     18  O   UNL d   1      31.749  23.235 -22.096  0.00  0.00    -0.259 OA
BRANCH  17  19
ATOM     19  O   UNL d   1      33.089  23.043 -22.609  0.00  0.00    -0.271 OA
BRANCH  19  20
ATOM     20  C   UNL d   1      33.013  23.702 -23.104  0.00  0.00     0.126 C 
ATOM     21  C   UNL d   1      33.034  23.611 -23.913  0.00  0.00     0.029 C 
ENDBRANCH  19  20
ENDBRANCH  17  19
ENDBRANCH   2  17
TORSDOF 5
ENDMDL
MODEL 2
REMARK VINA RESULT:      -2.6      2.530      5.408
REMARK  5 active torsions:
REMARK  status: ('A' for Active; 'I' for Inactive)
REMARK    1  A    between atoms: N_5  and  C_1 
REMARK    2  A    between atoms: C_8  and  C_2 
REMARK       I    between atoms: C_7  and  N_5 
REMARK    3  A    between atoms: C_9  and  C_7 
REMARK    4  A    between atoms: O_16  and  C_8 
REMARK    5  A    between atoms: C_20  and  O_16 
ROOT
ATOM      1  C   UNL d   1      32.627  17.943 -23.399  0.00  0.00     0.119 A 
ATOM      2  C   UNL d   1      32.149  17.552 -23.956  0.00  0.00     0.088 A 
ATOM      3  S   UNL d   1      33.135  17.402 -23.052  0.00  0.00    -0.068 SA
ATOM      4  C   UNL d   1      32.373  16.732 -23.952  0.00  0.00     0.013 A 
ATOM      5  C   UNL d   1      32.983  16.660 -23.388  0.00  0.00     0.031 A 
ATOM      6  C   UNL d   1      32.242  15.984 -24.269  0.00  0.00     0.001 A 
ATOM      7  C   UNL d   1      33.223  15.842 -23.367  0.00  0.00     0.006 A 
ATOM      8  C   UNL d   1      32.757  15.453 -23.912  0.00  0.00     0.001 A 
ENDROOT
BRANCH   1   9
ATOM      9  N   UNL d   1      32.605  18.781 -23.205  0.00  0.00    -0.201 NA
ATOM     10  C   UNL d   1      32.906  19.044 -22.469  0.00  0.00     0.286 C 
ATOM     11  O   UNL d   1      33.225  18.536 -21.916  0.00  0.00    -0.265 OA
BRANCH  10  12
ATOM     12  C   UNL d   1      32.886  19.864 -22.276  0.00  0.00     0.087 A 
ATOM     13  S   UNL d   1      32.861  20.059 -21.491  0.00  0.00    -0.082 SA
ATOM     14  C   UNL d   1      32.845  20.906 -21.449  0.00  0.00     0.036 A 
ATOM     15  C   UNL d   1      32.861  21.189 -22.202  0.00  0.00     0.008 A 
ATOM     16  C   UNL d   1      32.887  20.550 -22.713  0.00  0.00     0.012 A 
ENDBRANCH  10  12
ENDBRANCH   1   9
BRANCH   2  17
ATOM     17  C   UNL d   1      31.561  17.883 -24.433  0.00  0.00     0.302 C 
ATOM     18  O   UNL d   1      31.754  18.422 -25.042  0.00  0.00    -0.259 OA
BRANCH  17  19
ATOM     19  O   UNL d   1      30.754  17.676 -24.306  0.00  0.00    -0.271 OA
BRANCH  19  20
ATOM     20  C   UNL d   1      30.204  17.863 -24.896  0.00  0.00     0.126 C 
ATOM     21  C   UNL d   1      29.424  17.997 -24.700  0.00  0.00     0.029 C 
ENDBRANCH  19  20
ENDBRANCH  17  19
ENDBRANCH   2  17
TORSDOF 5
ENDMDL
MODEL 3
REMARK VINA RESULT:      -1.3      4.077      6.418
REMARK  5 active torsions:
REMARK  status: ('A' for Active; 'I' for Inactive)
REMARK    1  A    between atoms: N_5  and  C_1 
REMARK    2  A    between atoms: C_8  and  C_2 
REMARK       I    between atoms: C_7  and  N_5 
REMARK    3  A    between atoms: C_9  and  C_7 
REMARK    4  A    between atoms: O_16  and  C_8 
REMARK    5  A    between atoms: C_20  and  O_16 
ROOT
ATOM      1  C   UNL d   1      30.993  16.768 -24.255  0.00  0.00     0.119 A 
ATOM      2  C   UNL d   1      31.663  17.247 -24.374  0.00  0.00     0.088 A 
ATOM      3  S   UNL d   1      31.176  15.995 -24.451  0.00  0.00    -0.068 SA
ATOM      4  C   UNL d   1      32.287  16.744 -24.656  0.00  0.00     0.013 A 
ATOM      5  C   UNL d   1      31.967  15.975 -24.697  0.00  0.00     0.031 A 
ATOM      6  C   UNL d   1      33.071  16.697 -24.904  0.00  0.00     0.001 A 
ATOM      7  C   UNL d   1      32.579  15.453 -24.978  0.00  0.00     0.006 A 
ATOM      8  C   UNL d   1      33.240  15.917 -25.097  0.00  0.00     0.001 A 
ENDROOT
BRANCH   1   9
ATOM      9  N   UNL d   1      30.223  17.028 -23.972  0.00  0.00    -0.201 NA
ATOM     10  C   UNL d   1      29.579  16.493 -23.975  0.00  0.00     0.286 C 
ATOM     11  O   UNL d   1      29.645  15.723 -24.237  0.00  0.00    -0.265 OA
BRANCH  10  12
ATOM     12  C   UNL d   1      28.823  16.743 -23.699  0.00  0.00     0.087 A 
ATOM     13  S   UNL d   1      28.374  16.200 -23.301  0.00  0.00    -0.082 SA
ATOM     14  C   UNL d   1      27.651  16.587 -23.086  0.00  0.00     0.036 A 
ATOM     15  C   UNL d   1      27.689  17.343 -23.359  0.00  0.00     0.008 A 
ATOM     16  C   UNL d   1      28.409  17.443 -23.736  0.00  0.00     0.012 A 
ENDBRANCH  10  12
ENDBRANCH   1   9
BRANCH   2  17
ATOM     17  C   UNL d   1      31.727  18.061 -24.246  0.00  0.00     0.302 C 
ATOM     18  O   UNL d   1      31.300  18.605 -24.716  0.00  0.00    -0.259 OA
BRANCH  17  19
ATOM     19  O   UNL d   1      32.230  18.350 -23.635  0.00  0.00    -0.271 OA
BRANCH  19  20
ATOM     20  C   UNL d   1      32.224  19.162 -23.474  0.00  0.00     0.126 C 
ATOM     21  C   UNL d   1      32.485  19.437 -22.753  0.00  0.00     0.029 C 
ENDBRANCH  19  20
ENDBRANCH  17  19
ENDBRANCH   2  17
TORSDOF 5
ENDMDL
MODEL 4
REMARK VINA RESULT:      -0.9      1.386      2.556
REMARK  5 active torsions:
REMARK  status: ('A' for Active; 'I' for Inactive)
REMARK    1  A    between atoms: N_5  and  C_1 
REMARK    2  A    between atoms: C_8  and  C_2 
REMARK       I    between atoms: C_7  and  N_5 
REMARK    3  A    between atoms: C_9  and  C_7 
REMARK    4  A    between atoms: O_16  and  C_8 
REMARK    5  A    between atoms: C_20  and  O_16 
ROOT
ATOM      1  C   UNL d   1      33.065  21.034 -22.328  0.00  0.00     0.119 A 
ATOM      2  C   UNL d   1      32.884  21.594 -21.741  0.00  0.00     0.088 A 
ATOM      3  S   UNL d   1      33.218  21.422 -23.033  0.00  0.00    -0.068 SA
ATOM      4  C   UNL d   1      32.928  22.362 -22.100  0.00  0.00     0.013 A 
ATOM      5  C   UNL d   1      33.136  22.235 -22.898  0.00  0.00     0.031 A 
ATOM      6  C   UNL d   1      32.852  23.175 -21.993  0.00  0.00     0.001 A 
ATOM      7  C   UNL d   1      33.186  22.996 -23.279  0.00  0.00     0.006 A 
ATOM      8  C   UNL d   1      33.009  23.551 -22.707  0.00  0.00     0.001 A 
ENDROOT
BRANCH   1   9
ATOM      9  N   UNL d   1      33.091  20.180 -22.230  0.00  0.00    -0.201 NA
ATOM     10  C   UNL d   1      33.122  19.685 -22.905  0.00  0.00     0.286 C 
ATOM     11  O   UNL d   1      33.128  19.978 -23.667  0.00  0.00    -0.265 OA
BRANCH  10  12
ATOM     12  C   UNL d   1      33.148  18.848 -22.813  0.00  0.00     0.087 A 
ATOM     13  S   UNL d   1      33.067  18.398 -23.481  0.00  0.00    -0.082 SA
ATOM     14  C   UNL d   1      33.112  17.587 -23.238  0.00  0.00     0.036 A 
ATOM     15  C   UNL d   1      33.218  17.576 -22.440  0.00  0.00     0.008 A 
ATOM     16  C   UNL d   1      33.240  18.350 -22.175  0.00  0.00     0.012 A 
ENDBRANCH  10  12
ENDBRANCH   1   9
BRANCH   2  17
ATOM     17  C   UNL d   1      32.694  21.448 -20.950  0.00  0.00     0.302 C 
ATOM     18  O   UNL d   1      31.965  21.096 -20.740  0.00  0.00    -0.259 OA
BRANCH  17  19
ATOM     19  O   UNL d   1      33.241  21.655 -20.343  0.00  0.00    -0.271 OA
BRANCH  19  20
ATOM     20  C   UNL d   1      32.951  21.771 -19.577  0.00  0.00     0.126 C 
ATOM     21  C   UNL d   1      33.181  21.273 -18.974  0.00  0.00     0.029 C 
ENDBRANCH  19  20
ENDBRANCH  17  19
ENDBRANCH   2  17
TORSDOF 5
ENDMDL
MODEL 5
REMARK VINA RESULT:      -0.3      1.465      4.016
REMARK  5 active torsions:
REMARK  status: ('A' for Active; 'I' for Inactive)
REMARK    1  A    between atoms: N_5  and  C_1 
REMARK    2  A    between atoms: C_8  and  C_2 
REMARK       I    between atoms: C_7  and  N_5 
REMARK    3  A    between atoms: C_9  and  C_7 
REMARK    4  A    between atoms: O_16  and  C_8 
REMARK    5  A    between atoms: C_20  and  O_16 
ROOT
ATOM      1  C   UNL d   1      32.965  19.831 -22.865  0.00  0.00     0.119 A 
ATOM      2  C   UNL d   1      32.879  19.616 -23.665  0.00  0.00     0.088 A 
ATOM      3  S   UNL d   1      33.118  19.160 -22.421  0.00  0.00    -0.068 SA
ATOM      4  C   UNL d   1      32.985  18.775 -23.714  0.00  0.00     0.013 A 
ATOM      5  C   UNL d   1      33.131  18.511 -22.936  0.00  0.00     0.031 A 
ATOM      6  C   UNL d   1      33.003  18.114 -24.205  0.00  0.00     0.001 A 
ATOM      7  C   UNL d   1      33.240  17.667 -22.963  0.00  0.00     0.006 A 
ATOM      8  C   UNL d   1      33.157  17.450 -23.746  0.00  0.00     0.001 A 
ENDROOT
BRANCH   1   9
ATOM      9  N   UNL d   1      32.905  20.624 -22.540  0.00  0.00    -0.201 NA
ATOM     10  C   UNL d   1      32.667  20.729 -21.744  0.00  0.00     0.286 C 
ATOM     11  O   UNL d   1      32.484  20.104 -21.251  0.00  0.00    -0.265 OA
BRANCH  10  12
ATOM     12  C   UNL d   1      32.607  21.505 -21.421  0.00  0.00     0.087 A 
ATOM     13  S   UNL d   1      32.258  21.580 -20.695  0.00  0.00    -0.082 SA
ATOM     14  C   UNL d   1      32.268  22.405 -20.500  0.00  0.00     0.036 A 
ATOM     15  C   UNL d   1      32.619  22.796 -21.110  0.00  0.00     0.008 A 
ATOM     16  C   UNL d   1      32.829  22.245 -21.678  0.00  0.00     0.012 A 
ENDBRANCH  10  12
ENDBRANCH   1   9
BRANCH   2  17
ATOM     17  C   UNL d   1      32.721  20.116 -24.304  0.00  0.00     0.302 C 
ATOM     18  O   UNL d   1      32.163  19.902 -24.889  0.00  0.00    -0.259 OA
BRANCH  17  19
ATOM     19  O   UNL d   1      33.126  20.851 -24.370  0.00  0.00    -0.271 OA
BRANCH  19  20
ATOM     20  C   UNL d   1      33.052  21.277 -25.076  0.00  0.00     0.126 C 
ATOM     21  C   UNL d   1      33.241  22.070 -25.097  0.00  0.00     0.029 C 
ENDBRANCH  19  20
ENDBRANCH  17  19
ENDBRANCH   2  17
TORSDOF 5
ENDMDL
MODEL 6
REMARK VINA RESULT:      -0.3      2.415      4.220
REMARK  5 active torsions:
REMARK  status: ('A' for Active; 'I' for Inactive)
REMARK    1  A    between atoms: N_5  and  C_1 
REMARK    2  A    between atoms: C_8  and  C_2 
REMARK       I    between atoms: C_7  and  N_5 
REMARK    3  A    between atoms: C_9  and  C_7 
REMARK    4  A    between atoms: O_16  and  C_8 
REMARK    5  A    between atoms: C_20  and  O_16 
ROOT
ATOM      1  C   UNL d   1      32.781  18.938 -23.899  0.00  0.00     0.119 A 
ATOM      2  C   UNL d   1      32.955  19.552 -23.365  0.00  0.00     0.088 A 
ATOM      3  S   UNL d   1      32.782  19.235 -24.662  0.00  0.00    -0.068 SA
ATOM      4  C   UNL d   1      33.068  20.260 -23.822  0.00  0.00     0.013 A 
ATOM      5  C   UNL d   1      32.957  20.044 -24.620  0.00  0.00     0.031 A 
ATOM      6  C   UNL d   1      33.241  21.065 -23.808  0.00  0.00     0.001 A 
ATOM      7  C   UNL d   1      33.067  20.741 -25.097  0.00  0.00     0.006 A 
ATOM      8  C   UNL d   1      33.238  21.349 -24.579  0.00  0.00     0.001 A 
ENDROOT
BRANCH   1   9
ATOM      9  N   UNL d   1      32.622  18.117 -23.699  0.00  0.00    -0.201 NA
ATOM     10  C   UNL d   1      32.024  17.698 -24.109  0.00  0.00     0.286 C 
ATOM     11  O   UNL d   1      31.576  18.036 -24.702  0.00  0.00    -0.265 OA
BRANCH  10  12
ATOM     12  C   UNL d   1      31.867  16.893 -23.916  0.00  0.00     0.087 A 
ATOM     13  S   UNL d   1      31.097  16.692 -23.764  0.00  0.00    -0.082 SA
ATOM     14  C   UNL d   1      31.090  15.863 -23.587  0.00  0.00     0.036 A 
ATOM     15  C   UNL d   1      31.847  15.595 -23.637  0.00  0.00     0.008 A 
ATOM     16  C   UNL d   1      32.328  16.227 -23.839  0.00  0.00     0.012 A 
ENDBRANCH  10  12
ENDBRANCH   1   9
BRANCH   2  17
ATOM     17  C   UNL d   1      33.011  19.501 -22.543  0.00  0.00     0.302 C 
ATOM     18  O   UNL d   1      33.240  18.789 -22.170  0.00  0.00    -0.259 OA
BRANCH  17  19
ATOM     19  O   UNL d   1      32.836  20.176 -22.069  0.00  0.00    -0.271 OA
BRANCH  19  20
ATOM     20  C   UNL d   1      33.120  20.194 -21.292  0.00  0.00     0.126 C 
ATOM     21  C   UNL d   1      32.812  20.725 -20.756  0.00  0.00     0.029 C 
ENDBRANCH  19  20
ENDBRANCH  17  19
ENDBRANCH   2  17
TORSDOF 5
ENDMDL
