MODEL 1
REMARK VINA RESULT:      -3.7      0.000      0.000
REMARK  5 active torsions:
REMARK  status: ('A' for Active; 'I' for Inactive)
REMARK    1  A    between atoms: S_6  and  C_3 
REMARK    2  A    between atoms: C_10  and  C_4 
REMARK    3  A    between atoms: C_5  and  C_7 
REMARK    4  A    between atoms: C_9  and  C_5 
REMARK    5  A    between atoms: C_7  and  S_6 
ROOT
ATOM      1  N   UNL d   1      32.745  20.539 -21.194  0.00  0.00    -0.148 NA
ATOM      2  N   UNL d   1      32.856  19.893 -21.698  0.00  0.00    -0.141 NA
ATOM      3  C   UNL d   1      33.103  20.010 -22.476  0.00  0.00     0.133 A 
ATOM      4  C   UNL d   1      32.883  21.306 -21.474  0.00  0.00     0.103 A 
ATOM      5  C   UNL d   1      33.129  21.429 -22.248  0.00  0.00     0.023 A 
ATOM      6  C   UNL d   1      33.241  20.789 -22.752  0.00  0.00     0.029 A 
ENDROOT
BRANCH   3   7
ATOM      7  S   UNL d   1      33.212  19.367 -22.972  0.00  0.00    -0.062 SA
BRANCH   7   8
ATOM      8  C   UNL d   1      32.589  18.846 -23.116  0.00  0.00     0.079 C 
BRANCH   8   9
ATOM      9  C   UNL d   1      32.636  18.301 -23.749  0.00  0.00     0.202 C 
ATOM     10  O   UNL d   1      33.241  18.360 -24.292  0.00  0.00    -0.286 OA
BRANCH   9  11
ATOM     11  C   UNL d   1      32.071  17.710 -23.817  0.00  0.00     0.040 A 
ATOM     12  C   UNL d   1      31.378  17.849 -24.241  0.00  0.00     0.003 A 
ATOM     13  C   UNL d   1      30.805  17.263 -24.315  0.00  0.00     0.000 A 
ATOM     14  C   UNL d   1      30.936  16.522 -23.953  0.00  0.00     0.000 A 
ATOM     15  C   UNL d   1      31.630  16.383 -23.530  0.00  0.00     0.000 A 
ATOM     16  C   UNL d   1      32.193  16.981 -23.466  0.00  0.00     0.003 A 
ENDBRANCH   9  11
ENDBRANCH   8   9
ENDBRANCH   7   8
ENDBRANCH   3   7
BRANCH   4  17
ATOM     17  C   UNL d   1      32.772  21.952 -20.970  0.00  0.00     0.019 A 
ATOM     18  C   UNL d   1      32.235  22.555 -21.176  0.00  0.00     0.002 A 
ATOM     19  C   UNL d   1      32.124  23.204 -20.669  0.00  0.00     0.000 A 
ATOM     20  C   UNL d   1      32.548  23.254 -19.955  0.00  0.00     0.000 A 
ATOM     21  C   UNL d   1      33.075  22.662 -19.753  0.00  0.00     0.000 A 
ATOM     22  C   UNL d   1      33.195  22.008 -20.252  0.00  0.00     0.002 A 
ENDBRANCH   4  17
TORSDOF 5
ENDMDL
MODEL 2
REMARK VINA RESULT:      -1.9      2.149      5.707
REMARK  5 active torsions:
REMARK  status: ('A' for Active; 'I' for Inactive)
REMARK    1  A    between atoms: S_6  and  C_3 
REMARK    2  A    between atoms: C_10  and  C_4 
REMARK    3  A    between atoms: C_5  and  C_7 
REMARK    4  A    between atoms: C_9  and  C_5 
REMARK    5  A    between atoms: C_7  and  S_6 
ROOT
ATOM      1  N   UNL d   1      29.964  17.244 -24.354  0.00  0.00    -0.148 NA
ATOM      2  N   UNL d   1      30.716  17.584 -24.397  0.00  0.00    -0.141 NA
ATOM      3  C   UNL d   1      31.373  17.179 -24.106  0.00  0.00     0.133 A 
ATOM      4  C   UNL d   1      29.872  16.493 -24.016  0.00  0.00     0.103 A 
ATOM      5  C   UNL d   1      30.523  16.085 -23.724  0.00  0.00     0.023 A 
ATOM      6  C   UNL d   1      31.273  16.421 -23.766  0.00  0.00     0.029 A 
ENDROOT
BRANCH   3   7
ATOM      7  S   UNL d   1      32.117  17.520 -24.151  0.00  0.00    -0.062 SA
BRANCH   7   8
ATOM      8  C   UNL d   1      32.359  18.061 -23.578  0.00  0.00     0.079 C 
BRANCH   8   9
ATOM      9  C   UNL d   1      32.815  18.729 -23.797  0.00  0.00     0.202 C 
ATOM     10  O   UNL d   1      33.114  18.785 -24.553  0.00  0.00    -0.286 OA
BRANCH   9  11
ATOM     11  C   UNL d   1      32.956  19.320 -23.247  0.00  0.00     0.040 A 
ATOM     12  C   UNL d   1      33.097  20.092 -23.500  0.00  0.00     0.003 A 
ATOM     13  C   UNL d   1      33.240  20.693 -22.956  0.00  0.00     0.000 A 
ATOM     14  C   UNL d   1      33.240  20.510 -22.141  0.00  0.00     0.000 A 
ATOM     15  C   UNL d   1      33.099  19.737 -21.889  0.00  0.00     0.000 A 
ATOM     16  C   UNL d   1      32.958  19.148 -22.448  0.00  0.00     0.003 A 
ENDBRANCH   9  11
ENDBRANCH   8   9
ENDBRANCH   7   8
ENDBRANCH   3   7
BRANCH   4  17
ATOM     17  C   UNL d   1      29.120  16.153 -23.972  0.00  0.00     0.019 A 
ATOM     18  C   UNL d   1      28.696  16.168 -23.256  0.00  0.00     0.002 A 
ATOM     19  C   UNL d   1      27.940  15.826 -23.212  0.00  0.00     0.000 A 
ATOM     20  C   UNL d   1      27.604  15.468 -23.884  0.00  0.00     0.000 A 
ATOM     21  C   UNL d   1      28.021  15.453 -24.588  0.00  0.00     0.000 A 
ATOM     22  C   UNL d   1      28.778  15.791 -24.644  0.00  0.00     0.002 A 
ENDBRANCH   4  17
TORSDOF 5
ENDMDL
MODEL 3
REMARK VINA RESULT:      -1.3      1.308      2.232
REMARK  5 active torsions:
REMARK  status: ('A' for Active; 'I' for Inactive)
REMARK    1  A    between atoms: S_6  and  C_3 
REMARK    2  A    between atoms: C_10  and  C_4 
REMARK    3  A    between atoms: C_5  and  C_7 
REMARK    4  A    between atoms: C_9  and  C_5 
REMARK    5  A    between atoms: C_7  and  S_6 
ROOT
ATOM      1  N   UNL d   1      32.021  19.347 -22.569  0.00  0.00    -0.148 NA
ATOM      2  N   UNL d   1      31.857  18.643 -22.970  0.00  0.00    -0.141 NA
ATOM      3  C   UNL d   1      32.370  18.367 -23.554  0.00  0.00     0.133 A 
ATOM      4  C   UNL d   1      32.704  19.776 -22.757  0.00  0.00     0.103 A 
ATOM      5  C   UNL d   1      33.219  19.507 -23.338  0.00  0.00     0.023 A 
ATOM      6  C   UNL d   1      33.059  18.806 -23.739  0.00  0.00     0.029 A 
ENDROOT
BRANCH   3   7
ATOM      7  S   UNL d   1      32.204  17.668 -23.949  0.00  0.00    -0.062 SA
BRANCH   7   8
ATOM      8  C   UNL d   1      31.428  17.392 -23.991  0.00  0.00     0.079 C 
BRANCH   8   9
ATOM      9  C   UNL d   1      31.267  16.643 -24.330  0.00  0.00     0.202 C 
ATOM     10  O   UNL d   1      31.863  16.230 -24.702  0.00  0.00    -0.286 OA
BRANCH   9  11
ATOM     11  C   UNL d   1      30.510  16.333 -24.284  0.00  0.00     0.040 A 
ATOM     12  C   UNL d   1      30.328  15.770 -23.710  0.00  0.00     0.003 A 
ATOM     13  C   UNL d   1      29.571  15.453 -23.656  0.00  0.00     0.000 A 
ATOM     14  C   UNL d   1      28.985  15.709 -24.193  0.00  0.00     0.000 A 
ATOM     15  C   UNL d   1      29.167  16.273 -24.768  0.00  0.00     0.000 A 
ATOM     16  C   UNL d   1      29.931  16.580 -24.807  0.00  0.00     0.003 A 
ENDBRANCH   9  11
ENDBRANCH   8   9
ENDBRANCH   7   8
ENDBRANCH   3   7
BRANCH   4  17
ATOM     17  C   UNL d   1      32.868  20.481 -22.357  0.00  0.00     0.019 A 
ATOM     18  C   UNL d   1      33.076  21.165 -22.783  0.00  0.00     0.002 A 
ATOM     19  C   UNL d   1      33.241  21.873 -22.380  0.00  0.00     0.000 A 
ATOM     20  C   UNL d   1      33.198  21.900 -21.549  0.00  0.00     0.000 A 
ATOM     21  C   UNL d   1      32.994  21.227 -21.130  0.00  0.00     0.000 A 
ATOM     22  C   UNL d   1      32.827  20.514 -21.523  0.00  0.00     0.002 A 
ENDBRANCH   4  17
TORSDOF 5
ENDMDL
MODEL 4
REMARK VINA RESULT:      -1.0      0.711      1.186
REMARK  5 active torsions:
REMARK  status: ('A' for Active; 'I' for Inactive)
REMARK    1  A    between atoms: S_6  and  C_3 
REMARK    2  A    between atoms: C_10  and  C_4 
REMARK    3  A    between atoms: C_5  and  C_7 
REMARK    4  A    between atoms: C_9  and  C_5 
REMARK    5  A    between atoms: C_7  and  S_6 
ROOT
ATOM      1  N   UNL d   1      32.414  21.023 -20.893  0.00  0.00    -0.148 NA
ATOM      2  N   UNL d   1      32.597  20.406 -21.412  0.00  0.00    -0.141 NA
ATOM      3  C   UNL d   1      32.955  20.565 -22.138  0.00  0.00     0.133 A 
ATOM      4  C   UNL d   1      32.593  21.803 -21.105  0.00  0.00     0.103 A 
ATOM      5  C   UNL d   1      32.950  21.968 -21.825  0.00  0.00     0.023 A 
ATOM      6  C   UNL d   1      33.133  21.357 -22.345  0.00  0.00     0.029 A 
ENDROOT
BRANCH   3   7
ATOM      7  S   UNL d   1      33.135  19.951 -22.649  0.00  0.00    -0.062 SA
BRANCH   7   8
ATOM      8  C   UNL d   1      32.529  19.513 -22.998  0.00  0.00     0.079 C 
BRANCH   8   9
ATOM      9  C   UNL d   1      32.611  19.234 -23.783  0.00  0.00     0.202 C 
ATOM     10  O   UNL d   1      32.921  19.722 -24.357  0.00  0.00    -0.286 OA
BRANCH   9  11
ATOM     11  C   UNL d   1      32.377  18.470 -23.967  0.00  0.00     0.040 A 
ATOM     12  C   UNL d   1      32.495  17.861 -23.424  0.00  0.00     0.003 A 
ATOM     13  C   UNL d   1      32.264  17.091 -23.599  0.00  0.00     0.000 A 
ATOM     14  C   UNL d   1      31.906  16.933 -24.337  0.00  0.00     0.000 A 
ATOM     15  C   UNL d   1      31.789  17.543 -24.880  0.00  0.00     0.000 A 
ATOM     16  C   UNL d   1      32.026  18.308 -24.688  0.00  0.00     0.003 A 
ENDBRANCH   9  11
ENDBRANCH   8   9
ENDBRANCH   7   8
ENDBRANCH   3   7
BRANCH   4  17
ATOM     17  C   UNL d   1      32.411  22.421 -20.585  0.00  0.00     0.019 A 
ATOM     18  C   UNL d   1      32.881  22.552 -19.911  0.00  0.00     0.002 A 
ATOM     19  C   UNL d   1      32.697  23.172 -19.389  0.00  0.00     0.000 A 
ATOM     20  C   UNL d   1      32.043  23.664 -19.539  0.00  0.00     0.000 A 
ATOM     21  C   UNL d   1      31.580  23.534 -20.202  0.00  0.00     0.000 A 
ATOM     22  C   UNL d   1      31.754  22.917 -20.730  0.00  0.00     0.002 A 
ENDBRANCH   4  17
TORSDOF 5
ENDMDL
MODEL 5
REMARK VINA RESULT:      -0.9      2.914      5.870
REMARK  5 active torsions:
REMARK  status: ('A' for Active; 'I' for Inactive)
REMARK    1  A    between atoms: S_6  and  C_3 
REMARK    2  A    between atoms: C_10  and  C_4 
REMARK    3  A    between atoms: C_5  and  C_7 
REMARK    4  A    between atoms: C_9  and  C_5 
REMARK    5  A    between atoms: C_7  and  S_6 
ROOT
ATOM      1  N   UNL d   1      29.903  15.737 -23.262  0.00  0.00    -0.148 NA
ATOM      2  N   UNL d   1      30.692  15.947 -23.390  0.00  0.00    -0.141 NA
ATOM      3  C   UNL d   1      30.886  16.507 -23.963  0.00  0.00     0.133 A 
ATOM      4  C   UNL d   1      29.306  16.093 -23.713  0.00  0.00     0.103 A 
ATOM      5  C   UNL d   1      29.492  16.651 -24.285  0.00  0.00     0.023 A 
ATOM      6  C   UNL d   1      30.277  16.863 -24.415  0.00  0.00     0.029 A 
ENDROOT
BRANCH   3   7
ATOM      7  S   UNL d   1      31.669  16.713 -24.087  0.00  0.00    -0.062 SA
BRANCH   7   8
ATOM      8  C   UNL d   1      31.937  17.464 -23.877  0.00  0.00     0.079 C 
BRANCH   8   9
ATOM      9  C   UNL d   1      32.692  17.726 -24.128  0.00  0.00     0.202 C 
ATOM     10  O   UNL d   1      33.241  17.186 -24.395  0.00  0.00    -0.286 OA
BRANCH   9  11
ATOM     11  C   UNL d   1      32.872  18.526 -24.102  0.00  0.00     0.040 A 
ATOM     12  C   UNL d   1      32.988  18.899 -23.377  0.00  0.00     0.003 A 
ATOM     13  C   UNL d   1      33.169  19.701 -23.340  0.00  0.00     0.000 A 
ATOM     14  C   UNL d   1      33.233  20.134 -24.051  0.00  0.00     0.000 A 
ATOM     15  C   UNL d   1      33.117  19.760 -24.777  0.00  0.00     0.000 A 
ATOM     16  C   UNL d   1      32.937  18.956 -24.795  0.00  0.00     0.003 A 
ENDBRANCH   9  11
ENDBRANCH   8   9
ENDBRANCH   7   8
ENDBRANCH   3   7
BRANCH   4  17
ATOM     17  C   UNL d   1      28.516  15.882 -23.585  0.00  0.00     0.019 A 
ATOM     18  C   UNL d   1      28.033  15.666 -24.227  0.00  0.00     0.002 A 
ATOM     19  C   UNL d   1      27.239  15.455 -24.098  0.00  0.00     0.000 A 
ATOM     20  C   UNL d   1      26.926  15.459 -23.328  0.00  0.00     0.000 A 
ATOM     21  C   UNL d   1      27.401  15.672 -22.696  0.00  0.00     0.000 A 
ATOM     22  C   UNL d   1      28.196  15.885 -22.813  0.00  0.00     0.002 A 
ENDBRANCH   4  17
TORSDOF 5
ENDMDL
