MODEL 1
REMARK VINA RESULT:     -10.9      0.000      0.000
REMARK  4 active torsions:
REMARK  status: ('A' for Active; 'I' for Inactive)
REMARK    1  A    between atoms: N_6  and  C_1 
REMARK       I    between atoms: C_9  and  N_6 
REMARK    2  A    between atoms: C_15  and  C_9 
REMARK    3  A    between atoms: C_13  and  C_16 
REMARK    4  A    between atoms: C_19  and  C_13 
ROOT
ATOM      1  C   UNL d   1      51.781  33.949  53.135  0.00  0.00     0.123 A 
ATOM      2  C   UNL d   1      52.441  34.178  53.576  0.00  0.00     0.092 A 
ATOM      3  C   UNL d   1      52.929  33.523  53.650  0.00  0.00     0.013 A 
ATOM      4  C   UNL d   1      52.584  32.894  53.264  0.00  0.00     0.029 A 
ATOM      5  S   UNL d   1      51.867  33.151  52.940  0.00  0.00    -0.070 SA
ATOM      6  C   UNL d   1      52.957  32.153  53.248  0.00  0.00     0.104 A 
ATOM      7  N   UNL d   1      53.682  32.053  53.624  0.00  0.00    -0.294 NA
ATOM      8  C   UNL d   1      52.570  34.928  53.877  0.00  0.00     0.103 C 
ATOM      9  C   UNL d   1      54.033  32.692  54.016  0.00  0.00     0.099 A 
ATOM     10  C   UNL d   1      53.658  33.429  54.031  0.00  0.00    -0.004 A 
ATOM     11  N   UNL d   1      52.704  35.671  54.179  0.00  0.00    -0.191 NA
ATOM     12  C   UNL d   1      52.259  32.044  52.823  0.00  0.00     0.029 C 
ATOM     13  C   UNL d   1      53.165  31.362  53.124  0.00  0.00     0.029 C 
ATOM     14  C   UNL d   1      54.411  31.960  54.006  0.00  0.00     0.029 C 
ATOM     15  C   UNL d   1      54.383  33.331  54.408  0.00  0.00     0.029 C 
ENDROOT
BRANCH   1  16
ATOM     16  N   UNL d   1      51.142  34.430  52.923  0.00  0.00    -0.201 NA
ATOM     17  C   UNL d   1      50.370  34.151  53.003  0.00  0.00     0.280 C 
ATOM     18  O   UNL d   1      50.229  33.394  53.292  0.00  0.00    -0.265 OA
BRANCH  17  19
ATOM     19  C   UNL d   1      49.741  34.624  52.794  0.00  0.00     0.058 A 
ATOM     20  C   UNL d   1      49.408  34.563  52.041  0.00  0.00     0.005 A 
ATOM     21  C   UNL d   1      48.769  35.045  51.828  0.00  0.00     0.003 A 
ATOM     22  C   UNL d   1      48.463  35.587  52.369  0.00  0.00     0.039 A 
ATOM     23  C   UNL d   1      48.794  35.643  53.111  0.00  0.00     0.003 A 
ATOM     24  C   UNL d   1      49.433  35.162  53.324  0.00  0.00     0.005 A 
BRANCH  22  25
ATOM     25  C   UNL d   1      47.826  36.064  52.155  0.00  0.00     0.196 C 
ATOM     26  O   UNL d   1      47.945  36.709  51.666  0.00  0.00    -0.287 OA
BRANCH  25  27
ATOM     27  C   UNL d   1      47.073  35.890  52.433  0.00  0.00     0.039 A 
ATOM     28  C   UNL d   1      46.846  36.103  53.188  0.00  0.00     0.003 A 
ATOM     29  C   UNL d   1      46.093  35.929  53.466  0.00  0.00     0.000 A 
ATOM     30  C   UNL d   1      45.559  35.533  52.975  0.00  0.00     0.000 A 
ATOM     31  C   UNL d   1      45.783  35.316  52.210  0.00  0.00     0.000 A 
ATOM     32  C   UNL d   1      46.539  35.494  51.941  0.00  0.00     0.003 A 
ENDBRANCH  25  27
ENDBRANCH  22  25
ENDBRANCH  17  19
ENDBRANCH   1  16
TORSDOF 4
ENDMDL
MODEL 2
REMARK VINA RESULT:     -10.8      1.610      6.276
REMARK  4 active torsions:
REMARK  status: ('A' for Active; 'I' for Inactive)
REMARK    1  A    between atoms: N_6  and  C_1 
REMARK       I    between atoms: C_9  and  N_6 
REMARK    2  A    between atoms: C_15  and  C_9 
REMARK    3  A    between atoms: C_13  and  C_16 
REMARK    4  A    between atoms: C_19  and  C_13 
ROOT
ATOM      1  C   UNL d   1      49.186  34.829  52.731  0.00  0.00     0.123 A 
ATOM      2  C   UNL d   1      48.669  34.880  52.090  0.00  0.00     0.092 A 
ATOM      3  C   UNL d   1      48.064  35.394  52.299  0.00  0.00     0.013 A 
ATOM      4  C   UNL d   1      48.199  35.661  53.057  0.00  0.00     0.029 A 
ATOM      5  S   UNL d   1      48.897  35.313  53.334  0.00  0.00    -0.070 SA
ATOM      6  C   UNL d   1      47.673  36.193  53.417  0.00  0.00     0.104 A 
ATOM      7  N   UNL d   1      47.010  36.453  53.003  0.00  0.00    -0.294 NA
ATOM      8  C   UNL d   1      48.756  34.483  51.379  0.00  0.00     0.103 C 
ATOM      9  C   UNL d   1      46.874  36.181  52.233  0.00  0.00     0.099 A 
ATOM     10  C   UNL d   1      47.400  35.652  51.878  0.00  0.00    -0.004 A 
ATOM     11  N   UNL d   1      48.838  34.092  50.672  0.00  0.00    -0.191 NA
ATOM     12  C   UNL d   1      48.256  36.061  53.984  0.00  0.00     0.029 C 
ATOM     13  C   UNL d   1      47.277  36.708  53.930  0.00  0.00     0.029 C 
ATOM     14  C   UNL d   1      46.345  36.709  52.581  0.00  0.00     0.029 C 
ATOM     15  C   UNL d   1      46.737  35.911  51.463  0.00  0.00     0.029 C 
ENDROOT
BRANCH   1  16
ATOM     16  N   UNL d   1      49.876  34.373  52.770  0.00  0.00    -0.201 NA
ATOM     17  C   UNL d   1      50.543  34.665  53.156  0.00  0.00     0.280 C 
ATOM     18  O   UNL d   1      50.529  35.409  53.506  0.00  0.00    -0.265 OA
BRANCH  17  19
ATOM     19  C   UNL d   1      51.222  34.216  53.194  0.00  0.00     0.058 A 
ATOM     20  C   UNL d   1      51.928  34.506  52.880  0.00  0.00     0.005 A 
ATOM     21  C   UNL d   1      52.618  34.050  52.918  0.00  0.00     0.003 A 
ATOM     22  C   UNL d   1      52.602  33.305  53.270  0.00  0.00     0.039 A 
ATOM     23  C   UNL d   1      51.903  33.023  53.579  0.00  0.00     0.003 A 
ATOM     24  C   UNL d   1      51.213  33.479  53.541  0.00  0.00     0.005 A 
BRANCH  22  25
ATOM     25  C   UNL d   1      53.290  32.854  53.307  0.00  0.00     0.196 C 
ATOM     26  O   UNL d   1      53.419  32.258  52.761  0.00  0.00    -0.287 OA
BRANCH  25  27
ATOM     27  C   UNL d   1      53.847  33.005  53.892  0.00  0.00     0.039 A 
ATOM     28  C   UNL d   1      53.707  32.789  54.668  0.00  0.00     0.003 A 
ATOM     29  C   UNL d   1      54.264  32.940  55.253  0.00  0.00     0.000 A 
ATOM     30  C   UNL d   1      54.973  33.314  55.054  0.00  0.00     0.000 A 
ATOM     31  C   UNL d   1      55.120  33.534  54.271  0.00  0.00     0.000 A 
ATOM     32  C   UNL d   1      54.557  33.379  53.693  0.00  0.00     0.003 A 
ENDBRANCH  25  27
ENDBRANCH  22  25
ENDBRANCH  17  19
ENDBRANCH   1  16
TORSDOF 4
ENDMDL
MODEL 3
REMARK VINA RESULT:      -9.8      1.721      6.183
REMARK  4 active torsions:
REMARK  status: ('A' for Active; 'I' for Inactive)
REMARK    1  A    between atoms: N_6  and  C_1 
REMARK       I    between atoms: C_9  and  N_6 
REMARK    2  A    between atoms: C_15  and  C_9 
REMARK    3  A    between atoms: C_13  and  C_16 
REMARK    4  A    between atoms: C_19  and  C_13 
ROOT
ATOM      1  C   UNL d   1      48.640  35.496  52.578  0.00  0.00     0.123 A 
ATOM      2  C   UNL d   1      48.111  35.939  53.031  0.00  0.00     0.092 A 
ATOM      3  C   UNL d   1      47.403  35.978  52.619  0.00  0.00     0.013 A 
ATOM      4  C   UNL d   1      47.485  35.566  51.920  0.00  0.00     0.029 A 
ATOM      5  S   UNL d   1      48.254  35.263  51.886  0.00  0.00    -0.070 SA
ATOM      6  C   UNL d   1      46.851  35.511  51.386  0.00  0.00     0.104 A 
ATOM      7  N   UNL d   1      46.135  35.875  51.565  0.00  0.00    -0.294 NA
ATOM      8  C   UNL d   1      48.277  36.274  53.759  0.00  0.00     0.103 C 
ATOM      9  C   UNL d   1      46.052  36.292  52.275  0.00  0.00     0.099 A 
ATOM     10  C   UNL d   1      46.685  36.345  52.804  0.00  0.00    -0.004 A 
ATOM     11  N   UNL d   1      48.437  36.609  54.483  0.00  0.00    -0.191 NA
ATOM     12  C   UNL d   1      47.463  35.089  51.028  0.00  0.00     0.029 C 
ATOM     13  C   UNL d   1      46.353  35.348  50.746  0.00  0.00     0.029 C 
ATOM     14  C   UNL d   1      45.417  36.243  51.751  0.00  0.00     0.029 C 
ATOM     15  C   UNL d   1      45.968  36.709  52.984  0.00  0.00     0.029 C 
ENDROOT
BRANCH   1  16
ATOM     16  N   UNL d   1      49.423  35.314  52.777  0.00  0.00    -0.201 NA
ATOM     17  C   UNL d   1      49.754  34.597  52.537  0.00  0.00     0.280 C 
ATOM     18  O   UNL d   1      49.311  34.060  52.100  0.00  0.00    -0.265 OA
BRANCH  17  19
ATOM     19  C   UNL d   1      50.524  34.418  52.733  0.00  0.00     0.058 A 
ATOM     20  C   UNL d   1      51.115  34.447  52.158  0.00  0.00     0.005 A 
ATOM     21  C   UNL d   1      51.898  34.265  52.357  0.00  0.00     0.003 A 
ATOM     22  C   UNL d   1      52.089  34.054  53.131  0.00  0.00     0.039 A 
ATOM     23  C   UNL d   1      51.502  34.026  53.695  0.00  0.00     0.003 A 
ATOM     24  C   UNL d   1      50.719  34.208  53.496  0.00  0.00     0.005 A 
BRANCH  22  25
ATOM     25  C   UNL d   1      52.869  33.873  53.325  0.00  0.00     0.196 C 
ATOM     26  O   UNL d   1      53.425  34.470  53.384  0.00  0.00    -0.287 OA
BRANCH  25  27
ATOM     27  C   UNL d   1      53.086  33.092  53.459  0.00  0.00     0.039 A 
ATOM     28  C   UNL d   1      52.951  32.517  52.893  0.00  0.00     0.003 A 
ATOM     29  C   UNL d   1      53.169  31.736  53.027  0.00  0.00     0.000 A 
ATOM     30  C   UNL d   1      53.527  31.530  53.743  0.00  0.00     0.000 A 
ATOM     31  C   UNL d   1      53.665  32.107  54.318  0.00  0.00     0.000 A 
ATOM     32  C   UNL d   1      53.445  32.885  54.175  0.00  0.00     0.003 A 
ENDBRANCH  25  27
ENDBRANCH  22  25
ENDBRANCH  17  19
ENDBRANCH   1  16
TORSDOF 4
ENDMDL
