MODEL 1
REMARK VINA RESULT:      12.6      0.000      0.000
REMARK  4 active torsions:
REMARK  status: ('A' for Active; 'I' for Inactive)
REMARK    1  A    between atoms: C_3  and  C_1 
REMARK    2  A    between atoms: C_2  and  C_3 
REMARK    3  A    between atoms: C_6  and  C_2 
REMARK    4  A    between atoms: C_4  and  C_6 
ROOT
ATOM      1  C   UNL d   1     -51.481  24.972  33.307  0.00  0.00     0.043 C 
ENDROOT
BRANCH   1   2
ATOM      2  C   UNL d   1     -51.611  24.170  33.418  0.00  0.00     0.202 C 
ATOM      3  O   UNL d   1     -51.023  23.606  33.330  0.00  0.00    -0.286 OA
BRANCH   2   4
ATOM      4  C   UNL d   1     -52.371  23.876  33.634  0.00  0.00     0.068 A 
ATOM      5  S   UNL d   1     -53.098  24.077  33.308  0.00  0.00    -0.083 SA
ATOM      6  C   UNL d   1     -53.694  23.664  33.679  0.00  0.00     0.035 A 
ATOM      7  C   UNL d   1     -53.319  23.192  34.255  0.00  0.00     0.008 A 
ATOM      8  C   UNL d   1     -52.522  23.307  34.242  0.00  0.00     0.010 A 
ENDBRANCH   2   4
ENDBRANCH   1   2
BRANCH   1   9
ATOM      9  C   UNL d   1     -50.726  25.273  33.456  0.00  0.00     0.010 C 
BRANCH   9  10
ATOM     10  C   UNL d   1     -50.615  26.094  33.419  0.00  0.00     0.030 A 
ATOM     11  S   UNL d   1     -51.132  26.725  33.463  0.00  0.00    -0.086 SA
ATOM     12  C   UNL d   1     -50.685  27.420  33.390  0.00  0.00     0.035 A 
ATOM     13  C   UNL d   1     -49.947  27.208  33.309  0.00  0.00     0.007 A 
ATOM     14  C   UNL d   1     -49.864  26.422  33.321  0.00  0.00     0.007 A 
ENDBRANCH   9  10
ENDBRANCH   1   9
TORSDOF 4
ENDMDL
