MODEL 1
REMARK VINA RESULT:      -4.4      0.000      0.000
REMARK  6 active torsions:
REMARK  status: ('A' for Active; 'I' for Inactive)
REMARK    1  A    between atoms: C_10  and  C_3 
REMARK    2  A    between atoms: S_9  and  C_4 
REMARK       I    between atoms: N_6  and  C_7 
REMARK    3  A    between atoms: C_8  and  N_6 
REMARK    4  A    between atoms: C_7  and  C_14 
REMARK    5  A    between atoms: C_14  and  S_9 
REMARK    6  A    between atoms: O_15  and  C_12 
ROOT
ATOM      1  S   UNL d   1      58.694   0.324  30.412  0.00  0.00    -0.036 SA
ENDROOT
BRANCH   1   2
ATOM      2  C   UNL d   1      57.925   0.379  30.766  0.00  0.00     0.236 A 
ATOM      3  O   UNL d   1      57.796   0.098  31.529  0.00  0.00    -0.263 OA
ATOM      4  C   UNL d   1      57.020   0.221  31.722  0.00  0.00     0.205 A 
ATOM      5  N   UNL d   1      56.656   0.583  31.074  0.00  0.00    -0.120 NA
ATOM      6  N   UNL d   1      57.208   0.679  30.492  0.00  0.00    -0.114 NA
BRANCH   4   7
ATOM      7  C   UNL d   1      56.628   0.036  32.419  0.00  0.00     0.046 A 
ATOM      8  C   UNL d   1      56.086  -0.574  32.433  0.00  0.00     0.024 A 
ATOM      9  C   UNL d   1      55.686  -0.761  33.148  0.00  0.00     0.099 A 
ATOM     10  N   UNL d   1      55.847  -0.324  33.828  0.00  0.00    -0.242 NA
ATOM     11  C   UNL d   1      56.411   0.309  33.809  0.00  0.00     0.099 A 
ATOM     12  C   UNL d   1      56.793   0.481  33.106  0.00  0.00     0.024 A 
ENDBRANCH   4   7
ENDBRANCH   1   2
BRANCH   1  13
ATOM     13  C   UNL d   1      58.746   0.085  29.623  0.00  0.00     0.101 C 
BRANCH  13  14
ATOM     14  C   UNL d   1      59.346  -0.440  29.422  0.00  0.00     0.286 C 
ATOM     15  N   UNL d   1      59.151  -1.190  29.121  0.00  0.00    -0.206 NA
ATOM     16  O   UNL d   1      60.143  -0.249  29.508  0.00  0.00    -0.265 OA
BRANCH  15  17
ATOM     17  C   UNL d   1      59.740  -1.726  28.915  0.00  0.00     0.107 A 
ATOM     18  C   UNL d   1      59.572  -2.551  28.823  0.00  0.00     0.112 A 
ATOM     19  C   UNL d   1      60.160  -3.064  28.620  0.00  0.00     0.026 A 
ATOM     20  C   UNL d   1      60.936  -2.815  28.496  0.00  0.00     0.002 A 
ATOM     21  C   UNL d   1      61.133  -2.017  28.578  0.00  0.00     0.002 A 
ATOM     22  C   UNL d   1      60.538  -1.476  28.786  0.00  0.00     0.021 A 
BRANCH  18  23
ATOM     23  O   UNL d   1      58.774  -2.801  28.952  0.00  0.00    -0.327 OA
ATOM     24  C   UNL d   1      58.524  -3.514  28.569  0.00  0.00     0.181 C 
ENDBRANCH  18  23
ENDBRANCH  15  17
ENDBRANCH  13  14
ENDBRANCH   1  13
TORSDOF 6
ENDMDL
MODEL 2
REMARK VINA RESULT:      -4.0      1.253      5.611
REMARK  6 active torsions:
REMARK  status: ('A' for Active; 'I' for Inactive)
REMARK    1  A    between atoms: C_10  and  C_3 
REMARK    2  A    between atoms: S_9  and  C_4 
REMARK       I    between atoms: N_6  and  C_7 
REMARK    3  A    between atoms: C_8  and  N_6 
REMARK    4  A    between atoms: C_7  and  C_14 
REMARK    5  A    between atoms: C_14  and  S_9 
REMARK    6  A    between atoms: O_15  and  C_12 
ROOT
ATOM      1  S   UNL d   1      57.638  -0.555  30.599  0.00  0.00    -0.036 SA
ENDROOT
BRANCH   1   2
ATOM      2  C   UNL d   1      58.315  -0.824  30.166  0.00  0.00     0.236 A 
ATOM      3  O   UNL d   1      58.366  -1.606  29.915  0.00  0.00    -0.263 OA
ATOM      4  C   UNL d   1      59.065  -1.705  29.519  0.00  0.00     0.205 A 
ATOM      5  N   UNL d   1      59.458  -0.978  29.520  0.00  0.00    -0.120 NA
ATOM      6  N   UNL d   1      59.001  -0.441  29.915  0.00  0.00    -0.114 NA
BRANCH   4   7
ATOM      7  C   UNL d   1      59.365  -2.384  29.167  0.00  0.00     0.046 A 
ATOM      8  C   UNL d   1      60.157  -2.429  28.978  0.00  0.00     0.024 A 
ATOM      9  C   UNL d   1      60.461  -3.125  28.618  0.00  0.00     0.099 A 
ATOM     10  N   UNL d   1      59.953  -3.754  28.459  0.00  0.00    -0.242 NA
ATOM     11  C   UNL d   1      59.130  -3.702  28.657  0.00  0.00     0.099 A 
ATOM     12  C   UNL d   1      58.847  -3.019  29.007  0.00  0.00     0.024 A 
ENDBRANCH   4   7
ENDBRANCH   1   2
BRANCH   1  13
ATOM     13  C   UNL d   1      57.762  -0.128  31.295  0.00  0.00     0.101 C 
BRANCH  13  14
ATOM     14  C   UNL d   1      57.135  -0.069  31.824  0.00  0.00     0.286 C 
ATOM     15  N   UNL d   1      57.216   0.403  32.503  0.00  0.00    -0.206 NA
ATOM     16  O   UNL d   1      56.423  -0.464  31.706  0.00  0.00    -0.265 OA
BRANCH  15  17
ATOM     17  C   UNL d   1      56.598   0.473  33.042  0.00  0.00     0.107 A 
ATOM     18  C   UNL d   1      56.744   0.614  33.865  0.00  0.00     0.112 A 
ATOM     19  C   UNL d   1      56.128   0.679  34.381  0.00  0.00     0.026 A 
ATOM     20  C   UNL d   1      55.344   0.614  34.137  0.00  0.00     0.002 A 
ATOM     21  C   UNL d   1      55.166   0.477  33.342  0.00  0.00     0.002 A 
ATOM     22  C   UNL d   1      55.790   0.406  32.798  0.00  0.00     0.021 A 
BRANCH  18  23
ATOM     23  O   UNL d   1      57.552   0.680  34.109  0.00  0.00    -0.327 OA
ATOM     24  C   UNL d   1      57.708   0.661  34.941  0.00  0.00     0.181 C 
ENDBRANCH  18  23
ENDBRANCH  15  17
ENDBRANCH  13  14
ENDBRANCH   1  13
TORSDOF 6
ENDMDL
MODEL 3
REMARK VINA RESULT:      -3.7      1.156      1.830
REMARK  6 active torsions:
REMARK  status: ('A' for Active; 'I' for Inactive)
REMARK    1  A    between atoms: C_10  and  C_3 
REMARK    2  A    between atoms: S_9  and  C_4 
REMARK       I    between atoms: N_6  and  C_7 
REMARK    3  A    between atoms: C_8  and  N_6 
REMARK    4  A    between atoms: C_7  and  C_14 
REMARK    5  A    between atoms: C_14  and  S_9 
REMARK    6  A    between atoms: O_15  and  C_12 
ROOT
ATOM      1  S   UNL d   1      57.360  -0.847  31.107  0.00  0.00    -0.036 SA
ENDROOT
BRANCH   1   2
ATOM      2  C   UNL d   1      57.211  -0.324  31.758  0.00  0.00     0.236 A 
ATOM      3  O   UNL d   1      56.510  -0.379  32.186  0.00  0.00    -0.263 OA
ATOM      4  C   UNL d   1      56.519   0.182  32.768  0.00  0.00     0.205 A 
ATOM      5  N   UNL d   1      57.233   0.594  32.708  0.00  0.00    -0.120 NA
ATOM      6  N   UNL d   1      57.655   0.285  32.092  0.00  0.00    -0.114 NA
BRANCH   4   7
ATOM      7  C   UNL d   1      55.946   0.344  33.335  0.00  0.00     0.046 A 
ATOM      8  C   UNL d   1      55.183   0.516  33.105  0.00  0.00     0.024 A 
ATOM      9  C   UNL d   1      54.600   0.682  33.687  0.00  0.00     0.099 A 
ATOM     10  N   UNL d   1      54.807   0.668  34.484  0.00  0.00    -0.242 NA
ATOM     11  C   UNL d   1      55.603   0.489  34.718  0.00  0.00     0.099 A 
ATOM     12  C   UNL d   1      56.161   0.330  34.142  0.00  0.00     0.024 A 
ENDBRANCH   4   7
ENDBRANCH   1   2
BRANCH   1  13
ATOM     13  C   UNL d   1      57.759  -0.549  30.448  0.00  0.00     0.101 C 
BRANCH  13  14
ATOM     14  C   UNL d   1      58.266  -1.057  30.047  0.00  0.00     0.286 C 
ATOM     15  N   UNL d   1      58.949  -0.751  29.685  0.00  0.00    -0.206 NA
ATOM     16  O   UNL d   1      58.121  -1.865  29.989  0.00  0.00    -0.265 OA
BRANCH  15  17
ATOM     17  C   UNL d   1      59.466  -1.246  29.279  0.00  0.00     0.107 A 
ATOM     18  C   UNL d   1      60.243  -0.989  29.061  0.00  0.00     0.112 A 
ATOM     19  C   UNL d   1      60.739  -1.486  28.664  0.00  0.00     0.026 A 
ATOM     20  C   UNL d   1      60.517  -2.252  28.455  0.00  0.00     0.002 A 
ATOM     21  C   UNL d   1      59.766  -2.534  28.652  0.00  0.00     0.002 A 
ATOM     22  C   UNL d   1      59.244  -2.034  29.062  0.00  0.00     0.021 A 
BRANCH  18  23
ATOM     23  O   UNL d   1      60.466  -0.202  29.279  0.00  0.00    -0.327 OA
ATOM     24  C   UNL d   1      61.085   0.164  28.831  0.00  0.00     0.181 C 
ENDBRANCH  18  23
ENDBRANCH  15  17
ENDBRANCH  13  14
ENDBRANCH   1  13
TORSDOF 6
ENDMDL
MODEL 4
REMARK VINA RESULT:      -1.6      1.326      5.424
REMARK  6 active torsions:
REMARK  status: ('A' for Active; 'I' for Inactive)
REMARK    1  A    between atoms: C_10  and  C_3 
REMARK    2  A    between atoms: S_9  and  C_4 
REMARK       I    between atoms: N_6  and  C_7 
REMARK    3  A    between atoms: C_8  and  N_6 
REMARK    4  A    between atoms: C_7  and  C_14 
REMARK    5  A    between atoms: C_14  and  S_9 
REMARK    6  A    between atoms: O_15  and  C_12 
ROOT
ATOM      1  S   UNL d   1      57.287  -0.251  30.649  0.00  0.00    -0.036 SA
ENDROOT
BRANCH   1   2
ATOM      2  C   UNL d   1      57.914  -0.179  30.083  0.00  0.00     0.236 A 
ATOM      3  O   UNL d   1      58.478  -0.774  30.008  0.00  0.00    -0.263 OA
ATOM      4  C   UNL d   1      59.004  -0.560  29.432  0.00  0.00     0.205 A 
ATOM      5  N   UNL d   1      58.769   0.178  29.141  0.00  0.00    -0.120 NA
ATOM      6  N   UNL d   1      58.105   0.409  29.538  0.00  0.00    -0.114 NA
BRANCH   4   7
ATOM      7  C   UNL d   1      59.661  -0.969  29.157  0.00  0.00     0.046 A 
ATOM      8  C   UNL d   1      59.618  -1.773  29.032  0.00  0.00     0.024 A 
ATOM      9  C   UNL d   1      60.292  -2.189  28.750  0.00  0.00     0.099 A 
ATOM     10  N   UNL d   1      60.990  -1.777  28.604  0.00  0.00    -0.242 NA
ATOM     11  C   UNL d   1      61.030  -0.940  28.735  0.00  0.00     0.099 A 
ATOM     12  C   UNL d   1      60.367  -0.547  29.009  0.00  0.00     0.024 A 
ENDBRANCH   4   7
ENDBRANCH   1   2
BRANCH   1  13
ATOM     13  C   UNL d   1      57.375   0.120  31.382  0.00  0.00     0.101 C 
BRANCH  13  14
ATOM     14  C   UNL d   1      56.707   0.196  31.855  0.00  0.00     0.286 C 
ATOM     15  N   UNL d   1      56.662  -0.227  32.569  0.00  0.00    -0.206 NA
ATOM     16  O   UNL d   1      56.074   0.680  31.646  0.00  0.00    -0.265 OA
BRANCH  15  17
ATOM     17  C   UNL d   1      56.000  -0.162  33.054  0.00  0.00     0.107 A 
ATOM     18  C   UNL d   1      55.698  -0.829  33.480  0.00  0.00     0.112 A 
ATOM     19  C   UNL d   1      55.048  -0.750  33.951  0.00  0.00     0.026 A 
ATOM     20  C   UNL d   1      54.656  -0.030  34.039  0.00  0.00     0.002 A 
ATOM     21  C   UNL d   1      54.925   0.641  33.638  0.00  0.00     0.002 A 
ATOM     22  C   UNL d   1      55.593   0.575  33.149  0.00  0.00     0.021 A 
BRANCH  18  23
ATOM     23  O   UNL d   1      56.105  -1.565  33.385  0.00  0.00    -0.327 OA
ATOM     24  C   UNL d   1      56.097  -2.099  34.043  0.00  0.00     0.181 C 
ENDBRANCH  18  23
ENDBRANCH  15  17
ENDBRANCH  13  14
ENDBRANCH   1  13
TORSDOF 6
ENDMDL
