MODEL 1
REMARK VINA RESULT:      -7.5      0.000      0.000
REMARK  4 active torsions:
REMARK  status: ('A' for Active; 'I' for Inactive)
REMARK    1  A    between atoms: O_7  and  C_2 
REMARK    2  A    between atoms: C_13  and  C_3 
REMARK    3  A    between atoms: C_11  and  O_7 
REMARK    4  A    between atoms: O_25  and  C_20 
ROOT
ATOM      1  C   UNL d   1      53.229  34.203  54.448  0.00  0.00     0.066 A 
ATOM      2  C   UNL d   1      53.440  33.417  54.345  0.00  0.00     0.186 A 
ATOM      3  C   UNL d   1      52.711  34.722  54.027  0.00  0.00     0.012 A 
ATOM      4  C   UNL d   1      52.736  35.429  54.398  0.00  0.00     0.037 A 
ATOM      5  C   UNL d   1      53.559  34.636  55.079  0.00  0.00     0.116 A 
ATOM      6  S   UNL d   1      53.249  35.413  55.051  0.00  0.00    -0.067 SA
ATOM      7  N   UNL d   1      53.974  33.070  54.869  0.00  0.00    -0.200 NA
ATOM      8  N   UNL d   1      54.094  34.288  55.603  0.00  0.00    -0.217 NA
ATOM      9  C   UNL d   1      54.299  33.508  55.496  0.00  0.00     0.201 A 
ENDROOT
BRANCH   2  10
ATOM     10  O   UNL d   1      53.114  32.972  53.713  0.00  0.00    -0.288 OA
BRANCH  10  11
ATOM     11  C   UNL d   1      53.494  32.264  53.436  0.00  0.00     0.119 A 
ATOM     12  C   UNL d   1      53.104  31.541  53.361  0.00  0.00     0.104 A 
ATOM     13  N   UNL d   1      52.286  31.493  53.569  0.00  0.00    -0.244 NA
ATOM     14  C   UNL d   1      53.499  30.875  53.090  0.00  0.00     0.020 A 
ATOM     15  C   UNL d   1      51.897  30.770  53.494  0.00  0.00     0.082 A 
ATOM     16  C   UNL d   1      51.065  30.687  53.697  0.00  0.00     0.021 C 
ATOM     17  C   UNL d   1      52.292  30.104  53.223  0.00  0.00     0.019 A 
ATOM     18  C   UNL d   1      53.090  30.139  53.018  0.00  0.00     0.003 A 
ATOM     19  C   UNL d   1      54.298  30.910  52.884  0.00  0.00     0.002 A 
ATOM     20  C   UNL d   1      54.687  31.634  52.959  0.00  0.00     0.002 A 
ATOM     21  C   UNL d   1      54.291  32.299  53.230  0.00  0.00     0.026 A 
ENDBRANCH  10  11
ENDBRANCH   2  10
BRANCH   3  22
ATOM     22  C   UNL d   1      52.262  34.541  53.362  0.00  0.00     0.001 A 
ATOM     23  C   UNL d   1      52.582  34.556  52.596  0.00  0.00     0.002 A 
ATOM     24  C   UNL d   1      52.109  34.371  51.947  0.00  0.00     0.024 A 
ATOM     25  C   UNL d   1      51.302  34.167  52.070  0.00  0.00     0.094 A 
ATOM     26  C   UNL d   1      50.988  34.155  52.845  0.00  0.00     0.024 A 
ATOM     27  C   UNL d   1      51.463  34.341  53.494  0.00  0.00     0.002 A 
BRANCH  25  28
ATOM     28  O   UNL d   1      50.767  33.967  51.442  0.00  0.00    -0.328 OA
ATOM     29  C   UNL d   1      49.978  34.202  51.498  0.00  0.00     0.181 C 
ENDBRANCH  25  28
ENDBRANCH   3  22
TORSDOF 4
ENDMDL
MODEL 2
REMARK VINA RESULT:      -6.3      1.143      3.192
REMARK  4 active torsions:
REMARK  status: ('A' for Active; 'I' for Inactive)
REMARK    1  A    between atoms: O_7  and  C_2 
REMARK    2  A    between atoms: C_13  and  C_3 
REMARK    3  A    between atoms: C_11  and  O_7 
REMARK    4  A    between atoms: O_25  and  C_20 
ROOT
ATOM      1  C   UNL d   1      53.834  33.773  54.662  0.00  0.00     0.066 A 
ATOM      2  C   UNL d   1      53.261  34.083  54.164  0.00  0.00     0.186 A 
ATOM      3  C   UNL d   1      54.180  33.006  54.739  0.00  0.00     0.012 A 
ATOM      4  C   UNL d   1      54.715  33.047  55.332  0.00  0.00     0.037 A 
ATOM      5  C   UNL d   1      54.188  34.265  55.234  0.00  0.00     0.116 A 
ATOM      6  S   UNL d   1      54.746  33.810  55.660  0.00  0.00    -0.067 SA
ATOM      7  N   UNL d   1      53.046  34.875  54.238  0.00  0.00    -0.200 NA
ATOM      8  N   UNL d   1      53.973  35.059  55.308  0.00  0.00    -0.217 NA
ATOM      9  C   UNL d   1      53.404  35.360  54.810  0.00  0.00     0.201 A 
ENDROOT
BRANCH   2  10
ATOM     10  O   UNL d   1      52.899  33.595  53.585  0.00  0.00    -0.288 OA
BRANCH  10  11
ATOM     11  C   UNL d   1      52.504  33.935  52.913  0.00  0.00     0.119 A 
ATOM     12  C   UNL d   1      51.692  33.868  52.784  0.00  0.00     0.104 A 
ATOM     13  N   UNL d   1      51.222  33.441  53.342  0.00  0.00    -0.244 NA
ATOM     14  C   UNL d   1      51.341  34.208  52.125  0.00  0.00     0.020 A 
ATOM     15  C   UNL d   1      50.411  33.374  53.212  0.00  0.00     0.082 A 
ATOM     16  C   UNL d   1      49.905  32.947  53.760  0.00  0.00     0.021 C 
ATOM     17  C   UNL d   1      50.060  33.714  52.553  0.00  0.00     0.019 A 
ATOM     18  C   UNL d   1      50.508  34.132  52.002  0.00  0.00     0.003 A 
ATOM     19  C   UNL d   1      51.790  34.626  51.574  0.00  0.00     0.002 A 
ATOM     20  C   UNL d   1      52.601  34.693  51.704  0.00  0.00     0.002 A 
ATOM     21  C   UNL d   1      52.952  34.354  52.362  0.00  0.00     0.026 A 
ENDBRANCH  10  11
ENDBRANCH   2  10
BRANCH   3  22
ATOM     22  C   UNL d   1      54.006  32.337  54.293  0.00  0.00     0.001 A 
ATOM     23  C   UNL d   1      54.356  32.196  53.553  0.00  0.00     0.002 A 
ATOM     24  C   UNL d   1      54.163  31.518  53.127  0.00  0.00     0.024 A 
ATOM     25  C   UNL d   1      53.611  30.972  53.450  0.00  0.00     0.094 A 
ATOM     26  C   UNL d   1      53.263  31.122  54.195  0.00  0.00     0.024 A 
ATOM     27  C   UNL d   1      53.457  31.801  54.621  0.00  0.00     0.002 A 
BRANCH  25  28
ATOM     28  O   UNL d   1      53.373  30.257  53.058  0.00  0.00    -0.328 OA
ATOM     29  C   UNL d   1      52.580  30.032  53.080  0.00  0.00     0.181 C 
ENDBRANCH  25  28
ENDBRANCH   3  22
TORSDOF 4
ENDMDL
MODEL 3
REMARK VINA RESULT:      -5.3      1.605      3.000
REMARK  4 active torsions:
REMARK  status: ('A' for Active; 'I' for Inactive)
REMARK    1  A    between atoms: O_7  and  C_2 
REMARK    2  A    between atoms: C_13  and  C_3 
REMARK    3  A    between atoms: C_11  and  O_7 
REMARK    4  A    between atoms: O_25  and  C_20 
ROOT
ATOM      1  C   UNL d   1      51.990  33.257  53.464  0.00  0.00     0.066 A 
ATOM      2  C   UNL d   1      52.034  32.440  53.401  0.00  0.00     0.186 A 
ATOM      3  C   UNL d   1      52.540  33.848  53.716  0.00  0.00     0.012 A 
ATOM      4  C   UNL d   1      52.172  34.554  53.653  0.00  0.00     0.037 A 
ATOM      5  C   UNL d   1      51.285  33.647  53.250  0.00  0.00     0.116 A 
ATOM      6  S   UNL d   1      51.396  34.468  53.368  0.00  0.00    -0.067 SA
ATOM      7  N   UNL d   1      51.379  32.021  53.128  0.00  0.00    -0.200 NA
ATOM      8  N   UNL d   1      50.630  33.226  52.977  0.00  0.00    -0.217 NA
ATOM      9  C   UNL d   1      50.680  32.416  52.917  0.00  0.00     0.201 A 
ENDROOT
BRANCH   2  10
ATOM     10  O   UNL d   1      52.739  32.039  53.613  0.00  0.00    -0.288 OA
BRANCH  10  11
ATOM     11  C   UNL d   1      52.908  31.263  53.310  0.00  0.00     0.119 A 
ATOM     12  C   UNL d   1      53.073  30.614  53.792  0.00  0.00     0.104 A 
ATOM     13  N   UNL d   1      53.076  30.718  54.631  0.00  0.00    -0.244 NA
ATOM     14  C   UNL d   1      53.232  29.878  53.468  0.00  0.00     0.020 A 
ATOM     15  C   UNL d   1      53.240  30.069  55.112  0.00  0.00     0.082 A 
ATOM     16  C   UNL d   1      53.251  30.141  55.970  0.00  0.00     0.021 C 
ATOM     17  C   UNL d   1      53.399  29.333  54.788  0.00  0.00     0.019 A 
ATOM     18  C   UNL d   1      53.399  29.220  53.972  0.00  0.00     0.003 A 
ATOM     19  C   UNL d   1      53.232  29.765  52.651  0.00  0.00     0.002 A 
ATOM     20  C   UNL d   1      53.067  30.414  52.169  0.00  0.00     0.002 A 
ATOM     21  C   UNL d   1      52.908  31.150  52.493  0.00  0.00     0.026 A 
ENDBRANCH  10  11
ENDBRANCH   2  10
BRANCH   3  22
ATOM     22  C   UNL d   1      53.311  33.728  53.978  0.00  0.00     0.001 A 
ATOM     23  C   UNL d   1      53.945  33.620  53.452  0.00  0.00     0.002 A 
ATOM     24  C   UNL d   1      54.706  33.501  53.743  0.00  0.00     0.024 A 
ATOM     25  C   UNL d   1      54.834  33.491  54.574  0.00  0.00     0.094 A 
ATOM     26  C   UNL d   1      54.189  33.600  55.096  0.00  0.00     0.024 A 
ATOM     27  C   UNL d   1      53.427  33.719  54.804  0.00  0.00     0.002 A 
BRANCH  25  28
ATOM     28  O   UNL d   1      55.595  33.373  54.932  0.00  0.00    -0.328 OA
ATOM     29  C   UNL d   1      55.939  33.992  55.355  0.00  0.00     0.181 C 
ENDBRANCH  25  28
ENDBRANCH   3  22
TORSDOF 4
ENDMDL
