MODEL 1
REMARK VINA RESULT:       9.4      0.000      0.000
REMARK  3 active torsions:
REMARK  status: ('A' for Active; 'I' for Inactive)
REMARK    1  A    between atoms: C_2  and  N_1 
REMARK    2  A    between atoms: C_4  and  N_1 
REMARK    3  A    between atoms: C_3  and  C_2 
ROOT
ATOM      1  N   UNL d   1      13.743  12.498  -2.560  0.00  0.00    -0.182 N 
ATOM      2  O   UNL d   1      13.702  13.220  -2.158  0.00  0.00    -0.080 OA
ENDROOT
BRANCH   1   3
ATOM      3  C   UNL d   1      14.027  11.827  -2.173  0.00  0.00     0.133 C 
BRANCH   3   4
ATOM      4  C   UNL d   1      14.108  11.827  -1.355  0.00  0.00     0.120 A 
ATOM      5  O   UNL d   1      13.548  11.859  -0.742  0.00  0.00    -0.304 OA
ATOM      6  C   UNL d   1      13.958  11.841  -0.020  0.00  0.00     0.123 A 
ATOM      7  C   UNL d   1      14.770  11.798  -0.185  0.00  0.00     0.029 A 
ATOM      8  C   UNL d   1      14.859  11.789  -1.006  0.00  0.00     0.028 A 
ENDBRANCH   3   4
ENDBRANCH   1   3
BRANCH   1   9
ATOM      9  C   UNL d   1      13.495  12.449  -3.362  0.00  0.00     0.090 A 
ATOM     10  C   UNL d   1      13.742  13.024  -3.888  0.00  0.00     0.021 A 
ATOM     11  C   UNL d   1      13.497  12.976  -4.683  0.00  0.00     0.013 A 
ATOM     12  C   UNL d   1      13.013  12.353  -4.924  0.00  0.00     0.058 A 
ATOM     13  C   UNL d   1      12.772  11.779  -4.386  0.00  0.00     0.013 A 
ATOM     14 CL   UNL d   1      12.772  12.305  -5.705  0.00  0.00    -0.082 Cl
ATOM     15  C   UNL d   1      13.017  11.828  -3.591  0.00  0.00     0.021 A 
ENDBRANCH   1   9
TORSDOF 3
ENDMDL
MODEL 2
REMARK VINA RESULT:       9.5     10.302     11.257
REMARK  3 active torsions:
REMARK  status: ('A' for Active; 'I' for Inactive)
REMARK    1  A    between atoms: C_2  and  N_1 
REMARK    2  A    between atoms: C_4  and  N_1 
REMARK    3  A    between atoms: C_3  and  C_2 
ROOT
ATOM      1  N   UNL d   1      24.062  12.523  -3.295  0.00  0.00    -0.182 N 
ATOM      2  O   UNL d   1      23.339  12.589  -3.691  0.00  0.00    -0.080 OA
ENDROOT
BRANCH   1   3
ATOM      3  C   UNL d   1      24.768  12.541  -3.722  0.00  0.00     0.133 C 
BRANCH   3   4
ATOM      4  C   UNL d   1      24.757  12.455  -4.540  0.00  0.00     0.120 A 
ATOM      5  O   UNL d   1      24.755  11.782  -5.027  0.00  0.00    -0.304 OA
ATOM      6  C   UNL d   1      24.742  12.037  -5.816  0.00  0.00     0.123 A 
ATOM      7  C   UNL d   1      24.736  12.867  -5.819  0.00  0.00     0.029 A 
ATOM      8  C   UNL d   1      24.745  13.120  -5.033  0.00  0.00     0.028 A 
ENDBRANCH   3   4
ENDBRANCH   1   3
BRANCH   1   9
ATOM      9  C   UNL d   1      24.078  12.439  -2.459  0.00  0.00     0.090 A 
ATOM     10  C   UNL d   1      23.594  12.916  -2.004  0.00  0.00     0.021 A 
ATOM     11  C   UNL d   1      23.609  12.832  -1.175  0.00  0.00     0.013 A 
ATOM     12  C   UNL d   1      24.109  12.274  -0.830  0.00  0.00     0.058 A 
ATOM     13  C   UNL d   1      24.591  11.800  -1.298  0.00  0.00     0.013 A 
ATOM     14 CL   UNL d   1      24.124  12.192  -0.015  0.00  0.00    -0.082 Cl
ATOM     15  C   UNL d   1      24.575  11.883  -2.127  0.00  0.00     0.021 A 
ENDBRANCH   1   9
TORSDOF 3
ENDMDL
