MODEL 1
REMARK VINA RESULT:      -4.4      0.000      0.000
REMARK  3 active torsions:
REMARK  status: ('A' for Active; 'I' for Inactive)
REMARK    1  A    between atoms: N_5  and  C_1 
REMARK    2  A    between atoms: C_8  and  C_2 
REMARK       I    between atoms: C_7  and  N_5 
REMARK       I    between atoms: N_9  and  C_7 
REMARK    3  A    between atoms: C_13  and  N_9 
ROOT
ATOM      1  C   UNL d   1     -41.635-122.449 -53.552  0.00  0.00     0.120 A 
ATOM      2  C   UNL d   1     -42.039-122.153 -54.208  0.00  0.00     0.084 A 
ATOM      3  S   UNL d   1     -41.244-123.111 -53.815  0.00  0.00    -0.068 SA
ATOM      4  C   UNL d   1     -41.884-122.630 -54.829  0.00  0.00     0.013 A 
ATOM      5  C   UNL d   1     -41.404-123.211 -54.596  0.00  0.00     0.031 A 
ATOM      6  C   UNL d   1     -42.182-122.536 -55.616  0.00  0.00     0.001 C 
ATOM      7  C   UNL d   1     -41.123-123.817 -55.099  0.00  0.00     0.007 C 
ENDROOT
BRANCH   1   8
ATOM      8  N   UNL d   1     -41.641-121.906 -52.265  0.00  0.00    -0.184 NA
ATOM      9  C   UNL d   1     -41.731-122.379 -51.614  0.00  0.00     0.369 C 
ATOM     10  N   UNL d   1     -41.736-122.071 -50.844  0.00  0.00    -0.191 NA
ATOM     11  O   UNL d   1     -41.819-123.193 -51.722  0.00  0.00    -0.242 OA
BRANCH  10  12
ATOM     12  C   UNL d   1     -41.827-122.558 -50.202  0.00  0.00     0.086 A 
ATOM     13  C   UNL d   1     -42.560-122.606 -49.814  0.00  0.00     0.019 A 
ATOM     14  C   UNL d   1     -42.662-123.086 -49.176  0.00  0.00     0.002 A 
ATOM     15  C   UNL d   1     -42.030-123.540 -48.896  0.00  0.00     0.000 A 
ATOM     16  C   UNL d   1     -41.287-123.500 -49.278  0.00  0.00     0.002 A 
ATOM     17  C   UNL d   1     -41.210-123.000 -49.930  0.00  0.00     0.019 A 
ENDBRANCH  10  12
ENDBRANCH   1   8
BRANCH   2  18
ATOM     18  C   UNL d   1     -42.520-121.475 -54.213  0.00  0.00     0.299 C 
ATOM     19  O   UNL d   1     -43.347-121.546 -54.206  0.00  0.00    -0.264 OA
ATOM     20  N   UNL d   1     -42.184-120.714 -54.225  0.00  0.00    -0.102 N 
ENDBRANCH   2  18
TORSDOF 3
ENDMDL
MODEL 2
REMARK VINA RESULT:      -2.9      1.355      4.605
REMARK  3 active torsions:
REMARK  status: ('A' for Active; 'I' for Inactive)
REMARK    1  A    between atoms: N_5  and  C_1 
REMARK    2  A    between atoms: C_8  and  C_2 
REMARK       I    between atoms: C_7  and  N_5 
REMARK       I    between atoms: N_9  and  C_7 
REMARK    3  A    between atoms: C_13  and  N_9 
ROOT
ATOM      1  C   UNL d   1     -42.013-122.733 -50.041  0.00  0.00     0.120 A 
ATOM      2  C   UNL d   1     -42.662-122.965 -49.588  0.00  0.00     0.084 A 
ATOM      3  S   UNL d   1     -41.359-123.012 -49.649  0.00  0.00    -0.068 SA
ATOM      4  C   UNL d   1     -42.389-123.366 -48.953  0.00  0.00     0.013 A 
ATOM      5  C   UNL d   1     -41.602-123.397 -48.986  0.00  0.00     0.031 A 
ATOM      6  C   UNL d   1     -42.861-123.707 -48.338  0.00  0.00     0.001 C 
ATOM      7  C   UNL d   1     -41.123-123.774 -48.414  0.00  0.00     0.007 C 
ENDROOT
BRANCH   1   8
ATOM      8  N   UNL d   1     -42.058-122.008 -51.235  0.00  0.00    -0.184 NA
ATOM      9  C   UNL d   1     -41.879-122.360 -51.942  0.00  0.00     0.369 C 
ATOM     10  N   UNL d   1     -41.901-121.943 -52.658  0.00  0.00    -0.191 NA
ATOM     11  O   UNL d   1     -41.668-123.158 -51.947  0.00  0.00    -0.242 OA
BRANCH  10  12
ATOM     12  C   UNL d   1     -41.719-122.309 -53.359  0.00  0.00     0.086 A 
ATOM     13  C   UNL d   1     -41.948-121.968 -54.080  0.00  0.00     0.019 A 
ATOM     14  C   UNL d   1     -41.773-122.322 -54.782  0.00  0.00     0.002 A 
ATOM     15  C   UNL d   1     -41.359-123.038 -54.790  0.00  0.00     0.000 A 
ATOM     16  C   UNL d   1     -41.123-123.391 -54.070  0.00  0.00     0.002 A 
ATOM     17  C   UNL d   1     -41.315-123.007 -53.365  0.00  0.00     0.019 A 
ENDBRANCH  10  12
ENDBRANCH   1   8
BRANCH   2  18
ATOM     18  C   UNL d   1     -43.458-122.805 -49.767  0.00  0.00     0.299 C 
ATOM     19  O   UNL d   1     -43.960-123.411 -50.034  0.00  0.00    -0.264 OA
ATOM     20  N   UNL d   1     -43.768-122.037 -49.682  0.00  0.00    -0.102 N 
ENDBRANCH   2  18
TORSDOF 3
ENDMDL
MODEL 3
REMARK VINA RESULT:      -2.1      1.320      4.777
REMARK  3 active torsions:
REMARK  status: ('A' for Active; 'I' for Inactive)
REMARK    1  A    between atoms: N_5  and  C_1 
REMARK    2  A    between atoms: C_8  and  C_2 
REMARK       I    between atoms: C_7  and  N_5 
REMARK       I    between atoms: N_9  and  C_7 
REMARK    3  A    between atoms: C_13  and  N_9 
ROOT
ATOM      1  C   UNL d   1     -42.401-122.636 -50.544  0.00  0.00     0.120 A 
ATOM      2  C   UNL d   1     -42.250-122.917 -49.783  0.00  0.00     0.084 A 
ATOM      3  S   UNL d   1     -43.202-122.501 -50.574  0.00  0.00    -0.068 SA
ATOM      4  C   UNL d   1     -42.944-122.944 -49.388  0.00  0.00     0.013 A 
ATOM      5  C   UNL d   1     -43.521-122.693 -49.862  0.00  0.00     0.031 A 
ATOM      6  C   UNL d   1     -43.051-123.198 -48.587  0.00  0.00     0.001 C 
ATOM      7  C   UNL d   1     -44.325-122.644 -49.636  0.00  0.00     0.007 C 
ENDROOT
BRANCH   1   8
ATOM      8  N   UNL d   1     -41.456-122.440 -51.554  0.00  0.00    -0.184 NA
ATOM      9  C   UNL d   1     -41.674-122.443 -52.334  0.00  0.00     0.369 C 
ATOM     10  N   UNL d   1     -41.125-122.328 -52.944  0.00  0.00    -0.191 NA
ATOM     11  O   UNL d   1     -42.468-122.563 -52.525  0.00  0.00    -0.242 OA
BRANCH  10  12
ATOM     12  C   UNL d   1     -41.358-122.333 -53.721  0.00  0.00     0.086 A 
ATOM     13  C   UNL d   1     -41.198-122.991 -54.201  0.00  0.00     0.019 A 
ATOM     14  C   UNL d   1     -41.424-123.007 -54.974  0.00  0.00     0.002 A 
ATOM     15  C   UNL d   1     -41.824-122.361 -55.299  0.00  0.00     0.000 A 
ATOM     16  C   UNL d   1     -41.992-121.692 -54.825  0.00  0.00     0.002 A 
ATOM     17  C   UNL d   1     -41.748-121.702 -54.037  0.00  0.00     0.019 A 
ENDBRANCH  10  12
ENDBRANCH   1   8
BRANCH   2  18
ATOM     18  C   UNL d   1     -41.504-123.134 -49.488  0.00  0.00     0.299 C 
ATOM     19  O   UNL d   1     -41.123-123.817 -49.766  0.00  0.00    -0.264 OA
ATOM     20  N   UNL d   1     -41.124-122.671 -48.909  0.00  0.00    -0.102 N 
ENDBRANCH   2  18
TORSDOF 3
ENDMDL
