MODEL 1
REMARK VINA RESULT:      13.6      0.000      0.000
REMARK  6 active torsions:
REMARK  status: ('A' for Active; 'I' for Inactive)
REMARK    1  A    between atoms: S_12  and  C_5 
REMARK    2  A    between atoms: C_16  and  C_6 
REMARK    3  A    between atoms: C_10  and  C_14 
REMARK    4  A    between atoms: C_19  and  S_12 
REMARK    5  A    between atoms: C_13  and  C_19 
REMARK       I    between atoms: N_15  and  C_13 
REMARK    6  A    between atoms: C_22  and  N_15 
ROOT
ATOM      1  C   UNL d   1     -41.470-121.623 -49.934  0.00  0.00     0.186 A 
ATOM      2  C   UNL d   1     -41.447-122.329 -50.371  0.00  0.00     0.065 A 
ATOM      3  N   UNL d   1     -41.405-120.897 -50.316  0.00  0.00    -0.203 NA
ATOM      4  N   UNL d   1     -41.295-121.583 -51.570  0.00  0.00    -0.220 NA
ATOM      5  C   UNL d   1     -41.360-122.299 -51.183  0.00  0.00     0.116 A 
ATOM      6  C   UNL d   1     -41.317-120.874 -51.137  0.00  0.00     0.165 A 
ATOM      7  O   UNL d   1     -41.558-121.648 -49.109  0.00  0.00    -0.289 OA
ATOM      8  C   UNL d   1     -41.513-123.056 -49.981  0.00  0.00     0.007 A 
ATOM      9  C   UNL d   1     -41.624-122.366 -48.718  0.00  0.00     0.102 A 
ATOM     10  C   UNL d   1     -41.601-123.076 -49.157  0.00  0.00     0.023 A 
ATOM     11  C   UNL d   1     -41.710-122.394 -47.910  0.00  0.00     0.025 A 
ATOM     12  C   UNL d   1     -41.666-123.799 -48.765  0.00  0.00     0.002 A 
ATOM     13  C   UNL d   1     -41.754-123.816 -47.944  0.00  0.00     0.000 A 
ATOM     14  C   UNL d   1     -41.777-123.113 -47.509  0.00  0.00     0.002 A 
ENDROOT
BRANCH   5  15
ATOM     15  S   UNL d   1     -41.338-123.009 -51.613  0.00  0.00    -0.062 SA
BRANCH  15  16
ATOM     16  C   UNL d   1     -41.935-123.167 -52.163  0.00  0.00     0.099 C 
BRANCH  16  17
ATOM     17  C   UNL d   1     -41.837-122.957 -52.951  0.00  0.00     0.286 C 
ATOM     18  N   UNL d   1     -42.418-122.522 -53.333  0.00  0.00    -0.208 NA
ATOM     19  O   UNL d   1     -41.158-123.180 -53.359  0.00  0.00    -0.265 OA
BRANCH  18  20
ATOM     20  C   UNL d   1     -42.321-122.309 -54.124  0.00  0.00     0.085 A 
ATOM     21  C   UNL d   1     -42.960-122.022 -54.548  0.00  0.00     0.019 A 
ATOM     22  C   UNL d   1     -42.869-121.811 -55.331  0.00  0.00     0.008 A 
ATOM     23  C   UNL d   1     -42.126-121.888 -55.696  0.00  0.00     0.065 A 
ATOM     24  C   UNL d   1     -41.489-122.176 -55.268  0.00  0.00     0.008 A 
ATOM     25  C   UNL d   1     -41.582-122.389 -54.478  0.00  0.00     0.019 A 
BRANCH  23  26
ATOM     26  C   UNL d   1     -42.028-121.677 -56.484  0.00  0.00     0.211 C 
ATOM     27  O   UNL d   1     -41.514-121.062 -56.677  0.00  0.00    -0.644 OA
ATOM     28  O   UNL d   1     -42.437-122.073 -57.078  0.00  0.00    -0.644 OA
ENDBRANCH  23  26
ENDBRANCH  18  20
ENDBRANCH  16  17
ENDBRANCH  15  16
ENDBRANCH   5  15
BRANCH   6  29
ATOM     29  C   UNL d   1     -41.253-120.148 -51.518  0.00  0.00     0.036 A 
ATOM     30  C   UNL d   1     -41.222-120.120 -52.347  0.00  0.00     0.003 A 
ATOM     31  C   UNL d   1     -41.157-119.395 -52.734  0.00  0.00     0.000 A 
ATOM     32  C   UNL d   1     -41.123-118.695 -52.295  0.00  0.00     0.000 A 
ATOM     33  C   UNL d   1     -41.153-118.717 -51.468  0.00  0.00     0.000 A 
ATOM     34  C   UNL d   1     -41.219-119.451 -51.082  0.00  0.00     0.003 A 
ENDBRANCH   6  29
TORSDOF 6
ENDMDL
