MODEL 1
REMARK VINA RESULT:      51.0      0.000      0.000
REMARK  9 active torsions:
REMARK  status: ('A' for Active; 'I' for Inactive)
REMARK    1  A    between atoms: N_2  and  S_1 
REMARK    2  A    between atoms: C_9  and  S_1 
REMARK    3  A    between atoms: C_4  and  N_2 
REMARK    4  A    between atoms: O_22  and  C_6 
REMARK    5  A    between atoms: O_23  and  C_7 
REMARK       I    between atoms: C_12  and  N_13 
REMARK    6  A    between atoms: C_20  and  C_12 
REMARK    7  A    between atoms: N_13  and  C_21 
REMARK    8  A    between atoms: O_14  and  C_20 
REMARK    9  A    between atoms: C_15  and  O_14 
ROOT
ATOM      1  C   UNL d   1      13.239  13.099  -4.066  0.00  0.00     0.105 A 
ATOM      2  C   UNL d   1      12.961  13.015  -4.830  0.00  0.00     0.015 A 
ATOM      3  C   UNL d   1      13.503  13.824  -3.798  0.00  0.00     0.015 A 
ATOM      4  C   UNL d   1      13.211  14.400  -5.066  0.00  0.00     0.085 A 
ATOM      5  C   UNL d   1      12.937  13.648  -5.348  0.00  0.00     0.020 A 
ATOM      6  C   UNL d   1      13.483  14.463  -4.306  0.00  0.00     0.020 A 
ENDROOT
BRANCH   1   7
ATOM      7  S   UNL d   1      13.258  12.444  -3.548  0.00  0.00     0.287 S 
ATOM      8  O   UNL d   1      12.800  12.870  -2.991  0.00  0.00    -0.198 OA
ATOM      9  O   UNL d   1      13.715  12.013  -4.099  0.00  0.00    -0.198 OA
BRANCH   7  10
ATOM     10  N   UNL d   1      13.275  11.788  -3.027  0.00  0.00    -0.139 NA
BRANCH  10  11
ATOM     11  C   UNL d   1      13.763  11.795  -2.363  0.00  0.00     0.182 A 
ATOM     12  N   UNL d   1      13.434  11.784  -1.618  0.00  0.00    -0.185 NA
ATOM     13  C   UNL d   1      13.930  11.791  -0.930  0.00  0.00     0.274 A 
ATOM     14  N   UNL d   1      14.733  11.808  -1.011  0.00  0.00    -0.181 NA
ATOM     15  C   UNL d   1      15.086  11.819  -1.741  0.00  0.00     0.185 A 
ATOM     16  C   UNL d   1      14.587  11.813  -2.454  0.00  0.00     0.084 A 
BRANCH  13  17
ATOM     17  O   UNL d   1      13.586  11.779  -0.170  0.00  0.00    -0.297 OA
ATOM     18  C   UNL d   1      12.819  12.082  -0.029  0.00  0.00     0.185 C 
ENDBRANCH  13  17
BRANCH  15  19
ATOM     19  O   UNL d   1      15.917  11.837  -1.800  0.00  0.00    -0.312 OA
ATOM     20  C   UNL d   1      16.358  11.929  -1.090  0.00  0.00     0.183 C 
ENDBRANCH  15  19
ENDBRANCH  10  11
ENDBRANCH   7  10
ENDBRANCH   1   7
BRANCH   4  21
ATOM     21  N   UNL d   1      13.200  15.063  -5.565  0.00  0.00    -0.206 NA
ATOM     22  C   UNL d   1      13.679  15.709  -5.396  0.00  0.00     0.304 C 
ATOM     23  O   UNL d   1      14.167  15.696  -4.731  0.00  0.00    -0.263 OA
BRANCH  22  24
ATOM     24  C   UNL d   1      13.668  16.375  -5.897  0.00  0.00     0.185 C 
BRANCH  24  25
ATOM     25  O   UNL d   1      14.110  17.037  -5.703  0.00  0.00    -0.299 OA
BRANCH  25  26
ATOM     26  C   UNL d   1      13.854  17.820  -5.936  0.00  0.00     0.111 A 
ATOM     27  C   UNL d   1      14.393  18.435  -6.020  0.00  0.00     0.081 A 
ATOM     28 CL   UNL d   1      15.221  18.302  -5.875  0.00  0.00    -0.080 Cl
ATOM     29  C   UNL d   1      14.133  19.180  -6.244  0.00  0.00     0.013 A 
ATOM     30  C   UNL d   1      13.316  19.309  -6.387  0.00  0.00     0.001 A 
ATOM     31  C   UNL d   1      12.779  18.690  -6.302  0.00  0.00     0.002 A 
ATOM     32  C   UNL d   1      13.040  17.944  -6.078  0.00  0.00     0.026 A 
ENDBRANCH  25  26
ENDBRANCH  24  25
ENDBRANCH  22  24
ENDBRANCH   4  21
TORSDOF 9
ENDMDL
