MODEL 1
REMARK VINA RESULT:      21.4      0.000      0.000
REMARK  7 active torsions:
REMARK  status: ('A' for Active; 'I' for Inactive)
REMARK    1  A    between atoms: C_2  and  S_1 
REMARK    2  A    between atoms: N_7  and  S_1 
REMARK    3  A    between atoms: O_11  and  C_6 
REMARK    4  A    between atoms: C_12  and  N_7 
REMARK    5  A    between atoms: O_13  and  C_9 
REMARK    6  A    between atoms: C_15  and  C_12 
REMARK    7  A    between atoms: C_14  and  C_15 
ROOT
ATOM      1  S   UNL d   1      13.445  12.370  -3.480  0.00  0.00     0.287 S 
ATOM      2  O   UNL d   1      13.940  12.886  -3.052  0.00  0.00    -0.198 OA
ATOM      3  O   UNL d   1      12.960  11.856  -3.891  0.00  0.00    -0.198 OA
ENDROOT
BRANCH   1   4
ATOM      4  C   UNL d   1      13.312  12.963  -4.043  0.00  0.00     0.129 A 
ATOM      5  C   UNL d   1      13.242  13.735  -3.796  0.00  0.00     0.039 A 
ATOM      6  C   UNL d   1      13.110  14.329  -4.350  0.00  0.00     0.095 A 
ATOM      7  C   UNL d   1      13.050  14.142  -5.143  0.00  0.00     0.026 A 
ATOM      8  C   UNL d   1      13.121  13.356  -5.400  0.00  0.00     0.027 A 
ATOM      9  C   UNL d   1      13.251  12.772  -4.851  0.00  0.00     0.106 A 
BRANCH   6  10
ATOM     10  O   UNL d   1      13.036  15.120  -4.107  0.00  0.00    -0.328 OA
ATOM     11  C   UNL d   1      13.673  15.614  -4.153  0.00  0.00     0.181 C 
ENDBRANCH   6  10
BRANCH   9  12
ATOM     12  O   UNL d   1      13.321  11.995  -5.110  0.00  0.00    -0.327 OA
ATOM     13  C   UNL d   1      12.996  11.781  -5.832  0.00  0.00     0.181 C 
ENDBRANCH   9  12
ENDBRANCH   1   4
BRANCH   1  14
ATOM     14  N   UNL d   1      13.585  11.786  -2.910  0.00  0.00    -0.157 NA
BRANCH  14  15
ATOM     15  C   UNL d   1      14.230  11.847  -2.379  0.00  0.00     0.112 C 
BRANCH  15  16
ATOM     16  C   UNL d   1      14.118  11.780  -1.562  0.00  0.00     0.021 C 
BRANCH  16  17
ATOM     17  C   UNL d   1      14.475  12.314  -1.048  0.00  0.00     0.002 A 
ATOM     18  C   UNL d   1      14.015  12.806  -0.575  0.00  0.00     0.000 A 
ATOM     19  C   UNL d   1      14.371  13.342  -0.059  0.00  0.00     0.000 A 
ATOM     20  C   UNL d   1      15.200  13.384  -0.016  0.00  0.00     0.000 A 
ATOM     21  C   UNL d   1      15.659  12.880  -0.501  0.00  0.00     0.000 A 
ATOM     22  C   UNL d   1      15.304  12.356  -1.005  0.00  0.00     0.000 A 
ENDBRANCH  16  17
ENDBRANCH  15  16
ENDBRANCH  14  15
ENDBRANCH   1  14
TORSDOF 7
ENDMDL
