MODEL 1
REMARK VINA RESULT:      21.8      0.000      0.000
REMARK  5 active torsions:
REMARK  status: ('A' for Active; 'I' for Inactive)
REMARK    1  A    between atoms: C_2  and  C_1 
REMARK    2  A    between atoms: C_3  and  C_1 
REMARK    3  A    between atoms: C_4  and  C_2 
REMARK    4  A    between atoms: C_8  and  C_3 
REMARK    5  A    between atoms: O_18  and  C_10 
ROOT
ATOM      1  C   UNL d   1      14.277  12.351  -1.695  0.00  0.00     0.196 C 
ATOM      2  O   UNL d   1      14.041  11.788  -1.138  0.00  0.00    -0.287 OA
ENDROOT
BRANCH   1   3
ATOM      3  C   UNL d   1      14.858  12.905  -1.504  0.00  0.00     0.042 C 
BRANCH   3   4
ATOM      4  C   UNL d   1      15.033  13.354  -0.831  0.00  0.00     0.003 C 
BRANCH   4   5
ATOM      5  C   UNL d   1      15.157  14.157  -0.687  0.00  0.00     0.000 A 
ATOM      6  C   UNL d   1      15.810  14.394  -0.238  0.00  0.00     0.003 A 
ATOM      7  C   UNL d   1      15.936  15.198  -0.092  0.00  0.00     0.042 A 
ATOM      8  C   UNL d   1      15.410  15.756  -0.396  0.00  0.00     0.196 A 
ATOM      9  C   UNL d   1      14.760  15.511  -0.844  0.00  0.00     0.042 A 
ATOM     10  O   UNL d   1      15.533  16.559  -0.252  0.00  0.00    -0.287 OA
ATOM     11  C   UNL d   1      14.634  14.716  -0.989  0.00  0.00     0.003 A 
ENDBRANCH   4   5
ENDBRANCH   3   4
ENDBRANCH   1   3
BRANCH   1  12
ATOM     12  C   UNL d   1      13.921  12.347  -2.444  0.00  0.00     0.039 A 
ATOM     13  C   UNL d   1      14.160  12.875  -3.031  0.00  0.00     0.005 A 
ATOM     14  C   UNL d   1      13.796  12.859  -3.771  0.00  0.00     0.024 A 
ATOM     15  C   UNL d   1      13.193  12.314  -3.925  0.00  0.00     0.094 A 
ATOM     16  C   UNL d   1      12.956  11.782  -3.327  0.00  0.00     0.024 A 
ATOM     17  C   UNL d   1      13.319  11.799  -2.591  0.00  0.00     0.005 A 
BRANCH  15  18
ATOM     18  O   UNL d   1      12.830  12.298  -4.665  0.00  0.00    -0.328 OA
ATOM     19  C   UNL d   1      13.283  12.179  -5.344  0.00  0.00     0.181 C 
ENDBRANCH  15  18
ENDBRANCH   1  12
TORSDOF 5
ENDMDL
