MODEL 1
REMARK VINA RESULT:     -10.5      0.000      0.000
REMARK  1 active torsions:
REMARK  status: ('A' for Active; 'I' for Inactive)
REMARK    1  A    between atoms: C_14  and  C_6 
ROOT
ATOM      1  C   UNL d   1      53.363  33.303  54.262  0.00  0.00     0.174 A 
ATOM      2  N   UNL d   1      53.022  34.006  53.995  0.00  0.00    -0.250 N 
ATOM      3  C   UNL d   1      53.200  32.577  53.895  0.00  0.00     0.061 A 
ATOM      4  C   UNL d   1      52.686  32.558  53.250  0.00  0.00     0.115 A 
ATOM      5  N   UNL d   1      52.354  33.266  52.997  0.00  0.00    -0.221 NA
ATOM      6  C   UNL d   1      52.507  33.987  53.351  0.00  0.00     0.151 A 
ATOM      7  N   UNL d   1      53.874  33.508  54.944  0.00  0.00    -0.128 NA
ATOM      8  C   UNL d   1      53.298  34.677  54.491  0.00  0.00     0.228 A 
ATOM      9  S   UNL d   1      52.531  31.844  52.897  0.00  0.00    -0.068 SA
ATOM     10  C   UNL d   1      53.375  31.177  53.797  0.00  0.00     0.011 A 
ATOM     11  C   UNL d   1      52.861  31.158  53.152  0.00  0.00     0.031 A 
ATOM     12  N   UNL d   1      53.825  34.332  55.068  0.00  0.00    -0.117 NA
ATOM     13  S   UNL d   1      53.065  35.368  54.357  0.00  0.00    -0.036 SA
ATOM     14  C   UNL d   1      53.719  30.459  54.062  0.00  0.00     0.001 A 
ATOM     15  C   UNL d   1      52.709  30.421  52.797  0.00  0.00     0.006 A 
ATOM     16  C   UNL d   1      53.554  29.748  53.696  0.00  0.00     0.000 A 
ATOM     17  C   UNL d   1      53.039  29.729  53.052  0.00  0.00     0.001 A 
ENDROOT
BRANCH   6  18
ATOM     18  C   UNL d   1      52.215  34.532  53.111  0.00  0.00     0.037 C 
ATOM     19  C   UNL d   1      51.769  34.634  52.635  0.00  0.00     0.003 C 
ENDBRANCH   6  18
TORSDOF 1
ENDMDL
MODEL 2
REMARK VINA RESULT:      -8.9      1.557      3.122
REMARK  1 active torsions:
REMARK  status: ('A' for Active; 'I' for Inactive)
REMARK    1  A    between atoms: C_14  and  C_6 
ROOT
ATOM      1  C   UNL d   1      53.081  34.166  54.353  0.00  0.00     0.174 A 
ATOM      2  N   UNL d   1      53.748  33.680  54.359  0.00  0.00    -0.250 N 
ATOM      3  C   UNL d   1      52.464  34.046  53.812  0.00  0.00     0.061 A 
ATOM      4  C   UNL d   1      52.519  33.428  53.269  0.00  0.00     0.115 A 
ATOM      5  N   UNL d   1      53.189  32.952  53.288  0.00  0.00    -0.221 NA
ATOM      6  C   UNL d   1      53.803  33.061  53.816  0.00  0.00     0.151 A 
ATOM      7  N   UNL d   1      53.191  34.761  54.987  0.00  0.00    -0.128 NA
ATOM      8  C   UNL d   1      54.301  33.942  54.990  0.00  0.00     0.228 A 
ATOM      9  S   UNL d   1      51.910  33.317  52.742  0.00  0.00    -0.068 SA
ATOM     10  C   UNL d   1      51.205  34.406  53.275  0.00  0.00     0.011 A 
ATOM     11  C   UNL d   1      51.260  33.787  52.732  0.00  0.00     0.031 A 
ATOM     12  N   UNL d   1      53.923  34.614  55.359  0.00  0.00    -0.117 NA
ATOM     13  S   UNL d   1      54.942  33.588  55.103  0.00  0.00    -0.036 SA
ATOM     14  C   UNL d   1      50.524  34.897  53.263  0.00  0.00     0.001 A 
ATOM     15  C   UNL d   1      50.632  33.682  52.197  0.00  0.00     0.006 A 
ATOM     16  C   UNL d   1      49.921  34.773  52.727  0.00  0.00     0.000 A 
ATOM     17  C   UNL d   1      49.976  34.154  52.184  0.00  0.00     0.001 A 
ENDROOT
BRANCH   6  18
ATOM     18  C   UNL d   1      54.324  32.651  53.794  0.00  0.00     0.037 C 
ATOM     19  C   UNL d   1      54.460  32.113  53.436  0.00  0.00     0.003 C 
ENDBRANCH   6  18
TORSDOF 1
ENDMDL
MODEL 3
REMARK VINA RESULT:      -8.2      1.432      3.689
REMARK  1 active torsions:
REMARK  status: ('A' for Active; 'I' for Inactive)
REMARK    1  A    between atoms: C_14  and  C_6 
ROOT
ATOM      1  C   UNL d   1      52.533  32.078  53.015  0.00  0.00     0.174 A 
ATOM      2  N   UNL d   1      53.205  31.955  53.478  0.00  0.00    -0.250 N 
ATOM      3  C   UNL d   1      52.088  32.776  53.076  0.00  0.00     0.061 A 
ATOM      4  C   UNL d   1      52.324  33.358  53.611  0.00  0.00     0.115 A 
ATOM      5  N   UNL d   1      52.995  33.221  54.065  0.00  0.00    -0.221 NA
ATOM      6  C   UNL d   1      53.440  32.537  54.013  0.00  0.00     0.151 A 
ATOM      7  N   UNL d   1      52.433  31.367  52.512  0.00  0.00    -0.128 NA
ATOM      8  C   UNL d   1      53.555  31.170  53.290  0.00  0.00     0.228 A 
ATOM      9  S   UNL d   1      51.884  34.038  53.664  0.00  0.00    -0.068 SA
ATOM     10  C   UNL d   1      50.994  33.581  52.682  0.00  0.00     0.011 A 
ATOM     11  C   UNL d   1      51.229  34.163  53.217  0.00  0.00     0.031 A 
ATOM     12  N   UNL d   1      53.050  30.834  52.688  0.00  0.00    -0.117 NA
ATOM     13  S   UNL d   1      54.166  30.936  53.638  0.00  0.00    -0.036 SA
ATOM     14  C   UNL d   1      50.309  33.714  52.214  0.00  0.00     0.001 A 
ATOM     15  C   UNL d   1      50.772  34.856  53.264  0.00  0.00     0.006 A 
ATOM     16  C   UNL d   1      49.877  34.402  52.280  0.00  0.00     0.000 A 
ATOM     17  C   UNL d   1      50.113  34.985  52.815  0.00  0.00     0.001 A 
ENDROOT
BRANCH   6  18
ATOM     18  C   UNL d   1      53.975  32.471  54.400  0.00  0.00     0.037 C 
ATOM     19  C   UNL d   1      54.253  32.858  54.857  0.00  0.00     0.003 C 
ENDBRANCH   6  18
TORSDOF 1
ENDMDL
