MODEL 1
REMARK VINA RESULT:      -5.7      0.000      0.000
REMARK  9 active torsions:
REMARK  status: ('A' for Active; 'I' for Inactive)
REMARK       I    between atoms: C_5  and  N_1 
REMARK    1  A    between atoms: C_6  and  N_1 
REMARK    2  A    between atoms: C_7  and  C_3 
REMARK    3  A    between atoms: C_8  and  C_4 
REMARK    4  A    between atoms: C_17  and  C_5 
REMARK    5  A    between atoms: N_9  and  C_6 
REMARK    6  A    between atoms: N_14  and  N_9 
REMARK       I    between atoms: C_10  and  N_14 
REMARK    7  A    between atoms: C_20  and  C_10 
REMARK    8  A    between atoms: C_16  and  C_21 
REMARK    9  A    between atoms: C_21  and  C_20 
ROOT
ATOM      1  C   UNL d   1     -46.900  14.023  22.614  0.00  0.00     0.064 C 
ENDROOT
BRANCH   1   2
ATOM      2  C   UNL d   1     -46.186  14.406  22.737  0.00  0.00     0.297 C 
ATOM      3  N   UNL d   1     -45.475  14.039  22.558  0.00  0.00    -0.103 NA
ATOM      4  O   UNL d   1     -46.198  15.172  23.045  0.00  0.00    -0.264 OA
BRANCH   3   5
ATOM      5  N   UNL d   1     -45.456  13.277  22.251  0.00  0.00    -0.114 NA
BRANCH   5   6
ATOM      6  C   UNL d   1     -44.772  12.861  22.175  0.00  0.00     0.243 C 
ATOM      7  S   UNL d   1     -44.137  13.169  21.761  0.00  0.00    -0.035 SA
BRANCH   6   8
ATOM      8  N   UNL d   1     -44.715  12.115  22.520  0.00  0.00    -0.177 NA
ATOM      9  C   UNL d   1     -43.984  11.748  22.583  0.00  0.00     0.281 C 
ATOM     10  O   UNL d   1     -43.303  12.110  22.309  0.00  0.00    -0.265 OA
BRANCH   9  11
ATOM     11  C   UNL d   1     -43.940  11.007  22.928  0.00  0.00     0.058 A 
ATOM     12  C   UNL d   1     -43.254  10.550  22.867  0.00  0.00     0.005 A 
ATOM     13  C   UNL d   1     -43.202   9.802  23.211  0.00  0.00     0.000 A 
ATOM     14  C   UNL d   1     -43.854   9.500  23.630  0.00  0.00     0.000 A 
ATOM     15  C   UNL d   1     -44.545   9.947  23.698  0.00  0.00     0.000 A 
ATOM     16  C   UNL d   1     -44.582  10.695  23.347  0.00  0.00     0.005 A 
ENDBRANCH   9  11
ENDBRANCH   6   8
ENDBRANCH   5   6
ENDBRANCH   3   5
ENDBRANCH   1   2
BRANCH   1  17
ATOM     17  C   UNL d   1     -47.566  14.261  23.030  0.00  0.00     0.005 C 
BRANCH  17  18
ATOM     18  C   UNL d   1     -48.298  13.881  22.920  0.00  0.00    -0.000 A 
ATOM     19  C   UNL d   1     -48.969  14.329  22.774  0.00  0.00    -0.001 A 
ATOM     20  C   UNL d   1     -49.699  13.970  22.663  0.00  0.00     0.016 A 
ATOM     21  C   UNL d   1     -49.758  13.152  22.699  0.00  0.00     0.188 A 
ATOM     22  C   UNL d   1     -49.088  12.682  22.847  0.00  0.00     0.016 A 
ATOM     23  O   UNL d   1     -50.503  12.773  22.587  0.00  0.00    -0.287 OA
ATOM     24  C   UNL d   1     -48.357  13.063  22.956  0.00  0.00    -0.001 A 
BRANCH  20  25
ATOM     25  C   UNL d   1     -50.370  14.419  22.517  0.00  0.00     0.022 C 
ATOM     26  C   UNL d   1     -50.542  14.455  23.327  0.00  0.00     0.004 C 
ATOM     27  C   UNL d   1     -50.212  14.394  21.689  0.00  0.00     0.004 C 
ATOM     28  C   UNL d   1     -51.059  14.881  22.351  0.00  0.00     0.004 C 
ENDBRANCH  20  25
BRANCH  22  29
ATOM     29  C   UNL d   1     -49.125  11.862  22.887  0.00  0.00     0.022 C 
ATOM     30  C   UNL d   1     -49.246  11.904  23.698  0.00  0.00     0.004 C 
ATOM     31  C   UNL d   1     -49.004  11.816  22.072  0.00  0.00     0.004 C 
ATOM     32  C   UNL d   1     -49.161  11.039  22.916  0.00  0.00     0.004 C 
ENDBRANCH  22  29
ENDBRANCH  17  18
ENDBRANCH   1  17
TORSDOF 9
ENDMDL
MODEL 2
REMARK VINA RESULT:      -5.5      2.141      2.961
REMARK  9 active torsions:
REMARK  status: ('A' for Active; 'I' for Inactive)
REMARK       I    between atoms: C_5  and  N_1 
REMARK    1  A    between atoms: C_6  and  N_1 
REMARK    2  A    between atoms: C_7  and  C_3 
REMARK    3  A    between atoms: C_8  and  C_4 
REMARK    4  A    between atoms: C_17  and  C_5 
REMARK    5  A    between atoms: N_9  and  C_6 
REMARK    6  A    between atoms: N_14  and  N_9 
REMARK       I    between atoms: C_10  and  N_14 
REMARK    7  A    between atoms: C_20  and  C_10 
REMARK    8  A    between atoms: C_16  and  C_21 
REMARK    9  A    between atoms: C_21  and  C_20 
ROOT
ATOM      1  C   UNL d   1     -45.964  13.182  22.609  0.00  0.00     0.064 C 
ENDROOT
BRANCH   1   2
ATOM      2  C   UNL d   1     -45.376  12.696  22.909  0.00  0.00     0.297 C 
ATOM      3  N   UNL d   1     -44.627  12.684  22.573  0.00  0.00    -0.103 NA
ATOM      4  O   UNL d   1     -45.552  12.218  23.559  0.00  0.00    -0.264 OA
BRANCH   3   5
ATOM      5  N   UNL d   1     -44.445  13.157  21.927  0.00  0.00    -0.114 NA
BRANCH   5   6
ATOM      6  C   UNL d   1     -43.779  13.049  21.488  0.00  0.00     0.243 C 
ATOM      7  S   UNL d   1     -43.656  12.352  21.079  0.00  0.00    -0.035 SA
BRANCH   6   8
ATOM      8  N   UNL d   1     -43.219  13.651  21.454  0.00  0.00    -0.177 NA
ATOM      9  C   UNL d   1     -42.503  13.522  21.074  0.00  0.00     0.281 C 
ATOM     10  O   UNL d   1     -42.333  12.803  20.724  0.00  0.00    -0.265 OA
BRANCH   9  11
ATOM     11  C   UNL d   1     -41.954  14.128  21.047  0.00  0.00     0.058 A 
ATOM     12  C   UNL d   1     -42.194  14.919  21.022  0.00  0.00     0.005 A 
ATOM     13  C   UNL d   1     -41.646  15.536  20.995  0.00  0.00     0.000 A 
ATOM     14  C   UNL d   1     -40.833  15.359  20.991  0.00  0.00     0.000 A 
ATOM     15  C   UNL d   1     -40.581  14.573  21.015  0.00  0.00     0.000 A 
ATOM     16  C   UNL d   1     -41.142  13.966  21.043  0.00  0.00     0.005 A 
ENDBRANCH   9  11
ENDBRANCH   6   8
ENDBRANCH   5   6
ENDBRANCH   3   5
ENDBRANCH   1   2
BRANCH   1  17
ATOM     17  C   UNL d   1     -46.562  13.448  23.105  0.00  0.00     0.005 C 
BRANCH  17  18
ATOM     18  C   UNL d   1     -47.335  13.561  22.818  0.00  0.00    -0.000 A 
ATOM     19  C   UNL d   1     -47.698  14.291  22.912  0.00  0.00    -0.001 A 
ATOM     20  C   UNL d   1     -48.460  14.420  22.636  0.00  0.00     0.016 A 
ATOM     21  C   UNL d   1     -48.864  13.811  22.261  0.00  0.00     0.188 A 
ATOM     22  C   UNL d   1     -48.511  13.065  22.158  0.00  0.00     0.016 A 
ATOM     23  O   UNL d   1     -49.648  13.933  21.973  0.00  0.00    -0.287 OA
ATOM     24  C   UNL d   1     -47.739  12.952  22.444  0.00  0.00    -0.001 A 
BRANCH  20  25
ATOM     25  C   UNL d   1     -48.823  15.149  22.730  0.00  0.00     0.022 C 
ATOM     26  C   UNL d   1     -49.228  14.880  23.401  0.00  0.00     0.004 C 
ATOM     27  C   UNL d   1     -48.420  15.443  22.049  0.00  0.00     0.004 C 
ATOM     28  C   UNL d   1     -49.190  15.907  22.814  0.00  0.00     0.004 C 
ENDBRANCH  20  25
BRANCH  22  29
ATOM     29  C   UNL d   1     -48.898  12.442  21.785  0.00  0.00     0.022 C 
ATOM     30  C   UNL d   1     -48.646  12.719  21.054  0.00  0.00     0.004 C 
ATOM     31  C   UNL d   1     -49.152  12.162  22.519  0.00  0.00     0.004 C 
ATOM     32  C   UNL d   1     -49.289  11.815  21.422  0.00  0.00     0.004 C 
ENDBRANCH  22  29
ENDBRANCH  17  18
ENDBRANCH   1  17
TORSDOF 9
ENDMDL
MODEL 3
REMARK VINA RESULT:      -5.4      1.542      2.587
REMARK  9 active torsions:
REMARK  status: ('A' for Active; 'I' for Inactive)
REMARK       I    between atoms: C_5  and  N_1 
REMARK    1  A    between atoms: C_6  and  N_1 
REMARK    2  A    between atoms: C_7  and  C_3 
REMARK    3  A    between atoms: C_8  and  C_4 
REMARK    4  A    between atoms: C_17  and  C_5 
REMARK    5  A    between atoms: N_9  and  C_6 
REMARK    6  A    between atoms: N_14  and  N_9 
REMARK       I    between atoms: C_10  and  N_14 
REMARK    7  A    between atoms: C_20  and  C_10 
REMARK    8  A    between atoms: C_16  and  C_21 
REMARK    9  A    between atoms: C_21  and  C_20 
ROOT
ATOM      1  C   UNL d   1     -47.348  11.774  23.414  0.00  0.00     0.064 C 
ENDROOT
BRANCH   1   2
ATOM      2  C   UNL d   1     -47.142  10.999  23.588  0.00  0.00     0.297 C 
ATOM      3  N   UNL d   1     -46.356  10.788  23.697  0.00  0.00    -0.103 NA
ATOM      4  O   UNL d   1     -47.741  10.436  23.651  0.00  0.00    -0.264 OA
BRANCH   3   5
ATOM      5  N   UNL d   1     -45.755  11.344  23.636  0.00  0.00    -0.114 NA
BRANCH   5   6
ATOM      6  C   UNL d   1     -45.046  11.175  23.295  0.00  0.00     0.243 C 
ATOM      7  S   UNL d   1     -44.653  10.479  23.469  0.00  0.00    -0.035 SA
BRANCH   6   8
ATOM      8  N   UNL d   1     -44.716  11.713  22.766  0.00  0.00    -0.177 NA
ATOM      9  C   UNL d   1     -43.912  11.689  22.606  0.00  0.00     0.281 C 
ATOM     10  O   UNL d   1     -43.425  11.137  22.964  0.00  0.00    -0.265 OA
BRANCH   9  11
ATOM     11  C   UNL d   1     -43.596  12.228  22.078  0.00  0.00     0.058 A 
ATOM     12  C   UNL d   1     -42.786  12.236  21.911  0.00  0.00     0.005 A 
ATOM     13  C   UNL d   1     -42.459  12.777  21.380  0.00  0.00     0.000 A 
ATOM     14  C   UNL d   1     -42.956  13.328  21.004  0.00  0.00     0.000 A 
ATOM     15  C   UNL d   1     -43.766  13.331  21.163  0.00  0.00     0.000 A 
ATOM     16  C   UNL d   1     -44.079  12.783  21.697  0.00  0.00     0.005 A 
ENDBRANCH   9  11
ENDBRANCH   6   8
ENDBRANCH   5   6
ENDBRANCH   3   5
ENDBRANCH   1   2
BRANCH   1  17
ATOM     17  C   UNL d   1     -48.100  12.045  23.604  0.00  0.00     0.005 C 
BRANCH  17  18
ATOM     18  C   UNL d   1     -48.468  12.637  23.149  0.00  0.00    -0.000 A 
ATOM     19  C   UNL d   1     -48.106  13.368  23.069  0.00  0.00    -0.001 A 
ATOM     20  C   UNL d   1     -48.454  13.963  22.623  0.00  0.00     0.016 A 
ATOM     21  C   UNL d   1     -49.174  13.824  22.255  0.00  0.00     0.188 A 
ATOM     22  C   UNL d   1     -49.556  13.088  22.326  0.00  0.00     0.016 A 
ATOM     23  O   UNL d   1     -49.542  14.429  21.794  0.00  0.00    -0.287 OA
ATOM     24  C   UNL d   1     -49.188  12.498  22.780  0.00  0.00    -0.001 A 
BRANCH  20  25
ATOM     25  C   UNL d   1     -48.092  14.694  22.543  0.00  0.00     0.022 C 
ATOM     26  C   UNL d   1     -47.543  14.382  22.005  0.00  0.00     0.004 C 
ATOM     27  C   UNL d   1     -48.641  15.032  23.087  0.00  0.00     0.004 C 
ATOM     28  C   UNL d   1     -47.729  15.455  22.469  0.00  0.00     0.004 C 
ENDBRANCH  20  25
BRANCH  22  29
ATOM     29  C   UNL d   1     -50.277  12.929  21.964  0.00  0.00     0.022 C 
ATOM     30  C   UNL d   1     -50.670  13.118  22.660  0.00  0.00     0.004 C 
ATOM     31  C   UNL d   1     -49.884  12.738  21.264  0.00  0.00     0.004 C 
ATOM     32  C   UNL d   1     -50.994  12.766  21.593  0.00  0.00     0.004 C 
ENDBRANCH  22  29
ENDBRANCH  17  18
ENDBRANCH   1  17
TORSDOF 9
ENDMDL
MODEL 4
REMARK VINA RESULT:      -5.3      3.687      7.106
REMARK  9 active torsions:
REMARK  status: ('A' for Active; 'I' for Inactive)
REMARK       I    between atoms: C_5  and  N_1 
REMARK    1  A    between atoms: C_6  and  N_1 
REMARK    2  A    between atoms: C_7  and  C_3 
REMARK    3  A    between atoms: C_8  and  C_4 
REMARK    4  A    between atoms: C_17  and  C_5 
REMARK    5  A    between atoms: N_9  and  C_6 
REMARK    6  A    between atoms: N_14  and  N_9 
REMARK       I    between atoms: C_10  and  N_14 
REMARK    7  A    between atoms: C_20  and  C_10 
REMARK    8  A    between atoms: C_16  and  C_21 
REMARK    9  A    between atoms: C_21  and  C_20 
ROOT
ATOM      1  C   UNL d   1     -42.728  13.283  21.220  0.00  0.00     0.064 C 
ENDROOT
BRANCH   1   2
ATOM      2  C   UNL d   1     -43.122  12.692  21.630  0.00  0.00     0.297 C 
ATOM      3  N   UNL d   1     -43.909  12.782  21.846  0.00  0.00    -0.103 NA
ATOM      4  O   UNL d   1     -42.711  12.003  21.823  0.00  0.00    -0.264 OA
BRANCH   3   5
ATOM      5  N   UNL d   1     -44.325  13.465  21.657  0.00  0.00    -0.114 NA
BRANCH   5   6
ATOM      6  C   UNL d   1     -44.998  13.680  22.043  0.00  0.00     0.243 C 
ATOM      7  S   UNL d   1     -45.149  14.464  22.217  0.00  0.00    -0.035 SA
BRANCH   6   8
ATOM      8  N   UNL d   1     -45.537  13.098  22.262  0.00  0.00    -0.177 NA
ATOM      9  C   UNL d   1     -46.226  13.307  22.656  0.00  0.00     0.281 C 
ATOM     10  O   UNL d   1     -46.390  14.088  22.838  0.00  0.00    -0.265 OA
BRANCH   9  11
ATOM     11  C   UNL d   1     -46.755  12.720  22.869  0.00  0.00     0.058 A 
ATOM     12  C   UNL d   1     -47.482  12.643  22.483  0.00  0.00     0.005 A 
ATOM     13  C   UNL d   1     -48.022  12.054  22.692  0.00  0.00     0.000 A 
ATOM     14  C   UNL d   1     -47.829  11.525  23.305  0.00  0.00     0.000 A 
ATOM     15  C   UNL d   1     -47.107  11.592  23.698  0.00  0.00     0.000 A 
ATOM     16  C   UNL d   1     -46.577  12.187  23.477  0.00  0.00     0.005 A 
ENDBRANCH   9  11
ENDBRANCH   6   8
ENDBRANCH   5   6
ENDBRANCH   3   5
ENDBRANCH   1   2
BRANCH   1  17
ATOM     17  C   UNL d   1     -41.969  13.145  20.941  0.00  0.00     0.005 C 
BRANCH  17  18
ATOM     18  C   UNL d   1     -41.498  13.769  20.656  0.00  0.00    -0.000 A 
ATOM     19  C   UNL d   1     -41.102  14.251  21.188  0.00  0.00    -0.001 A 
ATOM     20  C   UNL d   1     -40.634  14.872  20.926  0.00  0.00     0.016 A 
ATOM     21  C   UNL d   1     -40.561  15.012  20.120  0.00  0.00     0.188 A 
ATOM     22  C   UNL d   1     -40.956  14.533  19.566  0.00  0.00     0.016 A 
ATOM     23  O   UNL d   1     -40.082  15.647  19.838  0.00  0.00    -0.287 OA
ATOM     24  C   UNL d   1     -41.426  13.909  19.851  0.00  0.00    -0.001 A 
BRANCH  20  25
ATOM     25  C   UNL d   1     -40.238  15.354  21.458  0.00  0.00     0.022 C 
ATOM     26  C   UNL d   1     -39.612  14.812  21.509  0.00  0.00     0.004 C 
ATOM     27  C   UNL d   1     -40.863  15.919  21.420  0.00  0.00     0.004 C 
ATOM     28  C   UNL d   1     -39.840  15.862  22.006  0.00  0.00     0.004 C 
ENDBRANCH  20  25
BRANCH  22  29
ATOM     29  C   UNL d   1     -40.897  14.656  18.755  0.00  0.00     0.022 C 
ATOM     30  C   UNL d   1     -41.445  15.265  18.804  0.00  0.00     0.004 C 
ATOM     31  C   UNL d   1     -40.345  14.044  18.703  0.00  0.00     0.004 C 
ATOM     32  C   UNL d   1     -40.830  14.771  17.942  0.00  0.00     0.004 C 
ENDBRANCH  22  29
ENDBRANCH  17  18
ENDBRANCH   1  17
TORSDOF 9
ENDMDL
MODEL 5
REMARK VINA RESULT:      -5.0      4.012      7.652
REMARK  9 active torsions:
REMARK  status: ('A' for Active; 'I' for Inactive)
REMARK       I    between atoms: C_5  and  N_1 
REMARK    1  A    between atoms: C_6  and  N_1 
REMARK    2  A    between atoms: C_7  and  C_3 
REMARK    3  A    between atoms: C_8  and  C_4 
REMARK    4  A    between atoms: C_17  and  C_5 
REMARK    5  A    between atoms: N_9  and  C_6 
REMARK    6  A    between atoms: N_14  and  N_9 
REMARK       I    between atoms: C_10  and  N_14 
REMARK    7  A    between atoms: C_20  and  C_10 
REMARK    8  A    between atoms: C_16  and  C_21 
REMARK    9  A    between atoms: C_21  and  C_20 
ROOT
ATOM      1  C   UNL d   1     -42.179  13.417  21.156  0.00  0.00     0.064 C 
ENDROOT
BRANCH   1   2
ATOM      2  C   UNL d   1     -42.729  13.000  20.714  0.00  0.00     0.297 C 
ATOM      3  N   UNL d   1     -43.415  12.712  21.060  0.00  0.00    -0.103 NA
ATOM      4  O   UNL d   1     -42.578  12.874  19.913  0.00  0.00    -0.264 OA
BRANCH   3   5
ATOM      5  N   UNL d   1     -43.572  12.833  21.857  0.00  0.00    -0.114 NA
BRANCH   5   6
ATOM      6  C   UNL d   1     -44.236  12.551  22.213  0.00  0.00     0.243 C 
ATOM      7  S   UNL d   1     -44.228  11.835  22.609  0.00  0.00    -0.035 SA
BRANCH   6   8
ATOM      8  N   UNL d   1     -44.930  12.993  22.176  0.00  0.00    -0.177 NA
ATOM      9  C   UNL d   1     -45.522  12.872  22.731  0.00  0.00     0.281 C 
ATOM     10  O   UNL d   1     -45.437  12.318  23.327  0.00  0.00    -0.265 OA
BRANCH   9  11
ATOM     11  C   UNL d   1     -46.206  13.317  22.684  0.00  0.00     0.058 A 
ATOM     12  C   UNL d   1     -46.215  14.110  22.917  0.00  0.00     0.005 A 
ATOM     13  C   UNL d   1     -46.902  14.567  22.873  0.00  0.00     0.000 A 
ATOM     14  C   UNL d   1     -47.602  14.220  22.587  0.00  0.00     0.000 A 
ATOM     15  C   UNL d   1     -47.606  13.430  22.351  0.00  0.00     0.000 A 
ATOM     16  C   UNL d   1     -46.910  12.986  22.401  0.00  0.00     0.005 A 
ENDBRANCH   9  11
ENDBRANCH   6   8
ENDBRANCH   5   6
ENDBRANCH   3   5
ENDBRANCH   1   2
BRANCH   1  17
ATOM     17  C   UNL d   1     -41.919  14.151  20.893  0.00  0.00     0.005 C 
BRANCH  17  18
ATOM     18  C   UNL d   1     -41.108  14.329  20.858  0.00  0.00    -0.000 A 
ATOM     19  C   UNL d   1     -40.777  14.567  20.146  0.00  0.00    -0.001 A 
ATOM     20  C   UNL d   1     -39.978  14.747  20.093  0.00  0.00     0.016 A 
ATOM     21  C   UNL d   1     -39.504  14.688  20.761  0.00  0.00     0.188 A 
ATOM     22  C   UNL d   1     -39.823  14.449  21.491  0.00  0.00     0.016 A 
ATOM     23  O   UNL d   1     -38.681  14.871  20.718  0.00  0.00    -0.287 OA
ATOM     24  C   UNL d   1     -40.634  14.271  21.526  0.00  0.00    -0.001 A 
BRANCH  20  25
ATOM     25  C   UNL d   1     -39.647  14.984  19.381  0.00  0.00     0.022 C 
ATOM     26  C   UNL d   1     -39.416  14.206  19.210  0.00  0.00     0.004 C 
ATOM     27  C   UNL d   1     -39.873  15.782  19.536  0.00  0.00     0.004 C 
ATOM     28  C   UNL d   1     -39.310  15.243  18.650  0.00  0.00     0.004 C 
ENDBRANCH  20  25
BRANCH  22  29
ATOM     29  C   UNL d   1     -39.366  14.384  22.171  0.00  0.00     0.022 C 
ATOM     30  C   UNL d   1     -39.500  15.176  22.341  0.00  0.00     0.004 C 
ATOM     31  C   UNL d   1     -39.230  13.588  22.004  0.00  0.00     0.004 C 
ATOM     32  C   UNL d   1     -38.906  14.308  22.851  0.00  0.00     0.004 C 
ENDBRANCH  22  29
ENDBRANCH  17  18
ENDBRANCH   1  17
TORSDOF 9
ENDMDL
MODEL 6
REMARK VINA RESULT:      -4.5      5.084      8.173
REMARK  9 active torsions:
REMARK  status: ('A' for Active; 'I' for Inactive)
REMARK       I    between atoms: C_5  and  N_1 
REMARK    1  A    between atoms: C_6  and  N_1 
REMARK    2  A    between atoms: C_7  and  C_3 
REMARK    3  A    between atoms: C_8  and  C_4 
REMARK    4  A    between atoms: C_17  and  C_5 
REMARK    5  A    between atoms: N_9  and  C_6 
REMARK    6  A    between atoms: N_14  and  N_9 
REMARK       I    between atoms: C_10  and  N_14 
REMARK    7  A    between atoms: C_20  and  C_10 
REMARK    8  A    between atoms: C_16  and  C_21 
REMARK    9  A    between atoms: C_21  and  C_20 
ROOT
ATOM      1  C   UNL d   1     -41.075  14.495  20.282  0.00  0.00     0.064 C 
ENDROOT
BRANCH   1   2
ATOM      2  C   UNL d   1     -41.344  14.715  21.025  0.00  0.00     0.297 C 
ATOM      3  N   UNL d   1     -41.979  14.328  21.374  0.00  0.00    -0.103 NA
ATOM      4  O   UNL d   1     -40.964  15.334  21.415  0.00  0.00    -0.264 OA
BRANCH   3   5
ATOM      5  N   UNL d   1     -42.362  13.711  20.990  0.00  0.00    -0.114 NA
BRANCH   5   6
ATOM      6  C   UNL d   1     -42.852  13.202  21.376  0.00  0.00     0.243 C 
ATOM      7  S   UNL d   1     -42.588  12.465  21.613  0.00  0.00    -0.035 SA
BRANCH   6   8
ATOM      8  N   UNL d   1     -43.627  13.432  21.533  0.00  0.00    -0.177 NA
ATOM      9  C   UNL d   1     -44.165  12.884  21.822  0.00  0.00     0.281 C 
ATOM     10  O   UNL d   1     -43.947  12.108  21.959  0.00  0.00    -0.265 OA
BRANCH   9  11
ATOM     11  C   UNL d   1     -44.932  13.124  21.973  0.00  0.00     0.058 A 
ATOM     12  C   UNL d   1     -45.576  12.734  21.630  0.00  0.00     0.005 A 
ATOM     13  C   UNL d   1     -46.353  12.970  21.778  0.00  0.00     0.000 A 
ATOM     14  C   UNL d   1     -46.493  13.615  22.284  0.00  0.00     0.000 A 
ATOM     15  C   UNL d   1     -45.859  14.012  22.633  0.00  0.00     0.000 A 
ATOM     16  C   UNL d   1     -45.086  13.764  22.475  0.00  0.00     0.005 A 
ENDBRANCH   9  11
ENDBRANCH   6   8
ENDBRANCH   5   6
ENDBRANCH   3   5
ENDBRANCH   1   2
BRANCH   1  17
ATOM     17  C   UNL d   1     -40.385  14.828  19.986  0.00  0.00     0.005 C 
BRANCH  17  18
ATOM     18  C   UNL d   1     -40.145  14.687  19.202  0.00  0.00    -0.000 A 
ATOM     19  C   UNL d   1     -40.515  15.085  18.588  0.00  0.00    -0.001 A 
ATOM     20  C   UNL d   1     -40.291  14.957  17.809  0.00  0.00     0.016 A 
ATOM     21  C   UNL d   1     -39.689  14.425  17.642  0.00  0.00     0.188 A 
ATOM     22  C   UNL d   1     -39.302  14.012  18.253  0.00  0.00     0.016 A 
ATOM     23  O   UNL d   1     -39.450  14.286  16.845  0.00  0.00    -0.287 OA
ATOM     24  C   UNL d   1     -39.543  14.154  19.036  0.00  0.00    -0.001 A 
BRANCH  20  25
ATOM     25  C   UNL d   1     -40.661  15.355  17.195  0.00  0.00     0.022 C 
ATOM     26  C   UNL d   1     -40.052  15.918  17.170  0.00  0.00     0.004 C 
ATOM     27  C   UNL d   1     -41.290  14.794  17.203  0.00  0.00     0.004 C 
ATOM     28  C   UNL d   1     -41.053  15.756  16.561  0.00  0.00     0.004 C 
ENDBRANCH  20  25
BRANCH  22  29
ATOM     29  C   UNL d   1     -38.697  13.475  18.108  0.00  0.00     0.022 C 
ATOM     30  C   UNL d   1     -38.141  14.071  18.206  0.00  0.00     0.004 C 
ATOM     31  C   UNL d   1     -39.254  12.874  18.009  0.00  0.00     0.004 C 
ATOM     32  C   UNL d   1     -38.098  12.928  17.961  0.00  0.00     0.004 C 
ENDBRANCH  22  29
ENDBRANCH  17  18
ENDBRANCH   1  17
TORSDOF 9
ENDMDL
MODEL 7
REMARK VINA RESULT:      -4.4      5.023      8.283
REMARK  9 active torsions:
REMARK  status: ('A' for Active; 'I' for Inactive)
REMARK       I    between atoms: C_5  and  N_1 
REMARK    1  A    between atoms: C_6  and  N_1 
REMARK    2  A    between atoms: C_7  and  C_3 
REMARK    3  A    between atoms: C_8  and  C_4 
REMARK    4  A    between atoms: C_17  and  C_5 
REMARK    5  A    between atoms: N_9  and  C_6 
REMARK    6  A    between atoms: N_14  and  N_9 
REMARK       I    between atoms: C_10  and  N_14 
REMARK    7  A    between atoms: C_20  and  C_10 
REMARK    8  A    between atoms: C_16  and  C_21 
REMARK    9  A    between atoms: C_21  and  C_20 
ROOT
ATOM      1  C   UNL d   1     -41.193  14.462  20.286  0.00  0.00     0.064 C 
ENDROOT
BRANCH   1   2
ATOM      2  C   UNL d   1     -41.465  14.658  21.034  0.00  0.00     0.297 C 
ATOM      3  N   UNL d   1     -42.100  14.261  21.369  0.00  0.00    -0.103 NA
ATOM      4  O   UNL d   1     -41.085  15.265  21.445  0.00  0.00    -0.264 OA
BRANCH   3   5
ATOM      5  N   UNL d   1     -42.482  13.656  20.966  0.00  0.00    -0.114 NA
BRANCH   5   6
ATOM      6  C   UNL d   1     -42.973  13.136  21.335  0.00  0.00     0.243 C 
ATOM      7  S   UNL d   1     -42.698  12.408  21.588  0.00  0.00    -0.035 SA
BRANCH   6   8
ATOM      8  N   UNL d   1     -43.760  13.344  21.457  0.00  0.00    -0.177 NA
ATOM      9  C   UNL d   1     -44.250  12.850  21.893  0.00  0.00     0.281 C 
ATOM     10  O   UNL d   1     -43.971  12.151  22.212  0.00  0.00    -0.265 OA
BRANCH   9  11
ATOM     11  C   UNL d   1     -45.031  13.067  22.007  0.00  0.00     0.058 A 
ATOM     12  C   UNL d   1     -45.242  13.592  22.610  0.00  0.00     0.005 A 
ATOM     13  C   UNL d   1     -46.027  13.817  22.732  0.00  0.00     0.000 A 
ATOM     14  C   UNL d   1     -46.620  13.507  22.237  0.00  0.00     0.000 A 
ATOM     15  C   UNL d   1     -46.422  12.982  21.633  0.00  0.00     0.000 A 
ATOM     16  C   UNL d   1     -45.631  12.767  21.523  0.00  0.00     0.005 A 
ENDBRANCH   9  11
ENDBRANCH   6   8
ENDBRANCH   5   6
ENDBRANCH   3   5
ENDBRANCH   1   2
BRANCH   1  17
ATOM     17  C   UNL d   1     -40.477  14.764  20.022  0.00  0.00     0.005 C 
BRANCH  17  18
ATOM     18  C   UNL d   1     -40.231  14.654  19.235  0.00  0.00    -0.000 A 
ATOM     19  C   UNL d   1     -39.662  14.089  19.065  0.00  0.00    -0.001 A 
ATOM     20  C   UNL d   1     -39.407  13.967  18.294  0.00  0.00     0.016 A 
ATOM     21  C   UNL d   1     -39.727  14.416  17.686  0.00  0.00     0.188 A 
ATOM     22  C   UNL d   1     -40.305  14.994  17.840  0.00  0.00     0.016 A 
ATOM     23  O   UNL d   1     -39.473  14.300  16.889  0.00  0.00    -0.287 OA
ATOM     24  C   UNL d   1     -40.551  15.104  18.627  0.00  0.00    -0.001 A 
BRANCH  20  25
ATOM     25  C   UNL d   1     -38.838  13.402  18.124  0.00  0.00     0.022 C 
ATOM     26  C   UNL d   1     -38.268  13.822  18.556  0.00  0.00     0.004 C 
ATOM     27  C   UNL d   1     -39.403  12.959  17.680  0.00  0.00     0.004 C 
ATOM     28  C   UNL d   1     -38.261  12.811  17.940  0.00  0.00     0.004 C 
ENDBRANCH  20  25
BRANCH  22  29
ATOM     29  C   UNL d   1     -40.638  15.455  17.246  0.00  0.00     0.022 C 
ATOM     30  C   UNL d   1     -39.958  15.914  17.217  0.00  0.00     0.004 C 
ATOM     31  C   UNL d   1     -41.323  14.994  17.272  0.00  0.00     0.004 C 
ATOM     32  C   UNL d   1     -40.981  15.910  16.651  0.00  0.00     0.004 C 
ENDBRANCH  22  29
ENDBRANCH  17  18
ENDBRANCH   1  17
TORSDOF 9
ENDMDL
MODEL 8
REMARK VINA RESULT:      -4.2      2.282      5.757
REMARK  9 active torsions:
REMARK  status: ('A' for Active; 'I' for Inactive)
REMARK       I    between atoms: C_5  and  N_1 
REMARK    1  A    between atoms: C_6  and  N_1 
REMARK    2  A    between atoms: C_7  and  C_3 
REMARK    3  A    between atoms: C_8  and  C_4 
REMARK    4  A    between atoms: C_17  and  C_5 
REMARK    5  A    between atoms: N_9  and  C_6 
REMARK    6  A    between atoms: N_14  and  N_9 
REMARK       I    between atoms: C_10  and  N_14 
REMARK    7  A    between atoms: C_20  and  C_10 
REMARK    8  A    between atoms: C_16  and  C_21 
REMARK    9  A    between atoms: C_21  and  C_20 
ROOT
ATOM      1  C   UNL d   1     -47.413  11.708  23.526  0.00  0.00     0.064 C 
ENDROOT
BRANCH   1   2
ATOM      2  C   UNL d   1     -47.925  11.069  23.569  0.00  0.00     0.297 C 
ATOM      3  N   UNL d   1     -48.734  11.183  23.642  0.00  0.00    -0.103 NA
ATOM      4  O   UNL d   1     -47.609  10.308  23.537  0.00  0.00    -0.264 OA
BRANCH   3   5
ATOM      5  N   UNL d   1     -49.056  11.938  23.674  0.00  0.00    -0.114 NA
BRANCH   5   6
ATOM      6  C   UNL d   1     -49.850  12.068  23.669  0.00  0.00     0.243 C 
ATOM      7  S   UNL d   1     -50.377  11.444  23.698  0.00  0.00    -0.035 SA
BRANCH   6   8
ATOM      8  N   UNL d   1     -50.129  12.842  23.634  0.00  0.00    -0.177 NA
ATOM      9  C   UNL d   1     -50.206  13.216  22.907  0.00  0.00     0.281 C 
ATOM     10  O   UNL d   1     -50.010  12.833  22.211  0.00  0.00    -0.265 OA
BRANCH   9  11
ATOM     11  C   UNL d   1     -50.485  13.985  22.884  0.00  0.00     0.058 A 
ATOM     12  C   UNL d   1     -50.730  14.328  22.173  0.00  0.00     0.005 A 
ATOM     13  C   UNL d   1     -51.012  15.103  22.141  0.00  0.00     0.000 A 
ATOM     14  C   UNL d   1     -51.051  15.550  22.841  0.00  0.00     0.000 A 
ATOM     15  C   UNL d   1     -50.809  15.219  23.558  0.00  0.00     0.000 A 
ATOM     16  C   UNL d   1     -50.529  14.441  23.573  0.00  0.00     0.005 A 
ENDBRANCH   9  11
ENDBRANCH   6   8
ENDBRANCH   5   6
ENDBRANCH   3   5
ENDBRANCH   1   2
BRANCH   1  17
ATOM     17  C   UNL d   1     -46.686  11.621  23.154  0.00  0.00     0.005 C 
BRANCH  17  18
ATOM     18  C   UNL d   1     -46.269  12.284  22.872  0.00  0.00    -0.000 A 
ATOM     19  C   UNL d   1     -45.524  12.183  22.545  0.00  0.00    -0.001 A 
ATOM     20  C   UNL d   1     -45.098  12.825  22.262  0.00  0.00     0.016 A 
ATOM     21  C   UNL d   1     -45.423  13.578  22.307  0.00  0.00     0.188 A 
ATOM     22  C   UNL d   1     -46.178  13.698  22.635  0.00  0.00     0.016 A 
ATOM     23  O   UNL d   1     -44.994  14.245  22.019  0.00  0.00    -0.287 OA
ATOM     24  C   UNL d   1     -46.594  13.037  22.916  0.00  0.00    -0.001 A 
BRANCH  20  25
ATOM     25  C   UNL d   1     -44.353  12.724  21.936  0.00  0.00     0.022 C 
ATOM     26  C   UNL d   1     -44.052  12.459  22.662  0.00  0.00     0.004 C 
ATOM     27  C   UNL d   1     -44.638  12.991  21.188  0.00  0.00     0.004 C 
ATOM     28  C   UNL d   1     -43.589  12.625  21.585  0.00  0.00     0.004 C 
ENDBRANCH  20  25
BRANCH  22  29
ATOM     29  C   UNL d   1     -46.521  14.444  22.689  0.00  0.00     0.022 C 
ATOM     30  C   UNL d   1     -46.970  14.289  22.019  0.00  0.00     0.004 C 
ATOM     31  C   UNL d   1     -46.071  14.602  23.362  0.00  0.00     0.004 C 
ATOM     32  C   UNL d   1     -46.859  15.193  22.752  0.00  0.00     0.004 C 
ENDBRANCH  22  29
ENDBRANCH  17  18
ENDBRANCH   1  17
TORSDOF 9
ENDMDL
MODEL 9
REMARK VINA RESULT:      -3.7      3.295      4.784
REMARK  9 active torsions:
REMARK  status: ('A' for Active; 'I' for Inactive)
REMARK       I    between atoms: C_5  and  N_1 
REMARK    1  A    between atoms: C_6  and  N_1 
REMARK    2  A    between atoms: C_7  and  C_3 
REMARK    3  A    between atoms: C_8  and  C_4 
REMARK    4  A    between atoms: C_17  and  C_5 
REMARK    5  A    between atoms: N_9  and  C_6 
REMARK    6  A    between atoms: N_14  and  N_9 
REMARK       I    between atoms: C_10  and  N_14 
REMARK    7  A    between atoms: C_20  and  C_10 
REMARK    8  A    between atoms: C_16  and  C_21 
REMARK    9  A    between atoms: C_21  and  C_20 
ROOT
ATOM      1  C   UNL d   1     -43.947  12.957  21.739  0.00  0.00     0.064 C 
ENDROOT
BRANCH   1   2
ATOM      2  C   UNL d   1     -43.242  12.538  21.732  0.00  0.00     0.297 C 
ATOM      3  N   UNL d   1     -42.563  12.862  21.404  0.00  0.00    -0.103 NA
ATOM      4  O   UNL d   1     -43.230  11.782  22.061  0.00  0.00    -0.264 OA
BRANCH   3   5
ATOM      5  N   UNL d   1     -42.568  13.614  21.074  0.00  0.00    -0.114 NA
BRANCH   5   6
ATOM      6  C   UNL d   1     -41.892  14.022  20.920  0.00  0.00     0.243 C 
ATOM      7  S   UNL d   1     -41.535  14.475  21.500  0.00  0.00    -0.035 SA
BRANCH   6   8
ATOM      8  N   UNL d   1     -41.559  13.978  20.168  0.00  0.00    -0.177 NA
ATOM      9  C   UNL d   1     -40.984  14.519  19.944  0.00  0.00     0.281 C 
ATOM     10  O   UNL d   1     -40.731  15.105  20.455  0.00  0.00    -0.265 OA
BRANCH   9  11
ATOM     11  C   UNL d   1     -40.661  14.465  19.194  0.00  0.00     0.058 A 
ATOM     12  C   UNL d   1     -40.978  14.895  18.563  0.00  0.00     0.005 A 
ATOM     13  C   UNL d   1     -40.658  14.847  17.803  0.00  0.00     0.000 A 
ATOM     14  C   UNL d   1     -40.001  14.354  17.669  0.00  0.00     0.000 A 
ATOM     15  C   UNL d   1     -39.675  13.921  18.291  0.00  0.00     0.000 A 
ATOM     16  C   UNL d   1     -40.007  13.979  19.046  0.00  0.00     0.005 A 
ENDBRANCH   9  11
ENDBRANCH   6   8
ENDBRANCH   5   6
ENDBRANCH   3   5
ENDBRANCH   1   2
BRANCH   1  17
ATOM     17  C   UNL d   1     -44.656  12.561  21.616  0.00  0.00     0.005 C 
BRANCH  17  18
ATOM     18  C   UNL d   1     -45.331  12.746  22.065  0.00  0.00    -0.000 A 
ATOM     19  C   UNL d   1     -45.736  12.146  22.451  0.00  0.00    -0.001 A 
ATOM     20  C   UNL d   1     -46.405  12.310  22.898  0.00  0.00     0.016 A 
ATOM     21  C   UNL d   1     -46.671  13.084  22.961  0.00  0.00     0.188 A 
ATOM     22  C   UNL d   1     -46.272  13.705  22.577  0.00  0.00     0.016 A 
ATOM     23  O   UNL d   1     -47.357  13.264  23.418  0.00  0.00    -0.287 OA
ATOM     24  C   UNL d   1     -45.597  13.520  22.128  0.00  0.00    -0.001 A 
BRANCH  20  25
ATOM     25  C   UNL d   1     -46.810  11.710  23.284  0.00  0.00     0.022 C 
ATOM     26  C   UNL d   1     -46.123  11.485  23.691  0.00  0.00     0.004 C 
ATOM     27  C   UNL d   1     -47.519  11.922  22.880  0.00  0.00     0.004 C 
ATOM     28  C   UNL d   1     -47.240  11.095  23.674  0.00  0.00     0.004 C 
ENDBRANCH  20  25
BRANCH  22  29
ATOM     29  C   UNL d   1     -46.522  14.487  22.626  0.00  0.00     0.022 C 
ATOM     30  C   UNL d   1     -45.951  14.636  23.198  0.00  0.00     0.004 C 
ATOM     31  C   UNL d   1     -47.096  14.340  22.052  0.00  0.00     0.004 C 
ATOM     32  C   UNL d   1     -46.780  15.268  22.669  0.00  0.00     0.004 C 
ENDBRANCH  22  29
ENDBRANCH  17  18
ENDBRANCH   1  17
TORSDOF 9
ENDMDL
