MODEL 1
REMARK VINA RESULT:      56.5      0.000      0.000
REMARK  4 active torsions:
REMARK  status: ('A' for Active; 'I' for Inactive)
REMARK       I    between atoms: N_2  and  C_3 
REMARK    1  A    between atoms: C_3  and  C_8 
REMARK    2  A    between atoms: S_7  and  C_5 
REMARK    3  A    between atoms: C_10  and  C_6 
REMARK    4  A    between atoms: C_8  and  S_7 
ROOT
ATOM      1  N   UNL d   1     -50.807  26.946  33.712  0.00  0.00    -0.148 NA
ATOM      2  N   UNL d   1     -50.207  27.504  33.807  0.00  0.00    -0.141 NA
ATOM      3  C   UNL d   1     -49.418  27.274  33.786  0.00  0.00     0.133 A 
ATOM      4  C   UNL d   1     -50.610  26.151  33.594  0.00  0.00     0.103 A 
ATOM      5  C   UNL d   1     -49.826  25.916  33.572  0.00  0.00     0.023 A 
ATOM      6  C   UNL d   1     -49.227  26.468  33.667  0.00  0.00     0.029 A 
ENDROOT
BRANCH   3   7
ATOM      7  S   UNL d   1     -48.827  27.830  33.881  0.00  0.00    -0.061 SA
BRANCH   7   8
ATOM      8  C   UNL d   1     -48.897  28.411  34.460  0.00  0.00     0.098 C 
BRANCH   8   9
ATOM      9  C   UNL d   1     -48.279  28.542  34.988  0.00  0.00     0.271 C 
ATOM     10  N   UNL d   1     -47.993  29.308  35.100  0.00  0.00    -0.272 N 
ATOM     11  C   UNL d   1     -47.381  29.441  35.622  0.00  0.00     0.083 A 
ATOM     12  C   UNL d   1     -48.331  29.933  34.681  0.00  0.00     0.083 A 
ATOM     13  C   UNL d   1     -47.092  30.196  35.739  0.00  0.00     0.019 A 
ATOM     14  C   UNL d   1     -47.423  30.837  35.323  0.00  0.00     0.003 A 
ATOM     15  C   UNL d   1     -48.044  30.695  34.795  0.00  0.00     0.019 A 
ATOM     16  O   UNL d   1     -47.944  27.923  35.403  0.00  0.00    -0.266 OA
ENDBRANCH   8   9
ENDBRANCH   7   8
ENDBRANCH   3   7
BRANCH   4  17
ATOM     17  C   UNL d   1     -51.209  25.593  33.498  0.00  0.00     0.019 A 
ATOM     18  C   UNL d   1     -51.023  24.785  33.445  0.00  0.00     0.002 A 
ATOM     19  C   UNL d   1     -51.625  24.223  33.349  0.00  0.00     0.000 A 
ATOM     20  C   UNL d   1     -52.417  24.466  33.306  0.00  0.00     0.000 A 
ATOM     21  C   UNL d   1     -52.602  25.260  33.358  0.00  0.00     0.000 A 
ATOM     22  C   UNL d   1     -52.008  25.830  33.454  0.00  0.00     0.002 A 
ENDBRANCH   4  17
TORSDOF 4
ENDMDL
MODEL 2
REMARK VINA RESULT:      57.3      1.383      5.401
REMARK  4 active torsions:
REMARK  status: ('A' for Active; 'I' for Inactive)
REMARK       I    between atoms: N_2  and  C_3 
REMARK    1  A    between atoms: C_3  and  C_8 
REMARK    2  A    between atoms: S_7  and  C_5 
REMARK    3  A    between atoms: C_10  and  C_6 
REMARK    4  A    between atoms: C_8  and  S_7 
ROOT
ATOM      1  N   UNL d   1     -49.006  27.317  35.003  0.00  0.00    -0.148 NA
ATOM      2  N   UNL d   1     -49.393  26.754  34.541  0.00  0.00    -0.141 NA
ATOM      3  C   UNL d   1     -49.592  26.921  33.760  0.00  0.00     0.133 A 
ATOM      4  C   UNL d   1     -48.818  28.053  34.677  0.00  0.00     0.103 A 
ATOM      5  C   UNL d   1     -49.013  28.226  33.900  0.00  0.00     0.023 A 
ATOM      6  C   UNL d   1     -49.398  27.669  33.438  0.00  0.00     0.029 A 
ENDROOT
BRANCH   3   7
ATOM      7  S   UNL d   1     -49.975  26.360  33.306  0.00  0.00    -0.061 SA
BRANCH   7   8
ATOM      8  C   UNL d   1     -50.661  26.002  33.586  0.00  0.00     0.098 C 
BRANCH   8   9
ATOM      9  C   UNL d   1     -50.789  25.200  33.451  0.00  0.00     0.271 C 
ATOM     10  N   UNL d   1     -51.560  24.906  33.446  0.00  0.00    -0.272 N 
ATOM     11  C   UNL d   1     -51.692  24.113  33.313  0.00  0.00     0.083 A 
ATOM     12  C   UNL d   1     -52.192  25.420  33.576  0.00  0.00     0.083 A 
ATOM     13  C   UNL d   1     -52.451  23.813  33.306  0.00  0.00     0.019 A 
ATOM     14  C   UNL d   1     -53.099  24.320  33.435  0.00  0.00     0.003 A 
ATOM     15  C   UNL d   1     -52.959  25.123  33.569  0.00  0.00     0.019 A 
ATOM     16  O   UNL d   1     -50.163  24.691  33.323  0.00  0.00    -0.266 OA
ENDBRANCH   8   9
ENDBRANCH   7   8
ENDBRANCH   3   7
BRANCH   4  17
ATOM     17  C   UNL d   1     -48.431  28.617  35.138  0.00  0.00     0.019 A 
ATOM     18  C   UNL d   1     -48.767  28.874  35.853  0.00  0.00     0.002 A 
ATOM     19  C   UNL d   1     -48.378  29.440  36.316  0.00  0.00     0.000 A 
ATOM     20  C   UNL d   1     -47.651  29.753  36.068  0.00  0.00     0.000 A 
ATOM     21  C   UNL d   1     -47.319  29.501  35.366  0.00  0.00     0.000 A 
ATOM     22  C   UNL d   1     -47.699  28.935  34.894  0.00  0.00     0.002 A 
ENDBRANCH   4  17
TORSDOF 4
ENDMDL
MODEL 3
REMARK VINA RESULT:      59.4      1.244      5.346
REMARK  4 active torsions:
REMARK  status: ('A' for Active; 'I' for Inactive)
REMARK       I    between atoms: N_2  and  C_3 
REMARK    1  A    between atoms: C_3  and  C_8 
REMARK    2  A    between atoms: S_7  and  C_5 
REMARK    3  A    between atoms: C_10  and  C_6 
REMARK    4  A    between atoms: C_8  and  S_7 
ROOT
ATOM      1  N   UNL d   1     -48.760  27.893  35.052  0.00  0.00    -0.148 NA
ATOM      2  N   UNL d   1     -49.219  27.474  34.509  0.00  0.00    -0.141 NA
ATOM      3  C   UNL d   1     -49.519  27.849  33.842  0.00  0.00     0.133 A 
ATOM      4  C   UNL d   1     -48.603  28.694  34.922  0.00  0.00     0.103 A 
ATOM      5  C   UNL d   1     -48.900  29.073  34.260  0.00  0.00     0.023 A 
ATOM      6  C   UNL d   1     -49.356  28.661  33.718  0.00  0.00     0.029 A 
ENDROOT
BRANCH   3   7
ATOM      7  S   UNL d   1     -49.973  27.431  33.307  0.00  0.00    -0.061 SA
BRANCH   7   8
ATOM      8  C   UNL d   1     -50.152  26.640  33.448  0.00  0.00     0.098 C 
BRANCH   8   9
ATOM      9  C   UNL d   1     -50.937  26.404  33.529  0.00  0.00     0.271 C 
ATOM     10  N   UNL d   1     -51.129  25.603  33.481  0.00  0.00    -0.272 N 
ATOM     11  C   UNL d   1     -51.904  25.365  33.561  0.00  0.00     0.083 A 
ATOM     12  C   UNL d   1     -50.531  25.049  33.353  0.00  0.00     0.083 A 
ATOM     13  C   UNL d   1     -52.103  24.575  33.516  0.00  0.00     0.019 A 
ATOM     14  C   UNL d   1     -51.511  24.004  33.387  0.00  0.00     0.003 A 
ATOM     15  C   UNL d   1     -50.727  24.251  33.307  0.00  0.00     0.019 A 
ATOM     16  O   UNL d   1     -51.528  26.953  33.656  0.00  0.00    -0.266 OA
ENDBRANCH   8   9
ENDBRANCH   7   8
ENDBRANCH   3   7
BRANCH   4  17
ATOM     17  C   UNL d   1     -48.144  29.113  35.464  0.00  0.00     0.019 A 
ATOM     18  C   UNL d   1     -47.431  29.464  35.225  0.00  0.00     0.002 A 
ATOM     19  C   UNL d   1     -46.969  29.885  35.770  0.00  0.00     0.000 A 
ATOM     20  C   UNL d   1     -47.219  29.959  36.558  0.00  0.00     0.000 A 
ATOM     21  C   UNL d   1     -47.921  29.614  36.795  0.00  0.00     0.000 A 
ATOM     22  C   UNL d   1     -48.390  29.190  36.258  0.00  0.00     0.002 A 
ENDBRANCH   4  17
TORSDOF 4
ENDMDL
