MODEL 1
REMARK VINA RESULT:      11.6      0.000      0.000
REMARK  7 active torsions:
REMARK  status: ('A' for Active; 'I' for Inactive)
REMARK    1  A    between atoms: N_2  and  C_1 
REMARK    2  A    between atoms: N_4  and  C_3 
REMARK       I    between atoms: C_6  and  N_4 
REMARK    3  A    between atoms: C_7  and  C_6 
REMARK    4  A    between atoms: C_10  and  C_7 
REMARK    5  A    between atoms: C_14  and  C_10 
REMARK    6  A    between atoms: O_16  and  C_13 
REMARK    7  A    between atoms: C_17  and  O_16 
ROOT
ATOM      1  C   UNL d   1      44.876 -14.494  44.722  0.00  0.00     0.146 A 
ATOM      2  C   UNL d   1      45.467 -15.014  44.625  0.00  0.00     0.107 A 
ATOM      3  C   UNL d   1      45.020 -13.685  44.677  0.00  0.00     0.050 A 
ATOM      4  C   UNL d   1      46.242 -14.736  44.478  0.00  0.00     0.023 A 
ATOM      5  C   UNL d   1      45.766 -13.390  44.535  0.00  0.00     0.102 A 
ATOM      6  C   UNL d   1      46.388 -13.936  44.433  0.00  0.00     0.026 A 
ENDROOT
BRANCH   2   7
ATOM      7  N   UNL d   1      45.353 -15.853  44.665  0.00  0.00    -0.206 NA
ATOM      8  C   UNL d   1      45.916 -16.299  44.351  0.00  0.00     0.279 C 
ATOM      9  O   UNL d   1      46.444 -16.132  44.072  0.00  0.00    -0.265 OA
BRANCH   8  10
ATOM     10  C   UNL d   1      45.801 -17.129  44.392  0.00  0.00     0.062 C 
BRANCH  10  11
ATOM     11  C   UNL d   1      46.442 -17.651  44.416  0.00  0.00     0.005 C 
BRANCH  11  12
ATOM     12  C   UNL d   1      46.351 -18.422  44.117  0.00  0.00     0.000 A 
ATOM     13  C   UNL d   1      46.206 -18.542  43.366  0.00  0.00     0.000 A 
ATOM     14  C   UNL d   1      46.122 -19.331  43.110  0.00  0.00     0.000 A 
ATOM     15  C   UNL d   1      46.193 -19.939  43.642  0.00  0.00     0.000 A 
ATOM     16  C   UNL d   1      46.338 -19.815  44.397  0.00  0.00     0.000 A 
ATOM     17  C   UNL d   1      46.423 -19.041  44.661  0.00  0.00     0.000 A 
ENDBRANCH  11  12
ENDBRANCH  10  11
ENDBRANCH   8  10
ENDBRANCH   2   7
BRANCH   1  18
ATOM     18  N   UNL d   1      44.109 -14.804  44.869  0.00  0.00    -0.112 N 
ATOM     19  O   UNL d   1      43.977 -15.606  44.942  0.00  0.00    -0.532 OA
ATOM     20  O   UNL d   1      43.445 -14.267  44.944  0.00  0.00    -0.532 OA
ENDBRANCH   1  18
BRANCH   5  21
ATOM     21  O   UNL d   1      45.895 -12.565  44.492  0.00  0.00    -0.305 OA
BRANCH  21  22
ATOM     22  C   UNL d   1      45.482 -12.096  44.002  0.00  0.00     0.123 C 
ATOM     23  C   UNL d   1      45.531 -12.208  43.156  0.00  0.00     0.029 C 
ENDBRANCH  21  22
ENDBRANCH   5  21
TORSDOF 7
ENDMDL
