MODEL 1
REMARK VINA RESULT:      19.0      0.000      0.000
REMARK  3 active torsions:
REMARK  status: ('A' for Active; 'I' for Inactive)
REMARK    1  A    between atoms: C_10  and  C_3 
REMARK    2  A    between atoms: C_13  and  C_7 
REMARK    3  A    between atoms: C_12  and  C_13 
ROOT
ATOM      1  C   UNL d   1      59.684  49.692  50.975  0.00  0.00     0.171 A 
ATOM      2  N   UNL d   1      59.633  49.692  50.153  0.00  0.00    -0.212 N 
ATOM      3  C   UNL d   1      60.488  49.692  51.180  0.00  0.00     0.121 A 
ATOM      4  N   UNL d   1      59.002  49.693  51.432  0.00  0.00    -0.227 NA
ATOM      5  N   UNL d   1      60.406  49.691  49.844  0.00  0.00    -0.162 NA
ATOM      6  C   UNL d   1      58.900  49.692  49.783  0.00  0.00     0.086 A 
ATOM      7  C   UNL d   1      58.214  49.693  50.240  0.00  0.00     0.035 A 
ATOM      8  C   UNL d   1      58.265  49.694  51.063  0.00  0.00     0.085 A 
ATOM      9  C   UNL d   1      60.933  49.691  50.485  0.00  0.00     0.130 A 
ATOM     10  C   UNL d   1      58.849  49.692  48.959  0.00  0.00     0.021 C 
ATOM     11  C   UNL d   1      57.576  49.695  51.520  0.00  0.00     0.021 C 
ENDROOT
BRANCH   3  12
ATOM     12  C   UNL d   1      60.789  49.692  51.948  0.00  0.00     0.215 C 
ATOM     13  O   UNL d   1      61.608  49.705  52.074  0.00  0.00    -0.644 OA
ATOM     14  O   UNL d   1      60.277  49.679  52.599  0.00  0.00    -0.644 OA
ENDBRANCH   3  12
BRANCH   7  15
ATOM     15  C   UNL d   1      57.477  49.694  49.871  0.00  0.00     0.003 C 
BRANCH  15  16
ATOM     16  C   UNL d   1      56.802  49.501  50.304  0.00  0.00     0.000 C 
ATOM     17  C   UNL d   1      56.054  49.636  49.981  0.00  0.00     0.000 C 
ENDBRANCH  15  16
ENDBRANCH   7  15
TORSDOF 3
ENDMDL
MODEL 2
REMARK VINA RESULT:      21.3      0.933      1.775
REMARK  3 active torsions:
REMARK  status: ('A' for Active; 'I' for Inactive)
REMARK    1  A    between atoms: C_10  and  C_3 
REMARK    2  A    between atoms: C_13  and  C_7 
REMARK    3  A    between atoms: C_12  and  C_13 
ROOT
ATOM      1  C   UNL d   1      59.120  49.685  50.582  0.00  0.00     0.171 A 
ATOM      2  N   UNL d   1      58.598  49.686  51.220  0.00  0.00    -0.212 N 
ATOM      3  C   UNL d   1      59.892  49.677  50.886  0.00  0.00     0.121 A 
ATOM      4  N   UNL d   1      58.834  49.691  49.813  0.00  0.00    -0.227 NA
ATOM      5  N   UNL d   1      59.044  49.679  51.922  0.00  0.00    -0.162 NA
ATOM      6  C   UNL d   1      57.788  49.693  51.091  0.00  0.00     0.086 A 
ATOM      7  C   UNL d   1      57.498  49.699  50.319  0.00  0.00     0.035 A 
ATOM      8  C   UNL d   1      58.020  49.698  49.682  0.00  0.00     0.085 A 
ATOM      9  C   UNL d   1      59.848  49.673  51.710  0.00  0.00     0.130 A 
ATOM     10  C   UNL d   1      57.264  49.694  51.731  0.00  0.00     0.021 C 
ATOM     11  C   UNL d   1      57.728  49.704  48.908  0.00  0.00     0.021 C 
ENDROOT
BRANCH   3  12
ATOM     12  C   UNL d   1      60.585  49.674  50.439  0.00  0.00     0.215 C 
ATOM     13  O   UNL d   1      60.547  49.706  49.612  0.00  0.00    -0.644 OA
ATOM     14  O   UNL d   1      61.324  49.638  50.811  0.00  0.00    -0.644 OA
ENDBRANCH   3  12
BRANCH   7  15
ATOM     15  C   UNL d   1      56.684  49.706  50.188  0.00  0.00     0.003 C 
BRANCH  15  16
ATOM     16  C   UNL d   1      56.363  49.241  49.588  0.00  0.00     0.000 C 
ATOM     17  C   UNL d   1      56.059  49.600  48.909  0.00  0.00     0.000 C 
ENDBRANCH  15  16
ENDBRANCH   7  15
TORSDOF 3
ENDMDL
