MODEL 1
REMARK VINA RESULT:      43.7      0.000      0.000
REMARK  6 active torsions:
REMARK  status: ('A' for Active; 'I' for Inactive)
REMARK    1  A    between atoms: C_6  and  N_1 
REMARK    2  A    between atoms: C_5  and  C_3 
REMARK    3  A    between atoms: C_9  and  C_4 
REMARK    4  A    between atoms: N_12  and  C_6 
REMARK    5  A    between atoms: O_21  and  C_8 
REMARK    6  A    between atoms: O_22  and  C_16 
ROOT
ATOM      1  N   UNL d   1      46.122 -18.320  43.684  0.00  0.00    -0.203 N 
ATOM      2  N   UNL d   1      46.140 -17.652  44.148  0.00  0.00    -0.163 NA
ATOM      3  C   UNL d   1      45.792 -18.119  42.944  0.00  0.00     0.089 A 
ATOM      4  C   UNL d   1      45.837 -17.033  43.739  0.00  0.00     0.103 A 
ATOM      5  C   UNL d   1      45.614 -17.307  42.983  0.00  0.00     0.040 A 
ENDROOT
BRANCH   3   6
ATOM      6  C   UNL d   1      45.659 -18.605  42.291  0.00  0.00     0.042 A 
ATOM      7  C   UNL d   1      44.965 -19.048  42.255  0.00  0.00     0.096 A 
ATOM      8  C   UNL d   1      44.817 -19.541  41.605  0.00  0.00     0.026 A 
ATOM      9  C   UNL d   1      45.369 -19.577  41.006  0.00  0.00     0.026 A 
ATOM     10  C   UNL d   1      46.064 -19.134  41.041  0.00  0.00     0.094 A 
ATOM     11  C   UNL d   1      46.196 -18.646  41.699  0.00  0.00     0.028 A 
BRANCH   7  12
ATOM     12  O   UNL d   1      44.389 -19.014  42.874  0.00  0.00    -0.328 OA
ATOM     13  C   UNL d   1      43.690 -19.438  42.807  0.00  0.00     0.181 C 
ENDBRANCH   7  12
BRANCH  10  14
ATOM     14  O   UNL d   1      46.645 -19.174  40.408  0.00  0.00    -0.328 OA
ATOM     15  C   UNL d   1      46.544 -19.695  39.787  0.00  0.00     0.181 C 
ENDBRANCH  10  14
ENDBRANCH   3   6
BRANCH   1  16
ATOM     16  C   UNL d   1      46.389 -19.081  43.912  0.00  0.00     0.222 C 
ATOM     17  S   UNL d   1      46.643 -19.615  43.321  0.00  0.00    -0.037 SA
BRANCH  16  18
ATOM     18  N   UNL d   1      46.401 -19.299  44.721  0.00  0.00    -0.214 NA
ATOM     19  C   UNL d   1      46.646 -20.064  44.955  0.00  0.00     0.122 C 
ENDBRANCH  16  18
ENDBRANCH   1  16
BRANCH   4  20
ATOM     20  C   UNL d   1      45.771 -16.275  44.038  0.00  0.00     0.019 A 
ATOM     21  C   UNL d   1      46.384 -15.754  43.976  0.00  0.00     0.002 A 
ATOM     22  C   UNL d   1      46.322 -14.990  44.275  0.00  0.00     0.000 A 
ATOM     23  C   UNL d   1      45.606 -14.764  44.647  0.00  0.00     0.000 A 
ATOM     24  C   UNL d   1      44.983 -15.302  44.707  0.00  0.00     0.000 A 
ATOM     25  C   UNL d   1      45.522 -14.003  44.955  0.00  0.00     0.000 C 
ATOM     26  C   UNL d   1      45.063 -16.053  44.405  0.00  0.00     0.002 A 
ENDBRANCH   4  20
TORSDOF 6
ENDMDL
