MODEL 1
REMARK VINA RESULT:      28.0      0.000      0.000
REMARK  1 active torsions:
REMARK  status: ('A' for Active; 'I' for Inactive)
REMARK    1  A    between atoms: C_14  and  C_5 
ROOT
ATOM      1  C   UNL d   1     -50.787  24.638  33.422  0.00  0.00     0.111 A 
ATOM      2  C   UNL d   1     -52.228  24.677  33.423  0.00  0.00     0.062 A 
ATOM      3  C   UNL d   1     -50.856  23.757  33.436  0.00  0.00     0.213 A 
ATOM      4  C   UNL d   1     -52.271  23.879  33.436  0.00  0.00     0.101 A 
ATOM      5  C   UNL d   1     -51.483  25.058  33.416  0.00  0.00     0.018 A 
ATOM      6  O   UNL d   1     -51.586  23.421  33.443  0.00  0.00    -0.288 OA
ATOM      7  C   UNL d   1     -52.918  25.144  33.417  0.00  0.00     0.194 A 
ATOM      8  C   UNL d   1     -50.052  25.013  33.415  0.00  0.00     0.105 C 
ATOM      9  N   UNL d   1     -49.322  25.410  33.408  0.00  0.00    -0.191 NA
ATOM     10  C   UNL d   1     -53.005  23.504  33.443  0.00  0.00     0.002 A 
ATOM     11  C   UNL d   1     -53.702  23.924  33.437  0.00  0.00     0.042 A 
ATOM     12  C   UNL d   1     -53.642  24.799  33.423  0.00  0.00     0.019 A 
ATOM     13  O   UNL d   1     -52.868  26.002  33.403  0.00  0.00    -0.287 OA
ATOM     14  N   UNL d   1     -50.168  23.245  33.444  0.00  0.00    -0.120 N 
ATOM     15  C   UNL d   1     -54.150  23.219  33.449  0.00  0.00     0.009 C 
ATOM     16  C   UNL d   1     -54.470  24.201  33.434  0.00  0.00     0.009 C 
ENDROOT
BRANCH   5  17
ATOM     17  C   UNL d   1     -51.443  25.860  33.403  0.00  0.00     0.001 A 
ATOM     18  C   UNL d   1     -50.722  26.211  33.459  0.00  0.00     0.000 A 
ATOM     19  C   UNL d   1     -50.661  27.047  33.447  0.00  0.00     0.000 A 
ATOM     20  C   UNL d   1     -51.323  27.495  33.380  0.00  0.00     0.000 A 
ATOM     21  C   UNL d   1     -52.068  27.126  33.323  0.00  0.00     0.000 A 
ATOM     22  C   UNL d   1     -52.124  26.300  33.335  0.00  0.00     0.000 A 
ENDBRANCH   5  17
TORSDOF 1
ENDMDL
MODEL 2
REMARK VINA RESULT:      28.5      1.028      2.417
REMARK  1 active torsions:
REMARK  status: ('A' for Active; 'I' for Inactive)
REMARK    1  A    between atoms: C_14  and  C_5 
ROOT
ATOM      1  C   UNL d   1     -50.883  26.082  33.325  0.00  0.00     0.111 A 
ATOM      2  C   UNL d   1     -51.624  24.846  33.322  0.00  0.00     0.062 A 
ATOM      3  C   UNL d   1     -51.663  26.498  33.326  0.00  0.00     0.213 A 
ATOM      4  C   UNL d   1     -52.321  25.238  33.323  0.00  0.00     0.101 A 
ATOM      5  C   UNL d   1     -50.903  25.269  33.323  0.00  0.00     0.018 A 
ATOM      6  O   UNL d   1     -52.339  26.063  33.325  0.00  0.00    -0.288 OA
ATOM      7  C   UNL d   1     -51.601  24.013  33.320  0.00  0.00     0.194 A 
ATOM      8  C   UNL d   1     -50.172  26.500  33.326  0.00  0.00     0.105 C 
ATOM      9  N   UNL d   1     -49.444  26.902  33.327  0.00  0.00    -0.191 NA
ATOM     10  C   UNL d   1     -53.031  24.821  33.322  0.00  0.00     0.002 A 
ATOM     11  C   UNL d   1     -53.052  24.007  33.320  0.00  0.00     0.042 A 
ATOM     12  C   UNL d   1     -52.281  23.588  33.319  0.00  0.00     0.019 A 
ATOM     13  O   UNL d   1     -50.850  23.594  33.320  0.00  0.00    -0.287 OA
ATOM     14  N   UNL d   1     -51.726  27.353  33.328  0.00  0.00    -0.120 N 
ATOM     15  C   UNL d   1     -53.886  24.009  33.319  0.00  0.00     0.009 C 
ATOM     16  C   UNL d   1     -53.230  23.211  33.318  0.00  0.00     0.009 C 
ENDROOT
BRANCH   5  17
ATOM     17  C   UNL d   1     -50.205  24.872  33.323  0.00  0.00     0.001 A 
ATOM     18  C   UNL d   1     -50.218  24.069  33.309  0.00  0.00     0.000 A 
ATOM     19  C   UNL d   1     -49.498  23.638  33.308  0.00  0.00     0.000 A 
ATOM     20  C   UNL d   1     -48.798  24.030  33.321  0.00  0.00     0.000 A 
ATOM     21  C   UNL d   1     -48.790  24.863  33.335  0.00  0.00     0.000 A 
ATOM     22  C   UNL d   1     -49.503  25.285  33.336  0.00  0.00     0.000 A 
ENDBRANCH   5  17
TORSDOF 1
ENDMDL
