MODEL 1
REMARK VINA RESULT:      -2.7      0.000      0.000
REMARK  6 active torsions:
REMARK  status: ('A' for Active; 'I' for Inactive)
REMARK    1  A    between atoms: N_2  and  S_1 
REMARK    2  A    between atoms: C_3  and  S_1 
REMARK    3  A    between atoms: C_9  and  N_2 
REMARK    4  A    between atoms: C_13  and  C_9 
REMARK    5  A    between atoms: O_14  and  C_10 
REMARK    6  A    between atoms: C_17  and  O_14 
ROOT
ATOM      1  S   UNL d   1      33.233  19.789 -22.401  0.00  0.00     0.285 S 
ATOM      2  O   UNL d   1      33.233  19.327 -21.719  0.00  0.00    -0.198 OA
ATOM      3  O   UNL d   1      33.233  20.250 -23.085  0.00  0.00    -0.198 OA
ENDROOT
BRANCH   1   4
ATOM      4  N   UNL d   1      33.239  19.105 -22.864  0.00  0.00    -0.157 NA
BRANCH   4   5
ATOM      5  C   UNL d   1      32.586  18.597 -22.863  0.00  0.00     0.112 C 
BRANCH   5   6
ATOM      6  C   UNL d   1      32.564  17.953 -23.376  0.00  0.00     0.023 A 
ATOM      7  C   UNL d   1      31.997  17.922 -23.985  0.00  0.00     0.022 A 
ATOM      8  C   UNL d   1      31.975  17.278 -24.499  0.00  0.00     0.099 A 
ATOM      9  N   UNL d   1      32.510  16.665 -24.411  0.00  0.00    -0.242 NA
ATOM     10  C   UNL d   1      33.074  16.691 -23.809  0.00  0.00     0.099 A 
ATOM     11  C   UNL d   1      33.099  17.340 -23.289  0.00  0.00     0.022 A 
ENDBRANCH   5   6
ENDBRANCH   4   5
ENDBRANCH   1   4
BRANCH   1  12
ATOM     12  C   UNL d   1      33.227  20.472 -21.940  0.00  0.00     0.105 A 
ATOM     13  C   UNL d   1      33.231  20.413 -21.117  0.00  0.00     0.015 A 
ATOM     14  C   UNL d   1      33.225  21.097 -20.655  0.00  0.00     0.025 A 
ATOM     15  C   UNL d   1      33.214  21.840 -21.017  0.00  0.00     0.100 A 
ATOM     16  C   UNL d   1      33.210  21.899 -21.840  0.00  0.00     0.025 A 
ATOM     17  C   UNL d   1      33.216  21.216 -22.301  0.00  0.00     0.015 A 
BRANCH  15  18
ATOM     18  O   UNL d   1      33.208  22.524 -20.555  0.00  0.00    -0.305 OA
BRANCH  18  19
ATOM     19  C   UNL d   1      32.521  22.977 -20.501  0.00  0.00     0.123 C 
ATOM     20  C   UNL d   1      32.506  23.652 -20.021  0.00  0.00     0.029 C 
ENDBRANCH  18  19
ENDBRANCH  15  18
ENDBRANCH   1  12
TORSDOF 6
ENDMDL
MODEL 2
REMARK VINA RESULT:      -0.3      3.357      4.627
REMARK  6 active torsions:
REMARK  status: ('A' for Active; 'I' for Inactive)
REMARK    1  A    between atoms: N_2  and  S_1 
REMARK    2  A    between atoms: C_3  and  S_1 
REMARK    3  A    between atoms: C_9  and  N_2 
REMARK    4  A    between atoms: C_13  and  C_9 
REMARK    5  A    between atoms: O_14  and  C_10 
REMARK    6  A    between atoms: C_17  and  O_14 
ROOT
ATOM      1  S   UNL d   1      33.110  22.882 -19.728  0.00  0.00     0.285 S 
ATOM      2  O   UNL d   1      33.091  23.702 -19.806  0.00  0.00    -0.198 OA
ATOM      3  O   UNL d   1      33.129  22.061 -19.651  0.00  0.00    -0.198 OA
ENDROOT
BRANCH   1   4
ATOM      4  N   UNL d   1      33.237  22.808 -20.540  0.00  0.00    -0.157 NA
BRANCH   4   5
ATOM      5  C   UNL d   1      32.596  22.701 -21.052  0.00  0.00     0.112 C 
BRANCH   5   6
ATOM      6  C   UNL d   1      32.722  22.644 -21.865  0.00  0.00     0.023 A 
ATOM      7  C   UNL d   1      32.520  23.278 -22.365  0.00  0.00     0.022 A 
ATOM      8  C   UNL d   1      32.646  23.222 -23.178  0.00  0.00     0.099 A 
ATOM      9  N   UNL d   1      32.971  22.541 -23.496  0.00  0.00    -0.242 NA
ATOM     10  C   UNL d   1      33.173  21.910 -23.004  0.00  0.00     0.099 A 
ATOM     11  C   UNL d   1      33.047  21.964 -22.183  0.00  0.00     0.022 A 
ENDBRANCH   5   6
ENDBRANCH   4   5
ENDBRANCH   1   4
BRANCH   1  12
ATOM     12  C   UNL d   1      32.984  22.956 -18.916  0.00  0.00     0.105 A 
ATOM     13  C   UNL d   1      33.241  22.362 -18.404  0.00  0.00     0.015 A 
ATOM     14  C   UNL d   1      33.114  22.436 -17.593  0.00  0.00     0.025 A 
ATOM     15  C   UNL d   1      32.730  23.104 -17.292  0.00  0.00     0.100 A 
ATOM     16  C   UNL d   1      32.473  23.697 -17.804  0.00  0.00     0.025 A 
ATOM     17  C   UNL d   1      32.599  23.624 -18.616  0.00  0.00     0.015 A 
BRANCH  15  18
ATOM     18  O   UNL d   1      32.603  23.177 -16.481  0.00  0.00    -0.305 OA
BRANCH  18  19
ATOM     19  C   UNL d   1      32.639  22.510 -15.997  0.00  0.00     0.123 C 
ATOM     20  C   UNL d   1      33.127  22.508 -15.328  0.00  0.00     0.029 C 
ENDBRANCH  18  19
ENDBRANCH  15  18
ENDBRANCH   1  12
TORSDOF 6
ENDMDL
