MODEL 1
REMARK VINA RESULT:      -3.5      0.000      0.000
REMARK  2 active torsions:
REMARK  status: ('A' for Active; 'I' for Inactive)
REMARK    1  A    between atoms: C_4  and  C_1 
REMARK       I    between atoms: N_7  and  C_4 
REMARK    2  A    between atoms: C_17  and  N_8 
ROOT
ATOM      1  C   UNL d   1      32.614  17.309 -23.578  0.00  0.00     0.248 C 
ATOM      2  N   UNL d   1      31.821  16.999 -23.705  0.00  0.00    -0.272 N 
ATOM      3  N   UNL d   1      30.241  16.378 -23.958  0.00  0.00    -0.301 N 
ATOM      4  O   UNL d   1      33.204  16.820 -23.306  0.00  0.00    -0.271 OA
ATOM      5  C   UNL d   1      31.651  16.170 -23.544  0.00  0.00     0.102 A 
ATOM      6  C   UNL d   1      31.214  17.529 -23.992  0.00  0.00     0.102 A 
ATOM      7  C   UNL d   1      30.872  15.861 -23.668  0.00  0.00     0.100 A 
ATOM      8  C   UNL d   1      30.411  17.208 -24.119  0.00  0.00     0.100 A 
ENDROOT
BRANCH   1   9
ATOM      9  C   UNL d   1      32.777  18.088 -23.729  0.00  0.00     0.112 A 
ATOM     10  C   UNL d   1      33.095  19.539 -23.410  0.00  0.00     0.025 A 
ATOM     11  C   UNL d   1      32.943  18.872 -23.872  0.00  0.00     0.074 A 
ATOM     12  C   UNL d   1      33.241  20.254 -23.764  0.00  0.00     0.002 C 
ATOM     13  C   UNL d   1      33.144  19.686 -22.616  0.00  0.00     0.002 C 
ATOM     14  C   UNL d   1      33.090  19.597 -24.219  0.00  0.00     0.012 C 
ATOM     15  C   UNL d   1      32.894  18.724 -24.670  0.00  0.00    -0.023 A 
ATOM     16  C   UNL d   1      32.903  18.611 -23.106  0.00  0.00     0.172 A 
ATOM     17  C   UNL d   1      32.730  17.944 -24.525  0.00  0.00    -0.018 A 
ATOM     18  C   UNL d   1      32.738  17.827 -22.960  0.00  0.00     0.024 A 
ATOM     19  O   UNL d   1      32.991  18.950 -22.376  0.00  0.00    -0.291 OA
ENDBRANCH   1   9
BRANCH   3  20
ATOM     20  C   UNL d   1      29.444  16.069 -24.086  0.00  0.00     0.064 A 
ATOM     21  C   UNL d   1      28.916  15.962 -23.420  0.00  0.00     0.018 A 
ATOM     22  C   UNL d   1      28.124  15.655 -23.546  0.00  0.00     0.002 A 
ATOM     23  C   UNL d   1      27.859  15.453 -24.345  0.00  0.00     0.000 A 
ATOM     24  C   UNL d   1      28.395  15.562 -25.014  0.00  0.00     0.002 A 
ATOM     25  C   UNL d   1      29.187  15.870 -24.884  0.00  0.00     0.018 A 
ENDBRANCH   3  20
TORSDOF 2
ENDMDL
MODEL 2
REMARK VINA RESULT:      -3.1      1.564      4.719
REMARK  2 active torsions:
REMARK  status: ('A' for Active; 'I' for Inactive)
REMARK    1  A    between atoms: C_4  and  C_1 
REMARK       I    between atoms: N_7  and  C_4 
REMARK    2  A    between atoms: C_17  and  N_8 
ROOT
ATOM      1  C   UNL d   1      32.681  17.955 -24.194  0.00  0.00     0.248 C 
ATOM      2  N   UNL d   1      32.767  18.614 -23.647  0.00  0.00    -0.272 N 
ATOM      3  N   UNL d   1      32.940  19.929 -22.558  0.00  0.00    -0.301 N 
ATOM      4  O   UNL d   1      32.955  18.020 -24.957  0.00  0.00    -0.271 OA
ATOM      5  C   UNL d   1      33.144  19.344 -23.907  0.00  0.00     0.102 A 
ATOM      6  C   UNL d   1      32.472  18.525 -22.849  0.00  0.00     0.102 A 
ATOM      7  C   UNL d   1      33.230  19.994 -23.371  0.00  0.00     0.100 A 
ATOM      8  C   UNL d   1      32.563  19.198 -22.298  0.00  0.00     0.100 A 
ENDROOT
BRANCH   1   9
ATOM      9  C   UNL d   1      32.328  17.267 -23.954  0.00  0.00     0.112 A 
ATOM     10  C   UNL d   1      31.240  16.211 -23.860  0.00  0.00     0.025 A 
ATOM     11  C   UNL d   1      31.965  16.577 -23.718  0.00  0.00     0.074 A 
ATOM     12  C   UNL d   1      31.070  15.498 -23.512  0.00  0.00     0.002 C 
ATOM     13  C   UNL d   1      30.584  16.390 -24.298  0.00  0.00     0.002 C 
ATOM     14  C   UNL d   1      31.785  15.859 -23.372  0.00  0.00     0.012 C 
ATOM     15  C   UNL d   1      32.625  16.397 -23.276  0.00  0.00    -0.023 A 
ATOM     16  C   UNL d   1      31.572  17.077 -24.219  0.00  0.00     0.172 A 
ATOM     17  C   UNL d   1      32.983  17.084 -23.514  0.00  0.00    -0.018 A 
ATOM     18  C   UNL d   1      31.931  17.767 -24.458  0.00  0.00     0.024 A 
ATOM     19  O   UNL d   1      30.848  17.077 -24.583  0.00  0.00    -0.291 OA
ENDBRANCH   1   9
BRANCH   3  20
ATOM     20  C   UNL d   1      33.025  20.589 -22.007  0.00  0.00     0.064 A 
ATOM     21  C   UNL d   1      32.979  21.394 -22.296  0.00  0.00     0.018 A 
ATOM     22  C   UNL d   1      33.064  22.051 -21.749  0.00  0.00     0.002 A 
ATOM     23  C   UNL d   1      33.195  21.901 -20.907  0.00  0.00     0.000 A 
ATOM     24  C   UNL d   1      33.241  21.087 -20.620  0.00  0.00     0.002 A 
ATOM     25  C   UNL d   1      33.156  20.432 -21.170  0.00  0.00     0.018 A 
ENDBRANCH   3  20
TORSDOF 2
ENDMDL
MODEL 3
REMARK VINA RESULT:      -2.3      2.636      4.069
REMARK  2 active torsions:
REMARK  status: ('A' for Active; 'I' for Inactive)
REMARK    1  A    between atoms: C_4  and  C_1 
REMARK       I    between atoms: N_7  and  C_4 
REMARK    2  A    between atoms: C_17  and  N_8 
ROOT
ATOM      1  C   UNL d   1      32.975  20.656 -21.319  0.00  0.00     0.248 C 
ATOM      2  N   UNL d   1      32.908  20.046 -21.923  0.00  0.00    -0.272 N 
ATOM      3  N   UNL d   1      32.775  18.829 -23.124  0.00  0.00    -0.301 N 
ATOM      4  O   UNL d   1      33.240  20.465 -20.574  0.00  0.00    -0.271 OA
ATOM      5  C   UNL d   1      33.122  19.232 -21.739  0.00  0.00     0.102 A 
ATOM      6  C   UNL d   1      32.627  20.267 -22.699  0.00  0.00     0.102 A 
ATOM      7  C   UNL d   1      33.057  18.630 -22.330  0.00  0.00     0.100 A 
ATOM      8  C   UNL d   1      32.561  19.643 -23.308  0.00  0.00     0.100 A 
ENDROOT
BRANCH   1   9
ATOM      9  C   UNL d   1      32.775  21.423 -21.488  0.00  0.00     0.112 A 
ATOM     10  C   UNL d   1      32.089  22.765 -21.297  0.00  0.00     0.025 A 
ATOM     11  C   UNL d   1      32.568  22.193 -21.650  0.00  0.00     0.074 A 
ATOM     12  C   UNL d   1      32.018  23.500 -21.634  0.00  0.00     0.002 C 
ATOM     13  C   UNL d   1      31.623  22.793 -20.637  0.00  0.00     0.002 C 
ATOM     14  C   UNL d   1      32.490  22.936 -21.981  0.00  0.00     0.012 C 
ATOM     15  C   UNL d   1      33.038  22.165 -22.314  0.00  0.00    -0.023 A 
ATOM     16  C   UNL d   1      32.263  21.834 -20.992  0.00  0.00     0.172 A 
ATOM     17  C   UNL d   1      33.241  21.399 -22.150  0.00  0.00    -0.018 A 
ATOM     18  C   UNL d   1      32.467  21.064 -20.826  0.00  0.00     0.024 A 
ATOM     19  O   UNL d   1      31.761  22.054 -20.395  0.00  0.00    -0.291 OA
ENDBRANCH   1   9
BRANCH   3  20
ATOM     20  C   UNL d   1      32.707  18.218 -23.732  0.00  0.00     0.064 A 
ATOM     21  C   UNL d   1      33.003  17.429 -23.579  0.00  0.00     0.018 A 
ATOM     22  C   UNL d   1      32.936  16.821 -24.181  0.00  0.00     0.002 A 
ATOM     23  C   UNL d   1      32.569  17.005 -24.944  0.00  0.00     0.000 A 
ATOM     24  C   UNL d   1      32.271  17.802 -25.094  0.00  0.00     0.002 A 
ATOM     25  C   UNL d   1      32.340  18.408 -24.488  0.00  0.00     0.018 A 
ENDBRANCH   3  20
TORSDOF 2
ENDMDL
MODEL 4
REMARK VINA RESULT:      -1.9      1.316      4.631
REMARK  2 active torsions:
REMARK  status: ('A' for Active; 'I' for Inactive)
REMARK    1  A    between atoms: C_4  and  C_1 
REMARK       I    between atoms: N_7  and  C_4 
REMARK    2  A    between atoms: C_17  and  N_8 
ROOT
ATOM      1  C   UNL d   1      31.035  16.035 -24.457  0.00  0.00     0.248 C 
ATOM      2  N   UNL d   1      31.403  16.810 -24.392  0.00  0.00    -0.272 N 
ATOM      3  N   UNL d   1      32.140  18.355 -24.264  0.00  0.00    -0.301 N 
ATOM      4  O   UNL d   1      31.387  15.453 -24.903  0.00  0.00    -0.271 OA
ATOM      5  C   UNL d   1      32.146  16.970 -24.799  0.00  0.00     0.102 A 
ATOM      6  C   UNL d   1      31.018  17.409 -23.919  0.00  0.00     0.102 A 
ATOM      7  C   UNL d   1      32.511  17.732 -24.737  0.00  0.00     0.100 A 
ATOM      8  C   UNL d   1      31.397  18.194 -23.857  0.00  0.00     0.100 A 
ENDROOT
BRANCH   1   9
ATOM      9  C   UNL d   1      30.337  15.880 -24.076  0.00  0.00     0.112 A 
ATOM     10  C   UNL d   1      28.848  15.617 -23.935  0.00  0.00     0.025 A 
ATOM     11  C   UNL d   1      29.632  15.725 -23.701  0.00  0.00     0.074 A 
ATOM     12  C   UNL d   1      28.275  15.466 -23.380  0.00  0.00     0.002 C 
ATOM     13  C   UNL d   1      28.456  15.622 -24.643  0.00  0.00     0.002 C 
ATOM     14  C   UNL d   1      29.048  15.572 -23.150  0.00  0.00     0.012 C 
ATOM     15  C   UNL d   1      30.026  15.720 -22.989  0.00  0.00    -0.023 A 
ATOM     16  C   UNL d   1      29.640  15.806 -24.507  0.00  0.00     0.172 A 
ATOM     17  C   UNL d   1      30.726  15.874 -23.366  0.00  0.00    -0.018 A 
ATOM     18  C   UNL d   1      30.343  15.962 -24.885  0.00  0.00     0.024 A 
ATOM     19  O   UNL d   1      29.084  15.772 -25.095  0.00  0.00    -0.291 OA
ENDBRANCH   1   9
BRANCH   3  20
ATOM     20  C   UNL d   1      32.508  19.133 -24.197  0.00  0.00     0.064 A 
ATOM     21  C   UNL d   1      32.835  19.388 -23.448  0.00  0.00     0.018 A 
ATOM     22  C   UNL d   1      33.202  20.161 -23.380  0.00  0.00     0.002 A 
ATOM     23  C   UNL d   1      33.241  20.685 -24.069  0.00  0.00     0.000 A 
ATOM     24  C   UNL d   1      32.909  20.424 -24.823  0.00  0.00     0.002 A 
ATOM     25  C   UNL d   1      32.543  19.649 -24.887  0.00  0.00     0.018 A 
ENDBRANCH   3  20
TORSDOF 2
ENDMDL
MODEL 5
REMARK VINA RESULT:      -1.0      3.087      5.034
REMARK  2 active torsions:
REMARK  status: ('A' for Active; 'I' for Inactive)
REMARK    1  A    between atoms: C_4  and  C_1 
REMARK       I    between atoms: N_7  and  C_4 
REMARK    2  A    between atoms: C_17  and  N_8 
ROOT
ATOM      1  C   UNL d   1      33.012  22.142 -21.970  0.00  0.00     0.248 C 
ATOM      2  N   UNL d   1      33.017  21.338 -22.277  0.00  0.00    -0.272 N 
ATOM      3  N   UNL d   1      33.029  19.737 -22.894  0.00  0.00    -0.301 N 
ATOM      4  O   UNL d   1      33.202  22.766 -22.456  0.00  0.00    -0.271 OA
ATOM      5  C   UNL d   1      33.224  21.193 -23.101  0.00  0.00     0.102 A 
ATOM      6  C   UNL d   1      32.814  20.696 -21.751  0.00  0.00     0.102 A 
ATOM      7  C   UNL d   1      33.230  20.403 -23.407  0.00  0.00     0.100 A 
ATOM      8  C   UNL d   1      32.822  19.882 -22.070  0.00  0.00     0.100 A 
ENDROOT
BRANCH   1   9
ATOM      9  C   UNL d   1      32.818  22.283 -21.196  0.00  0.00     0.112 A 
ATOM     10  C   UNL d   1      32.175  23.002 -20.022  0.00  0.00     0.025 A 
ATOM     11  C   UNL d   1      32.619  22.431 -20.421  0.00  0.00     0.074 A 
ATOM     12  C   UNL d   1      32.099  22.966 -19.215  0.00  0.00     0.002 C 
ATOM     13  C   UNL d   1      31.752  23.655 -20.243  0.00  0.00     0.002 C 
ATOM     14  C   UNL d   1      32.536  22.404 -19.609  0.00  0.00     0.012 C 
ATOM     15  C   UNL d   1      33.044  21.774 -20.199  0.00  0.00    -0.023 A 
ATOM     16  C   UNL d   1      32.348  22.929 -20.999  0.00  0.00     0.172 A 
ATOM     17  C   UNL d   1      33.241  21.629 -20.971  0.00  0.00    -0.018 A 
ATOM     18  C   UNL d   1      32.545  22.783 -21.776  0.00  0.00     0.024 A 
ATOM     19  O   UNL d   1      31.889  23.596 -21.018  0.00  0.00    -0.291 OA
ENDBRANCH   1   9
BRANCH   3  20
ATOM     20  C   UNL d   1      33.033  18.929 -23.201  0.00  0.00     0.064 A 
ATOM     21  C   UNL d   1      32.838  18.275 -22.684  0.00  0.00     0.018 A 
ATOM     22  C   UNL d   1      32.842  17.472 -22.987  0.00  0.00     0.002 A 
ATOM     23  C   UNL d   1      33.044  17.322 -23.816  0.00  0.00     0.000 A 
ATOM     24  C   UNL d   1      33.241  17.985 -24.334  0.00  0.00     0.002 A 
ATOM     25  C   UNL d   1      33.236  18.788 -24.027  0.00  0.00     0.018 A 
ENDBRANCH   3  20
TORSDOF 2
ENDMDL
