MODEL 1
REMARK VINA RESULT:       0.6      0.000      0.000
REMARK  7 active torsions:
REMARK  status: ('A' for Active; 'I' for Inactive)
REMARK    1  A    between atoms: C_7  and  C_1 
REMARK    2  A    between atoms: S_8  and  C_3 
REMARK       I    between atoms: C_6  and  N_13 
REMARK    3  A    between atoms: C_10  and  C_6 
REMARK    4  A    between atoms: C_20  and  S_8 
REMARK    5  A    between atoms: N_13  and  C_21 
REMARK    6  A    between atoms: O_19  and  C_14 
REMARK    7  A    between atoms: C_21  and  C_20 
ROOT
ATOM      1  C   UNL d   1      32.842  21.902 -22.039  0.00  0.00     0.087 A 
ATOM      2  N   UNL d   1      32.802  22.595 -22.478  0.00  0.00    -0.245 NA
ATOM      3  C   UNL d   1      32.999  21.278 -22.554  0.00  0.00     0.049 A 
ATOM      4  C   UNL d   1      33.058  21.580 -23.315  0.00  0.00     0.025 A 
ATOM      5  C   UNL d   1      32.936  22.399 -23.270  0.00  0.00     0.082 A 
ATOM      6  C   UNL d   1      33.204  21.226 -24.040  0.00  0.00     0.002 A 
ATOM      7  C   UNL d   1      32.962  22.860 -23.955  0.00  0.00     0.019 A 
ATOM      8  C   UNL d   1      33.231  21.687 -24.724  0.00  0.00     0.000 A 
ATOM      9  C   UNL d   1      33.110  22.498 -24.679  0.00  0.00     0.002 A 
ENDROOT
BRANCH   3  10
ATOM     10  S   UNL d   1      33.083  20.483 -22.345  0.00  0.00    -0.083 SA
BRANCH  10  11
ATOM     11  C   UNL d   1      33.240  19.918 -22.937  0.00  0.00     0.056 C 
BRANCH  11  12
ATOM     12  C   UNL d   1      32.813  19.210 -22.946  0.00  0.00     0.109 C 
BRANCH  12  13
ATOM     13  N   UNL d   1      33.087  18.575 -22.514  0.00  0.00    -0.206 NA
ATOM     14  C   UNL d   1      32.889  17.811 -22.744  0.00  0.00     0.279 C 
ATOM     15  O   UNL d   1      33.169  17.160 -22.301  0.00  0.00    -0.265 OA
BRANCH  14  16
ATOM     16  C   UNL d   1      32.415  17.686 -23.410  0.00  0.00     0.058 A 
ATOM     17  C   UNL d   1      31.612  17.487 -23.315  0.00  0.00     0.005 A 
ATOM     18  C   UNL d   1      31.138  17.362 -23.981  0.00  0.00     0.000 A 
ATOM     19  C   UNL d   1      31.465  17.434 -24.739  0.00  0.00     0.000 A 
ATOM     20  C   UNL d   1      32.259  17.630 -24.833  0.00  0.00     0.000 A 
ATOM     21  C   UNL d   1      32.732  17.755 -24.168  0.00  0.00     0.005 A 
ENDBRANCH  14  16
ENDBRANCH  12  13
ENDBRANCH  11  12
ENDBRANCH  10  11
ENDBRANCH   3  10
BRANCH   1  22
ATOM     22  C   UNL d   1      32.736  21.881 -21.226  0.00  0.00     0.018 A 
ATOM     23  C   UNL d   1      33.235  22.317 -20.731  0.00  0.00     0.004 A 
ATOM     24  C   UNL d   1      33.133  22.298 -19.917  0.00  0.00     0.024 A 
ATOM     25  C   UNL d   1      32.530  21.842 -19.593  0.00  0.00     0.094 A 
ATOM     26  C   UNL d   1      32.026  21.402 -20.087  0.00  0.00     0.024 A 
ATOM     27  C   UNL d   1      32.128  21.421 -20.900  0.00  0.00     0.004 A 
BRANCH  25  28
ATOM     28  O   UNL d   1      32.425  21.823 -18.764  0.00  0.00    -0.328 OA
ATOM     29  C   UNL d   1      31.973  22.409 -18.389  0.00  0.00     0.181 C 
ENDBRANCH  25  28
ENDBRANCH   1  22
TORSDOF 7
ENDMDL
MODEL 2
REMARK VINA RESULT:       1.1      2.258      5.415
REMARK  7 active torsions:
REMARK  status: ('A' for Active; 'I' for Inactive)
REMARK    1  A    between atoms: C_7  and  C_1 
REMARK    2  A    between atoms: S_8  and  C_3 
REMARK       I    between atoms: C_6  and  N_13 
REMARK    3  A    between atoms: C_10  and  C_6 
REMARK    4  A    between atoms: C_20  and  S_8 
REMARK    5  A    between atoms: N_13  and  C_21 
REMARK    6  A    between atoms: O_19  and  C_14 
REMARK    7  A    between atoms: C_21  and  C_20 
ROOT
ATOM      1  C   UNL d   1      30.682  16.911 -24.242  0.00  0.00     0.087 A 
ATOM      2  N   UNL d   1      30.800  16.165 -24.565  0.00  0.00    -0.245 NA
ATOM      3  C   UNL d   1      31.413  17.285 -24.184  0.00  0.00     0.049 A 
ATOM      4  C   UNL d   1      31.988  16.775 -24.470  0.00  0.00     0.025 A 
ATOM      5  C   UNL d   1      31.609  16.077 -24.708  0.00  0.00     0.082 A 
ATOM      6  C   UNL d   1      32.801  16.846 -24.547  0.00  0.00     0.002 A 
ATOM      7  C   UNL d   1      32.048  15.453 -25.022  0.00  0.00     0.019 A 
ATOM      8  C   UNL d   1      33.241  16.222 -24.862  0.00  0.00     0.000 A 
ATOM      9  C   UNL d   1      32.864  15.532 -25.097  0.00  0.00     0.002 A 
ENDROOT
BRANCH   3  10
ATOM     10  S   UNL d   1      31.550  18.045 -23.889  0.00  0.00    -0.083 SA
BRANCH  10  11
ATOM     11  C   UNL d   1      32.197  18.486 -24.174  0.00  0.00     0.056 C 
BRANCH  11  12
ATOM     12  C   UNL d   1      32.495  19.110 -23.721  0.00  0.00     0.109 C 
BRANCH  12  13
ATOM     13  N   UNL d   1      32.755  19.785 -24.096  0.00  0.00    -0.206 NA
ATOM     14  C   UNL d   1      32.970  20.442 -23.650  0.00  0.00     0.279 C 
ATOM     15  O   UNL d   1      33.237  21.133 -24.035  0.00  0.00    -0.265 OA
BRANCH  14  16
ATOM     16  C   UNL d   1      32.923  20.418 -22.825  0.00  0.00     0.058 A 
ATOM     17  C   UNL d   1      32.554  21.042 -22.414  0.00  0.00     0.005 A 
ATOM     18  C   UNL d   1      32.507  21.018 -21.588  0.00  0.00     0.000 A 
ATOM     19  C   UNL d   1      32.827  20.375 -21.175  0.00  0.00     0.000 A 
ATOM     20  C   UNL d   1      33.191  19.759 -21.581  0.00  0.00     0.000 A 
ATOM     21  C   UNL d   1      33.238  19.782 -22.406  0.00  0.00     0.005 A 
ENDBRANCH  14  16
ENDBRANCH  12  13
ENDBRANCH  11  12
ENDBRANCH  10  11
ENDBRANCH   3  10
BRANCH   1  22
ATOM     22  C   UNL d   1      29.943  17.195 -24.029  0.00  0.00     0.018 A 
ATOM     23  C   UNL d   1      29.653  17.066 -23.264  0.00  0.00     0.004 A 
ATOM     24  C   UNL d   1      28.914  17.348 -23.047  0.00  0.00     0.024 A 
ATOM     25  C   UNL d   1      28.459  17.762 -23.593  0.00  0.00     0.094 A 
ATOM     26  C   UNL d   1      28.746  17.894 -24.362  0.00  0.00     0.024 A 
ATOM     27  C   UNL d   1      29.485  17.612 -24.580  0.00  0.00     0.004 A 
BRANCH  25  28
ATOM     28  O   UNL d   1      27.707  18.049 -23.372  0.00  0.00    -0.328 OA
ATOM     29  C   UNL d   1      27.264  17.652 -22.793  0.00  0.00     0.181 C 
ENDBRANCH  25  28
ENDBRANCH   1  22
TORSDOF 7
ENDMDL
MODEL 3
REMARK VINA RESULT:       1.4      1.131      4.639
REMARK  7 active torsions:
REMARK  status: ('A' for Active; 'I' for Inactive)
REMARK    1  A    between atoms: C_7  and  C_1 
REMARK    2  A    between atoms: S_8  and  C_3 
REMARK       I    between atoms: C_6  and  N_13 
REMARK    3  A    between atoms: C_10  and  C_6 
REMARK    4  A    between atoms: C_20  and  S_8 
REMARK    5  A    between atoms: N_13  and  C_21 
REMARK    6  A    between atoms: O_19  and  C_14 
REMARK    7  A    between atoms: C_21  and  C_20 
ROOT
ATOM      1  C   UNL d   1      32.759  19.698 -24.020  0.00  0.00     0.087 A 
ATOM      2  N   UNL d   1      32.790  20.088 -24.742  0.00  0.00    -0.245 NA
ATOM      3  C   UNL d   1      32.889  20.251 -23.423  0.00  0.00     0.049 A 
ATOM      4  C   UNL d   1      33.002  20.985 -23.770  0.00  0.00     0.025 A 
ATOM      5  C   UNL d   1      32.941  20.886 -24.592  0.00  0.00     0.082 A 
ATOM      6  C   UNL d   1      33.151  21.728 -23.457  0.00  0.00     0.002 A 
ATOM      7  C   UNL d   1      33.030  21.535 -25.095  0.00  0.00     0.019 A 
ATOM      8  C   UNL d   1      33.240  22.376 -23.960  0.00  0.00     0.000 A 
ATOM      9  C   UNL d   1      33.180  22.277 -24.773  0.00  0.00     0.002 A 
ENDROOT
BRANCH   3  10
ATOM     10  S   UNL d   1      32.904  20.096 -22.611  0.00  0.00    -0.083 SA
BRANCH  10  11
ATOM     11  C   UNL d   1      33.239  20.657 -22.093  0.00  0.00     0.056 C 
BRANCH  11  12
ATOM     12  C   UNL d   1      32.844  20.851 -21.393  0.00  0.00     0.109 C 
BRANCH  12  13
ATOM     13  N   UNL d   1      32.959  20.391 -20.730  0.00  0.00    -0.206 NA
ATOM     14  C   UNL d   1      32.860  20.721 -19.984  0.00  0.00     0.279 C 
ATOM     15  O   UNL d   1      32.978  20.250 -19.305  0.00  0.00    -0.265 OA
BRANCH  14  16
ATOM     16  C   UNL d   1      32.644  21.516 -19.905  0.00  0.00     0.058 A 
ATOM     17  C   UNL d   1      33.205  22.073 -19.644  0.00  0.00     0.005 A 
ATOM     18  C   UNL d   1      32.989  22.867 -19.565  0.00  0.00     0.000 A 
ATOM     19  C   UNL d   1      32.216  23.105 -19.746  0.00  0.00     0.000 A 
ATOM     20  C   UNL d   1      31.661  22.554 -20.004  0.00  0.00     0.000 A 
ATOM     21  C   UNL d   1      31.877  21.760 -20.083  0.00  0.00     0.005 A 
ENDBRANCH  14  16
ENDBRANCH  12  13
ENDBRANCH  11  12
ENDBRANCH  10  11
ENDBRANCH   3  10
BRANCH   1  22
ATOM     22  C   UNL d   1      32.618  18.893 -23.951  0.00  0.00     0.018 A 
ATOM     23  C   UNL d   1      31.895  18.575 -24.196  0.00  0.00     0.004 A 
ATOM     24  C   UNL d   1      31.751  17.770 -24.129  0.00  0.00     0.024 A 
ATOM     25  C   UNL d   1      32.330  17.277 -23.816  0.00  0.00     0.094 A 
ATOM     26  C   UNL d   1      33.059  17.593 -23.568  0.00  0.00     0.024 A 
ATOM     27  C   UNL d   1      33.203  18.397 -23.636  0.00  0.00     0.004 A 
BRANCH  25  28
ATOM     28  O   UNL d   1      32.184  16.458 -23.747  0.00  0.00    -0.328 OA
ATOM     29  C   UNL d   1      31.412  16.183 -23.618  0.00  0.00     0.181 C 
ENDBRANCH  25  28
ENDBRANCH   1  22
TORSDOF 7
ENDMDL
