MODEL 1
REMARK VINA RESULT:      -5.5      0.000      0.000
REMARK  4 active torsions:
REMARK  status: ('A' for Active; 'I' for Inactive)
REMARK    1  A    between atoms: N_7  and  C_2 
REMARK    2  A    between atoms: C_6  and  C_3 
REMARK    3  A    between atoms: C_16  and  N_7 
REMARK    4  A    between atoms: C_10  and  C_16 
ROOT
ATOM      1  N   UNL d   1     -41.717-122.323 -52.316  0.00  0.00    -0.222 NA
ATOM      2  C   UNL d   1     -41.461-122.751 -51.661  0.00  0.00     0.172 A 
ATOM      3  C   UNL d   1     -41.533-122.765 -52.998  0.00  0.00     0.090 A 
ATOM      4  S   UNL d   1     -41.125-123.444 -51.928  0.00  0.00    -0.048 SA
ATOM      5  C   UNL d   1     -41.169-123.453 -52.745  0.00  0.00     0.057 A 
ENDROOT
BRANCH   3   6
ATOM      6  C   UNL d   1     -41.707-122.514 -53.778  0.00  0.00     0.018 A 
ATOM      7  C   UNL d   1     -42.250-121.911 -53.893  0.00  0.00     0.002 A 
ATOM      8  C   UNL d   1     -42.423-121.660 -54.673  0.00  0.00     0.011 A 
ATOM      9  C   UNL d   1     -42.044-122.026 -55.294  0.00  0.00     0.058 A 
ATOM     10  C   UNL d   1     -41.497-122.633 -55.179  0.00  0.00     0.011 A 
ATOM     11 CL   UNL d   1     -42.214-121.780 -56.056  0.00  0.00    -0.082 Cl
ATOM     12  C   UNL d   1     -41.326-122.881 -54.411  0.00  0.00     0.002 A 
ENDBRANCH   3   6
BRANCH   2  13
ATOM     13  N   UNL d   1     -41.522-122.538 -50.873  0.00  0.00    -0.332 N 
ATOM     14  H   UNL d   1     -41.020-121.951 -50.564  0.00  0.00     0.168 HD
BRANCH  13  15
ATOM     15  C   UNL d   1     -42.084-122.905 -50.379  0.00  0.00     0.074 C 
BRANCH  15  16
ATOM     16  C   UNL d   1     -42.191-122.655 -49.617  0.00  0.00     0.018 C 
ATOM     17  C   UNL d   1     -42.916-122.808 -49.207  0.00  0.00     0.002 C 
ENDBRANCH  15  16
ENDBRANCH  13  15
ENDBRANCH   2  13
TORSDOF 4
ENDMDL
MODEL 2
REMARK VINA RESULT:      -3.1      1.977      4.174
REMARK  4 active torsions:
REMARK  status: ('A' for Active; 'I' for Inactive)
REMARK    1  A    between atoms: N_7  and  C_2 
REMARK    2  A    between atoms: C_6  and  C_3 
REMARK    3  A    between atoms: C_16  and  N_7 
REMARK    4  A    between atoms: C_10  and  C_16 
ROOT
ATOM      1  N   UNL d   1     -41.450-122.475 -52.969  0.00  0.00    -0.222 NA
ATOM      2  C   UNL d   1     -41.340-122.803 -53.716  0.00  0.00     0.172 A 
ATOM      3  C   UNL d   1     -41.526-123.101 -52.424  0.00  0.00     0.090 A 
ATOM      4  S   UNL d   1     -41.347-123.614 -53.640  0.00  0.00    -0.048 SA
ATOM      5  C   UNL d   1     -41.461-123.797 -52.851  0.00  0.00     0.057 A 
ENDROOT
BRANCH   3   6
ATOM      6  C   UNL d   1     -41.647-122.993 -51.603  0.00  0.00     0.018 A 
ATOM      7  C   UNL d   1     -41.228-123.456 -51.072  0.00  0.00     0.002 A 
ATOM      8  C   UNL d   1     -41.348-123.348 -50.250  0.00  0.00     0.011 A 
ATOM      9  C   UNL d   1     -41.881-122.782 -50.006  0.00  0.00     0.058 A 
ATOM     10  C   UNL d   1     -42.303-122.315 -50.539  0.00  0.00     0.011 A 
ATOM     11 CL   UNL d   1     -41.998-122.676 -49.202  0.00  0.00    -0.082 Cl
ATOM     12  C   UNL d   1     -42.185-122.422 -51.348  0.00  0.00     0.002 A 
ENDBRANCH   3   6
BRANCH   2  13
ATOM     13  N   UNL d   1     -41.239-122.404 -54.424  0.00  0.00    -0.332 N 
ATOM     14  H   UNL d   1     -40.778-121.711 -54.445  0.00  0.00     0.168 HD
BRANCH  13  15
ATOM     15  C   UNL d   1     -41.593-122.687 -55.122  0.00  0.00     0.074 C 
BRANCH  15  16
ATOM     16  C   UNL d   1     -41.990-122.186 -55.619  0.00  0.00     0.018 C 
ATOM     17  C   UNL d   1     -41.586-121.554 -56.013  0.00  0.00     0.002 C 
ENDBRANCH  15  16
ENDBRANCH  13  15
ENDBRANCH   2  13
TORSDOF 4
ENDMDL
