MODEL 1
REMARK VINA RESULT:      -4.6      0.000      0.000
REMARK  3 active torsions:
REMARK  status: ('A' for Active; 'I' for Inactive)
REMARK    1  A    between atoms: C_7  and  C_2 
REMARK       I    between atoms: N_9  and  C_7 
REMARK    2  A    between atoms: C_12  and  N_9 
REMARK    3  A    between atoms: C_11  and  C_12 
ROOT
ATOM      1  C   UNL d   1      57.722   0.345  29.439  0.00  0.00     0.285 C 
ATOM      2  N   UNL d   1      57.241   0.274  30.106  0.00  0.00    -0.206 NA
ATOM      3  O   UNL d   1      57.426   0.682  28.748  0.00  0.00    -0.265 OA
ENDROOT
BRANCH   1   4
ATOM      4  C   UNL d   1      58.509   0.074  29.464  0.00  0.00     0.133 A 
ATOM      5  C   UNL d   1      58.746  -0.578  29.012  0.00  0.00     0.272 A 
ATOM      6  N   UNL d   1      59.519  -0.835  29.044  0.00  0.00    -0.252 N 
ATOM      7  O   UNL d   1      58.199  -0.964  28.532  0.00  0.00    -0.266 OA
ATOM      8  C   UNL d   1      60.065  -0.449  29.523  0.00  0.00     0.182 A 
ATOM      9  C   UNL d   1      59.910  -1.453  28.667  0.00  0.00     0.092 A 
ATOM     10  N   UNL d   1      59.840   0.193  29.971  0.00  0.00    -0.220 NA
ATOM     11  S   UNL d   1      60.797  -0.828  29.444  0.00  0.00    -0.048 SA
ATOM     12  C   UNL d   1      59.056   0.460  29.943  0.00  0.00     0.111 A 
ATOM     13  C   UNL d   1      60.698  -1.449  28.914  0.00  0.00     0.057 A 
ENDBRANCH   1   4
BRANCH   2  14
ATOM     14  C   UNL d   1      57.541  -0.064  30.795  0.00  0.00     0.103 C 
BRANCH  14  15
ATOM     15  C   UNL d   1      57.091  -0.049  31.481  0.00  0.00     0.030 A 
ATOM     16  C   UNL d   1      56.825  -0.756  31.822  0.00  0.00     0.059 A 
ATOM     17 CL   UNL d   1      57.015  -1.475  31.469  0.00  0.00    -0.082 Cl
ATOM     18  C   UNL d   1      56.376  -0.748  32.504  0.00  0.00     0.011 A 
ATOM     19  C   UNL d   1      56.182  -0.023  32.863  0.00  0.00     0.001 A 
ATOM     20  C   UNL d   1      56.445   0.682  32.526  0.00  0.00     0.000 A 
ATOM     21  C   UNL d   1      56.900   0.671  31.833  0.00  0.00     0.002 A 
ENDBRANCH  14  15
ENDBRANCH   2  14
TORSDOF 3
ENDMDL
MODEL 2
REMARK VINA RESULT:      -3.3      1.262      1.574
REMARK  3 active torsions:
REMARK  status: ('A' for Active; 'I' for Inactive)
REMARK    1  A    between atoms: C_7  and  C_2 
REMARK       I    between atoms: N_9  and  C_7 
REMARK    2  A    between atoms: C_12  and  N_9 
REMARK    3  A    between atoms: C_11  and  C_12 
ROOT
ATOM      1  C   UNL d   1      58.024  -1.546  29.855  0.00  0.00     0.285 C 
ATOM      2  N   UNL d   1      57.614  -1.390  30.555  0.00  0.00    -0.206 NA
ATOM      3  O   UNL d   1      57.948  -2.278  29.483  0.00  0.00    -0.265 OA
ENDROOT
BRANCH   1   4
ATOM      4  C   UNL d   1      58.516  -0.962  29.524  0.00  0.00     0.133 A 
ATOM      5  C   UNL d   1      59.340  -1.048  29.534  0.00  0.00     0.272 A 
ATOM      6  N   UNL d   1      59.813  -0.471  29.208  0.00  0.00    -0.252 N 
ATOM      7  O   UNL d   1      59.677  -1.718  29.876  0.00  0.00    -0.266 OA
ATOM      8  C   UNL d   1      59.477   0.198  28.867  0.00  0.00     0.182 A 
ATOM      9  C   UNL d   1      60.631  -0.403  29.137  0.00  0.00     0.092 A 
ATOM     10  N   UNL d   1      58.667   0.290  28.852  0.00  0.00    -0.220 NA
ATOM     11  S   UNL d   1      60.085   0.682  28.584  0.00  0.00    -0.048 SA
ATOM     12  C   UNL d   1      58.180  -0.293  29.183  0.00  0.00     0.111 A 
ATOM     13  C   UNL d   1      60.798   0.308  28.752  0.00  0.00     0.057 A 
ENDBRANCH   1   4
BRANCH   2  14
ATOM     14  C   UNL d   1      57.694  -0.658  30.922  0.00  0.00     0.103 C 
BRANCH  14  15
ATOM     15  C   UNL d   1      57.247  -0.493  31.592  0.00  0.00     0.030 A 
ATOM     16  C   UNL d   1      57.412   0.179  32.048  0.00  0.00     0.059 A 
ATOM     17 CL   UNL d   1      58.025   0.682  31.827  0.00  0.00    -0.082 Cl
ATOM     18  C   UNL d   1      56.972   0.349  32.715  0.00  0.00     0.011 A 
ATOM     19  C   UNL d   1      56.351  -0.156  32.941  0.00  0.00     0.001 A 
ATOM     20  C   UNL d   1      56.186  -0.826  32.489  0.00  0.00     0.000 A 
ATOM     21  C   UNL d   1      56.634  -0.996  31.813  0.00  0.00     0.002 A 
ENDBRANCH  14  15
ENDBRANCH   2  14
TORSDOF 3
ENDMDL
MODEL 3
REMARK VINA RESULT:      -2.8      1.482      1.833
REMARK  3 active torsions:
REMARK  status: ('A' for Active; 'I' for Inactive)
REMARK    1  A    between atoms: C_7  and  C_2 
REMARK       I    between atoms: N_9  and  C_7 
REMARK    2  A    between atoms: C_12  and  N_9 
REMARK    3  A    between atoms: C_11  and  C_12 
ROOT
ATOM      1  C   UNL d   1      58.512   0.389  31.705  0.00  0.00     0.285 C 
ATOM      2  N   UNL d   1      57.893   0.248  32.232  0.00  0.00    -0.206 NA
ATOM      3  O   UNL d   1      59.233   0.680  31.978  0.00  0.00    -0.265 OA
ENDROOT
BRANCH   1   4
ATOM      4  C   UNL d   1      58.408   0.235  30.893  0.00  0.00     0.133 A 
ATOM      5  C   UNL d   1      58.842  -0.361  30.517  0.00  0.00     0.272 A 
ATOM      6  N   UNL d   1      58.734  -0.503  29.722  0.00  0.00    -0.252 N 
ATOM      7  O   UNL d   1      59.383  -0.808  30.949  0.00  0.00    -0.266 OA
ATOM      8  C   UNL d   1      58.194  -0.057  29.290  0.00  0.00     0.182 A 
ATOM      9  C   UNL d   1      59.076  -1.046  29.207  0.00  0.00     0.092 A 
ATOM     10  N   UNL d   1      57.763   0.532  29.653  0.00  0.00    -0.220 NA
ATOM     11  S   UNL d   1      58.201  -0.323  28.507  0.00  0.00    -0.048 SA
ATOM     12  C   UNL d   1      57.868   0.682  30.461  0.00  0.00     0.111 A 
ATOM     13  C   UNL d   1      58.748  -0.934  28.458  0.00  0.00     0.057 A 
ENDBRANCH   1   4
BRANCH   2  14
ATOM     14  C   UNL d   1      57.175  -0.044  31.954  0.00  0.00     0.103 C 
BRANCH  14  15
ATOM     15  C   UNL d   1      56.530  -0.075  32.461  0.00  0.00     0.030 A 
ATOM     16  C   UNL d   1      56.085  -0.772  32.528  0.00  0.00     0.059 A 
ATOM     17 CL   UNL d   1      56.293  -1.433  32.084  0.00  0.00    -0.082 Cl
ATOM     18  C   UNL d   1      55.442  -0.810  33.031  0.00  0.00     0.011 A 
ATOM     19  C   UNL d   1      55.228  -0.144  33.481  0.00  0.00     0.001 A 
ATOM     20  C   UNL d   1      55.669   0.550  33.416  0.00  0.00     0.000 A 
ATOM     21  C   UNL d   1      56.322   0.586  32.906  0.00  0.00     0.002 A 
ENDBRANCH  14  15
ENDBRANCH   2  14
TORSDOF 3
ENDMDL
MODEL 4
REMARK VINA RESULT:      -1.6      2.742      4.704
REMARK  3 active torsions:
REMARK  status: ('A' for Active; 'I' for Inactive)
REMARK    1  A    between atoms: C_7  and  C_2 
REMARK       I    between atoms: N_9  and  C_7 
REMARK    2  A    between atoms: C_12  and  N_9 
REMARK    3  A    between atoms: C_11  and  C_12 
ROOT
ATOM      1  C   UNL d   1      56.492  -1.245  32.010  0.00  0.00     0.285 C 
ATOM      2  N   UNL d   1      57.093  -0.972  31.514  0.00  0.00    -0.206 NA
ATOM      3  O   UNL d   1      56.223  -2.022  31.949  0.00  0.00    -0.265 OA
ENDROOT
BRANCH   1   4
ATOM      4  C   UNL d   1      56.155  -0.734  32.574  0.00  0.00     0.133 A 
ATOM      5  C   UNL d   1      56.159  -0.931  33.378  0.00  0.00     0.272 A 
ATOM      6  N   UNL d   1      55.827  -0.424  33.922  0.00  0.00    -0.252 N 
ATOM      7  O   UNL d   1      56.498  -1.640  33.624  0.00  0.00    -0.266 OA
ATOM      8  C   UNL d   1      55.488   0.285  33.677  0.00  0.00     0.182 A 
ATOM      9  C   UNL d   1      55.749  -0.467  34.741  0.00  0.00     0.092 A 
ATOM     10  N   UNL d   1      55.481   0.486  32.887  0.00  0.00    -0.220 NA
ATOM     11  S   UNL d   1      55.199   0.682  34.343  0.00  0.00    -0.048 SA
ATOM     12  C   UNL d   1      55.816  -0.025  32.329  0.00  0.00     0.111 A 
ATOM     13  C   UNL d   1      55.362   0.215  35.000  0.00  0.00     0.057 A 
ENDBRANCH   1   4
BRANCH   2  14
ATOM     14  C   UNL d   1      57.358  -0.196  31.579  0.00  0.00     0.103 C 
BRANCH  14  15
ATOM     15  C   UNL d   1      57.929   0.080  31.057  0.00  0.00     0.030 A 
ATOM     16  C   UNL d   1      58.635   0.405  31.345  0.00  0.00     0.059 A 
ATOM     17 CL   UNL d   1      58.763   0.450  32.157  0.00  0.00    -0.082 Cl
ATOM     18  C   UNL d   1      59.208   0.681  30.831  0.00  0.00     0.011 A 
ATOM     19  C   UNL d   1      59.083   0.637  30.010  0.00  0.00     0.001 A 
ATOM     20  C   UNL d   1      58.381   0.314  29.721  0.00  0.00     0.000 A 
ATOM     21  C   UNL d   1      57.802   0.035  30.244  0.00  0.00     0.002 A 
ENDBRANCH  14  15
ENDBRANCH   2  14
TORSDOF 3
ENDMDL
