MODEL 1
REMARK VINA RESULT:      -5.6      0.000      0.000
REMARK  1 active torsions:
REMARK  status: ('A' for Active; 'I' for Inactive)
REMARK    1  A    between atoms: C_4  and  C_2 
ROOT
ATOM      1  C   UNL d   1      57.435   0.162  31.524  0.00  0.00     0.141 C 
ATOM      2  C   UNL d   1      57.265   0.415  30.763  0.00  0.00     0.112 C 
ATOM      3  C   UNL d   1      58.129   0.418  31.908  0.00  0.00     0.112 C 
ATOM      4  N   UNL d   1      58.838   0.675  32.308  0.00  0.00    -0.191 NA
ATOM      5  N   UNL d   1      57.101   0.680  29.984  0.00  0.00    -0.191 NA
ENDROOT
BRANCH   1   6
ATOM      6  C   UNL d   1      56.903  -0.352  31.904  0.00  0.00     0.079 A 
ATOM      7  C   UNL d   1      56.856  -1.143  31.764  0.00  0.00     0.281 A 
ATOM      8  N   UNL d   1      56.272  -1.455  32.240  0.00  0.00    -0.208 NA
ATOM      9  O   UNL d   1      57.339  -1.548  31.216  0.00  0.00    -0.265 OA
ATOM     10  C   UNL d   1      55.957  -0.852  32.677  0.00  0.00     0.085 A 
ATOM     11  C   UNL d   1      55.353  -0.838  33.247  0.00  0.00     0.019 A 
ATOM     12  C   UNL d   1      56.346  -0.150  32.475  0.00  0.00     0.024 A 
ATOM     13  C   UNL d   1      55.150  -0.145  33.599  0.00  0.00     0.002 A 
ATOM     14  C   UNL d   1      55.551   0.558  33.387  0.00  0.00     0.000 A 
ATOM     15  C   UNL d   1      56.149   0.536  32.819  0.00  0.00     0.002 A 
ENDBRANCH   1   6
TORSDOF 1
ENDMDL
MODEL 2
REMARK VINA RESULT:      -5.4      1.453      2.779
REMARK  1 active torsions:
REMARK  status: ('A' for Active; 'I' for Inactive)
REMARK    1  A    between atoms: C_4  and  C_2 
ROOT
ATOM      1  C   UNL d   1      56.002   0.186  33.570  0.00  0.00     0.141 C 
ATOM      2  C   UNL d   1      56.546   0.428  34.133  0.00  0.00     0.112 C 
ATOM      3  C   UNL d   1      55.207   0.431  33.618  0.00  0.00     0.112 C 
ATOM      4  N   UNL d   1      54.391   0.679  33.660  0.00  0.00    -0.191 NA
ATOM      5  N   UNL d   1      57.094   0.682  34.716  0.00  0.00    -0.191 NA
ENDROOT
BRANCH   1   6
ATOM      6  C   UNL d   1      56.258  -0.309  32.952  0.00  0.00     0.079 A 
ATOM      7  C   UNL d   1      56.163  -1.108  32.940  0.00  0.00     0.281 A 
ATOM      8  N   UNL d   1      56.484  -1.395  32.247  0.00  0.00    -0.208 NA
ATOM      9  O   UNL d   1      55.794  -1.542  33.550  0.00  0.00    -0.265 OA
ATOM     10  C   UNL d   1      56.778  -0.768  31.830  0.00  0.00     0.085 A 
ATOM     11  C   UNL d   1      57.162  -0.724  31.094  0.00  0.00     0.019 A 
ATOM     12  C   UNL d   1      56.642  -0.077  32.263  0.00  0.00     0.024 A 
ATOM     13  C   UNL d   1      57.399  -0.012  30.808  0.00  0.00     0.002 A 
ATOM     14  C   UNL d   1      57.256   0.681  31.256  0.00  0.00     0.000 A 
ATOM     15  C   UNL d   1      56.874   0.629  31.985  0.00  0.00     0.002 A 
ENDBRANCH   1   6
TORSDOF 1
ENDMDL
MODEL 3
REMARK VINA RESULT:      -4.6      1.418      2.988
REMARK  1 active torsions:
REMARK  status: ('A' for Active; 'I' for Inactive)
REMARK    1  A    between atoms: C_4  and  C_2 
ROOT
ATOM      1  C   UNL d   1      56.035  -0.292  33.055  0.00  0.00     0.141 C 
ATOM      2  C   UNL d   1      55.398   0.192  33.232  0.00  0.00     0.112 C 
ATOM      3  C   UNL d   1      55.946  -1.120  33.045  0.00  0.00     0.112 C 
ATOM      4  N   UNL d   1      55.862  -1.970  33.033  0.00  0.00    -0.191 NA
ATOM      5  N   UNL d   1      54.738   0.678  33.415  0.00  0.00    -0.191 NA
ENDROOT
BRANCH   1   6
ATOM      6  C   UNL d   1      56.771   0.059  32.886  0.00  0.00     0.079 A 
ATOM      7  C   UNL d   1      57.257   0.384  33.439  0.00  0.00     0.281 A 
ATOM      8  N   UNL d   1      57.921   0.669  33.061  0.00  0.00    -0.208 NA
ATOM      9  O   UNL d   1      57.083   0.409  34.256  0.00  0.00    -0.265 OA
ATOM     10  C   UNL d   1      57.843   0.519  32.271  0.00  0.00     0.085 A 
ATOM     11  C   UNL d   1      58.340   0.682  31.625  0.00  0.00     0.019 A 
ATOM     12  C   UNL d   1      57.121   0.134  32.147  0.00  0.00     0.024 A 
ATOM     13  C   UNL d   1      58.117   0.465  30.884  0.00  0.00     0.002 A 
ATOM     14  C   UNL d   1      57.384   0.076  30.771  0.00  0.00     0.000 A 
ATOM     15  C   UNL d   1      56.897  -0.081  31.417  0.00  0.00     0.002 A 
ENDBRANCH   1   6
TORSDOF 1
ENDMDL
MODEL 4
REMARK VINA RESULT:      -3.8      1.248      1.939
REMARK  1 active torsions:
REMARK  status: ('A' for Active; 'I' for Inactive)
REMARK    1  A    between atoms: C_4  and  C_2 
ROOT
ATOM      1  C   UNL d   1      56.628  -0.300  32.217  0.00  0.00     0.141 C 
ATOM      2  C   UNL d   1      56.679   0.190  31.561  0.00  0.00     0.112 C 
ATOM      3  C   UNL d   1      56.623  -1.128  32.125  0.00  0.00     0.112 C 
ATOM      4  N   UNL d   1      56.616  -1.977  32.039  0.00  0.00    -0.191 NA
ATOM      5  N   UNL d   1      56.731   0.682  30.883  0.00  0.00    -0.191 NA
ENDROOT
BRANCH   1   6
ATOM      6  C   UNL d   1      56.583   0.045  32.973  0.00  0.00     0.079 A 
ATOM      7  C   UNL d   1      57.212   0.347  33.373  0.00  0.00     0.281 A 
ATOM      8  N   UNL d   1      56.948   0.634  34.089  0.00  0.00    -0.208 NA
ATOM      9  O   UNL d   1      57.994   0.351  33.078  0.00  0.00    -0.265 OA
ATOM     10  C   UNL d   1      56.151   0.507  34.130  0.00  0.00     0.085 A 
ATOM     11  C   UNL d   1      55.592   0.682  34.720  0.00  0.00     0.019 A 
ATOM     12  C   UNL d   1      55.907   0.137  33.432  0.00  0.00     0.024 A 
ATOM     13  C   UNL d   1      54.820   0.489  34.610  0.00  0.00     0.002 A 
ATOM     14  C   UNL d   1      54.586   0.115  33.899  0.00  0.00     0.000 A 
ATOM     15  C   UNL d   1      55.146  -0.055  33.318  0.00  0.00     0.002 A 
ENDBRANCH   1   6
TORSDOF 1
ENDMDL
MODEL 5
REMARK VINA RESULT:      -3.7      8.951     10.037
REMARK  1 active torsions:
REMARK  status: ('A' for Active; 'I' for Inactive)
REMARK    1  A    between atoms: C_4  and  C_2 
ROOT
ATOM      1  C   UNL d   1      59.408  -8.703  35.416  0.00  0.00     0.141 C 
ATOM      2  C   UNL d   1      59.323  -7.898  35.544  0.00  0.00     0.112 C 
ATOM      3  C   UNL d   1      58.971  -9.251  35.867  0.00  0.00     0.112 C 
ATOM      4  N   UNL d   1      58.527  -9.818  36.326  0.00  0.00    -0.191 NA
ATOM      5  N   UNL d   1      59.227  -7.076  35.683  0.00  0.00    -0.191 NA
ENDROOT
BRANCH   1   6
ATOM      6  C   UNL d   1      59.939  -8.962  34.829  0.00  0.00     0.079 A 
ATOM      7  C   UNL d   1      60.736  -9.006  34.925  0.00  0.00     0.281 A 
ATOM      8  N   UNL d   1      61.064  -9.283  34.231  0.00  0.00    -0.208 NA
ATOM      9  O   UNL d   1      61.133  -8.796  35.630  0.00  0.00    -0.265 OA
ATOM     10  C   UNL d   1      60.464  -9.410  33.705  0.00  0.00     0.085 A 
ATOM     11  C   UNL d   1      60.464  -9.687  32.922  0.00  0.00     0.019 A 
ATOM     12  C   UNL d   1      59.748  -9.211  34.070  0.00  0.00     0.024 A 
ATOM     13  C   UNL d   1      59.771  -9.760  32.523  0.00  0.00     0.002 A 
ATOM     14  C   UNL d   1      59.053  -9.556  32.902  0.00  0.00     0.000 A 
ATOM     15  C   UNL d   1      59.061  -9.282  33.680  0.00  0.00     0.002 A 
ENDBRANCH   1   6
TORSDOF 1
ENDMDL
