MODEL 1
REMARK VINA RESULT:      51.5      0.000      0.000
REMARK  5 active torsions:
REMARK  status: ('A' for Active; 'I' for Inactive)
REMARK    1  A    between atoms: C_5  and  C_1 
REMARK    2  A    between atoms: C_12  and  C_5 
REMARK    3  A    between atoms: C_7  and  C_22 
REMARK       I    between atoms: N_21  and  C_12 
REMARK    4  A    between atoms: C_23  and  N_21 
REMARK    5  A    between atoms: C_22  and  C_23 
ROOT
ATOM      1  C   UNL d   1     -55.389 -99.159 -44.295  0.00  0.00     0.102 C 
ENDROOT
BRANCH   1   2
ATOM      2  C   UNL d   1     -54.718 -99.637 -44.249  0.00  0.00     0.026 C 
BRANCH   2   3
ATOM      3  C   UNL d   1     -54.718-100.308 -43.750  0.00  0.00     0.059 A 
ATOM      4  C   UNL d   1     -54.720-101.064 -44.077  0.00  0.00     0.279 A 
ATOM      5  N   UNL d   1     -54.721-101.727 -43.588  0.00  0.00    -0.208 NA
ATOM      6  O   UNL d   1     -54.722-101.156 -44.908  0.00  0.00    -0.265 OA
ATOM      7  C   UNL d   1     -54.719-101.639 -42.775  0.00  0.00     0.085 A 
ATOM      8  C   UNL d   1     -54.717-100.876 -42.443  0.00  0.00     0.018 A 
ATOM      9  C   UNL d   1     -54.719-102.297 -42.283  0.00  0.00     0.019 A 
ATOM     10  C   UNL d   1     -54.717-100.210 -42.931  0.00  0.00     0.006 A 
ATOM     11  C   UNL d   1     -54.715-100.782 -41.627  0.00  0.00     0.002 A 
ATOM     12  C   UNL d   1     -54.715-101.447 -41.138  0.00  0.00     0.000 A 
ATOM     13  C   UNL d   1     -54.717-102.207 -41.469  0.00  0.00     0.002 A 
ATOM     14  C   UNL d   1     -54.714-101.356 -40.308  0.00  0.00     0.000 C 
ATOM     15  C   UNL d   1     -54.718-102.872 -40.980  0.00  0.00     0.000 C 
ENDBRANCH   2   3
ENDBRANCH   1   2
BRANCH   1  16
ATOM     16  N   UNL d   1     -55.724 -99.002 -45.026  0.00  0.00    -0.204 NA
ATOM     17  C   UNL d   1     -56.541 -99.026 -45.115  0.00  0.00     0.318 C 
ATOM     18  O   UNL d   1     -56.880 -98.868 -45.849  0.00  0.00    -0.262 OA
BRANCH  17  19
ATOM     19  C   UNL d   1     -57.027 -99.210 -44.464  0.00  0.00     0.254 C 
ATOM     20  O   UNL d   1     -56.692 -99.544 -43.787  0.00  0.00    -0.281 OA
BRANCH  19  21
ATOM     21  C   UNL d   1     -57.831 -99.058 -44.499  0.00  0.00     0.064 A 
ATOM     22  C   UNL d   1     -58.281 -98.910 -45.176  0.00  0.00     0.102 A 
ATOM     23  N   UNL d   1     -59.064 -98.787 -44.957  0.00  0.00    -0.244 NA
ATOM     24  C   UNL d   1     -59.107 -98.858 -44.136  0.00  0.00     0.082 A 
ATOM     25  C   UNL d   1     -58.347 -99.025 -43.853  0.00  0.00     0.022 A 
ATOM     26  C   UNL d   1     -59.737 -98.792 -43.609  0.00  0.00     0.019 A 
ATOM     27  C   UNL d   1     -58.221 -99.126 -43.046  0.00  0.00     0.002 A 
ATOM     28  C   UNL d   1     -58.860 -99.059 -42.516  0.00  0.00     0.000 A 
ATOM     29  C   UNL d   1     -59.611 -98.893 -42.803  0.00  0.00     0.002 A 
ENDBRANCH  19  21
ENDBRANCH  17  19
ENDBRANCH   1  16
TORSDOF 5
ENDMDL
MODEL 2
REMARK VINA RESULT:      52.8      0.901      1.289
REMARK  5 active torsions:
REMARK  status: ('A' for Active; 'I' for Inactive)
REMARK    1  A    between atoms: C_5  and  C_1 
REMARK    2  A    between atoms: C_12  and  C_5 
REMARK    3  A    between atoms: C_7  and  C_22 
REMARK       I    between atoms: N_21  and  C_12 
REMARK    4  A    between atoms: C_23  and  N_21 
REMARK    5  A    between atoms: C_22  and  C_23 
ROOT
ATOM      1  C   UNL d   1     -55.358-100.119 -43.374  0.00  0.00     0.102 C 
ENDROOT
BRANCH   1   2
ATOM      2  C   UNL d   1     -54.711-100.551 -43.096  0.00  0.00     0.026 C 
BRANCH   2   3
ATOM      3  C   UNL d   1     -54.806-101.074 -42.451  0.00  0.00     0.059 A 
ATOM      4  C   UNL d   1     -54.993-101.865 -42.586  0.00  0.00     0.279 A 
ATOM      5  N   UNL d   1     -55.088-102.381 -41.952  0.00  0.00    -0.208 NA
ATOM      6  O   UNL d   1     -55.087-102.140 -43.369  0.00  0.00    -0.265 OA
ATOM      7  C   UNL d   1     -54.996-102.114 -41.184  0.00  0.00     0.085 A 
ATOM      8  C   UNL d   1     -54.808-101.316 -41.047  0.00  0.00     0.018 A 
ATOM      9  C   UNL d   1     -55.089-102.626 -40.549  0.00  0.00     0.019 A 
ATOM     10  C   UNL d   1     -54.713-100.795 -41.680  0.00  0.00     0.006 A 
ATOM     11  C   UNL d   1     -54.715-101.041 -40.277  0.00  0.00     0.002 A 
ATOM     12  C   UNL d   1     -54.810-101.561 -39.643  0.00  0.00     0.000 A 
ATOM     13  C   UNL d   1     -54.998-102.356 -39.781  0.00  0.00     0.002 A 
ATOM     14  C   UNL d   1     -54.716-101.286 -38.860  0.00  0.00     0.000 C 
ATOM     15  C   UNL d   1     -55.092-102.876 -39.147  0.00  0.00     0.000 C 
ENDBRANCH   2   3
ENDBRANCH   1   2
BRANCH   1  16
ATOM     16  N   UNL d   1     -55.343 -99.813 -44.134  0.00  0.00    -0.204 NA
ATOM     17  C   UNL d   1     -55.891 -99.240 -44.353  0.00  0.00     0.318 C 
ATOM     18  O   UNL d   1     -55.878 -98.931 -45.117  0.00  0.00    -0.262 OA
BRANCH  17  19
ATOM     19  C   UNL d   1     -56.457 -98.971 -43.806  0.00  0.00     0.254 C 
ATOM     20  O   UNL d   1     -56.220 -98.766 -43.042  0.00  0.00    -0.281 OA
BRANCH  19  21
ATOM     21  C   UNL d   1     -57.243 -98.912 -44.028  0.00  0.00     0.064 A 
ATOM     22  C   UNL d   1     -57.543 -98.885 -44.797  0.00  0.00     0.102 A 
ATOM     23  N   UNL d   1     -58.363 -98.825 -44.765  0.00  0.00    -0.244 NA
ATOM     24  C   UNL d   1     -58.580 -98.816 -43.968  0.00  0.00     0.082 A 
ATOM     25  C   UNL d   1     -57.891 -98.869 -43.513  0.00  0.00     0.022 A 
ATOM     26  C   UNL d   1     -59.314 -98.765 -43.598  0.00  0.00     0.019 A 
ATOM     27  C   UNL d   1     -57.938 -98.872 -42.692  0.00  0.00     0.002 A 
ATOM     28  C   UNL d   1     -58.681 -98.821 -42.320  0.00  0.00     0.000 A 
ATOM     29  C   UNL d   1     -59.362 -98.768 -42.777  0.00  0.00     0.002 A 
ENDBRANCH  19  21
ENDBRANCH  17  19
ENDBRANCH   1  16
TORSDOF 5
ENDMDL
