MODEL 1
REMARK VINA RESULT:      -7.3      0.000      0.000
REMARK  5 active torsions:
REMARK  status: ('A' for Active; 'I' for Inactive)
REMARK    1  A    between atoms: C_4  and  C_1 
REMARK    2  A    between atoms: C_9  and  C_4 
REMARK    3  A    between atoms: N_5  and  C_9 
REMARK    4  A    between atoms: C_19  and  N_6 
REMARK    5  A    between atoms: C_18  and  C_19 
ROOT
ATOM      1  N   UNL d   1     -47.416  11.824  22.992  0.00  0.00    -0.297 N 
ATOM      2  N   UNL d   1     -49.059  12.044  23.017  0.00  0.00    -0.300 N 
ATOM      3  C   UNL d   1     -47.845  11.683  23.676  0.00  0.00     0.100 A 
ATOM      4  C   UNL d   1     -47.810  12.080  22.304  0.00  0.00     0.100 A 
ATOM      5  C   UNL d   1     -48.633  12.188  22.327  0.00  0.00     0.100 A 
ATOM      6  C   UNL d   1     -48.668  11.790  23.698  0.00  0.00     0.100 A 
ENDROOT
BRANCH   1   7
ATOM      7  C   UNL d   1     -46.600  11.716  22.974  0.00  0.00     0.123 C 
BRANCH   7   8
ATOM      8  C   UNL d   1     -46.093  12.349  23.119  0.00  0.00     0.216 C 
ATOM      9  O   UNL d   1     -46.310  12.939  23.653  0.00  0.00    -0.285 OA
BRANCH   8  10
ATOM     10  C   UNL d   1     -45.361  12.394  22.728  0.00  0.00     0.080 A 
ATOM     11  C   UNL d   1     -44.775  11.856  22.892  0.00  0.00     0.202 A 
ATOM     12  C   UNL d   1     -44.053  11.898  22.508  0.00  0.00     0.078 A 
ATOM     13  O   UNL d   1     -44.910  11.263  23.449  0.00  0.00    -0.286 OA
ATOM     14  C   UNL d   1     -43.461  11.348  22.678  0.00  0.00     0.007 C 
ATOM     15  C   UNL d   1     -43.912  12.495  21.944  0.00  0.00     0.199 A 
ATOM     16  C   UNL d   1     -44.512  13.044  21.778  0.00  0.00     0.042 A 
ATOM     17  O   UNL d   1     -43.190  12.537  21.560  0.00  0.00    -0.286 OA
ATOM     18  C   UNL d   1     -45.236  12.997  22.167  0.00  0.00     0.010 A 
ENDBRANCH   8  10
ENDBRANCH   7   8
ENDBRANCH   1   7
BRANCH   2  19
ATOM     19  C   UNL d   1     -49.880  12.153  23.035  0.00  0.00     0.080 C 
BRANCH  19  20
ATOM     20  C   UNL d   1     -50.197  12.901  22.894  0.00  0.00     0.020 A 
ATOM     21  C   UNL d   1     -50.049  13.519  23.421  0.00  0.00     0.028 A 
ATOM     22  C   UNL d   1     -50.366  14.262  23.277  0.00  0.00     0.119 A 
ATOM     23  O   UNL d   1     -50.313  14.968  23.698  0.00  0.00    -0.300 OA
ATOM     24  C   UNL d   1     -50.831  14.389  22.610  0.00  0.00     0.119 A 
ATOM     25  C   UNL d   1     -50.743  15.543  23.297  0.00  0.00     0.304 A 
ATOM     26  O   UNL d   1     -51.064  15.182  22.621  0.00  0.00    -0.300 OA
ATOM     27  C   UNL d   1     -50.981  13.775  22.082  0.00  0.00     0.026 A 
ATOM     28  C   UNL d   1     -50.658  13.026  22.231  0.00  0.00     0.004 A 
ENDBRANCH  19  20
ENDBRANCH   2  19
TORSDOF 5
ENDMDL
MODEL 2
REMARK VINA RESULT:      -6.4      8.386     10.169
REMARK  5 active torsions:
REMARK  status: ('A' for Active; 'I' for Inactive)
REMARK    1  A    between atoms: C_4  and  C_1 
REMARK    2  A    between atoms: C_9  and  C_4 
REMARK    3  A    between atoms: N_5  and  C_9 
REMARK    4  A    between atoms: C_19  and  N_6 
REMARK    5  A    between atoms: C_18  and  C_19 
ROOT
ATOM      1  N   UNL d   1     -40.044  14.926  18.577  0.00  0.00    -0.297 N 
ATOM      2  N   UNL d   1     -40.375  14.990  20.200  0.00  0.00    -0.300 N 
ATOM      3  C   UNL d   1     -39.864  15.597  19.013  0.00  0.00     0.100 A 
ATOM      4  C   UNL d   1     -40.397  14.272  18.954  0.00  0.00     0.100 A 
ATOM      5  C   UNL d   1     -40.558  14.314  19.767  0.00  0.00     0.100 A 
ATOM      6  C   UNL d   1     -40.026  15.637  19.827  0.00  0.00     0.100 A 
ENDROOT
BRANCH   1   7
ATOM      7  C   UNL d   1     -39.882  14.890  17.771  0.00  0.00     0.123 C 
BRANCH   7   8
ATOM      8  C   UNL d   1     -39.163  14.590  17.504  0.00  0.00     0.216 C 
ATOM      9  O   UNL d   1     -38.742  14.051  17.966  0.00  0.00    -0.285 OA
BRANCH   8  10
ATOM     10  C   UNL d   1     -38.860  14.829  16.768  0.00  0.00     0.080 A 
ATOM     11  C   UNL d   1     -38.562  14.279  16.249  0.00  0.00     0.202 A 
ATOM     12  C   UNL d   1     -38.263  14.512  15.523  0.00  0.00     0.078 A 
ATOM     13  O   UNL d   1     -38.563  13.480  16.457  0.00  0.00    -0.286 OA
ATOM     14  C   UNL d   1     -37.962  13.948  15.000  0.00  0.00     0.007 C 
ATOM     15  C   UNL d   1     -38.260  15.317  15.309  0.00  0.00     0.199 A 
ATOM     16  C   UNL d   1     -38.565  15.877  15.841  0.00  0.00     0.042 A 
ATOM     17  O   UNL d   1     -37.961  15.549  14.584  0.00  0.00    -0.286 OA
ATOM     18  C   UNL d   1     -38.865  15.638  16.569  0.00  0.00     0.010 A 
ENDBRANCH   8  10
ENDBRANCH   7   8
ENDBRANCH   1   7
BRANCH   2  19
ATOM     19  C   UNL d   1     -40.539  15.026  21.012  0.00  0.00     0.080 C 
BRANCH  19  20
ATOM     20  C   UNL d   1     -39.940  14.869  21.558  0.00  0.00     0.020 A 
ATOM     21  C   UNL d   1     -39.762  14.089  21.763  0.00  0.00     0.028 A 
ATOM     22  C   UNL d   1     -39.167  13.937  22.306  0.00  0.00     0.119 A 
ATOM     23  O   UNL d   1     -38.874  13.229  22.610  0.00  0.00    -0.300 OA
ATOM     24  C   UNL d   1     -38.749  14.560  22.645  0.00  0.00     0.119 A 
ATOM     25  C   UNL d   1     -38.271  13.405  23.141  0.00  0.00     0.304 A 
ATOM     26  O   UNL d   1     -38.194  14.231  23.162  0.00  0.00    -0.300 OA
ATOM     27  C   UNL d   1     -38.924  15.339  22.442  0.00  0.00     0.026 A 
ATOM     28  C   UNL d   1     -39.527  15.488  21.892  0.00  0.00     0.004 A 
ENDBRANCH  19  20
ENDBRANCH   2  19
TORSDOF 5
ENDMDL
MODEL 3
REMARK VINA RESULT:      -6.1      1.002      1.429
REMARK  5 active torsions:
REMARK  status: ('A' for Active; 'I' for Inactive)
REMARK    1  A    between atoms: C_4  and  C_1 
REMARK    2  A    between atoms: C_9  and  C_4 
REMARK    3  A    between atoms: N_5  and  C_9 
REMARK    4  A    between atoms: C_19  and  N_6 
REMARK    5  A    between atoms: C_18  and  C_19 
ROOT
ATOM      1  N   UNL d   1     -47.483  11.277  23.102  0.00  0.00    -0.297 N 
ATOM      2  N   UNL d   1     -48.992  11.861  22.739  0.00  0.00    -0.300 N 
ATOM      3  C   UNL d   1     -48.025  11.430  23.698  0.00  0.00     0.100 A 
ATOM      4  C   UNL d   1     -47.694  11.416  22.308  0.00  0.00     0.100 A 
ATOM      5  C   UNL d   1     -48.451  11.709  22.137  0.00  0.00     0.100 A 
ATOM      6  C   UNL d   1     -48.783  11.723  23.525  0.00  0.00     0.100 A 
ENDROOT
BRANCH   1   7
ATOM      7  C   UNL d   1     -46.733  10.987  23.277  0.00  0.00     0.123 C 
BRANCH   7   8
ATOM      8  C   UNL d   1     -46.081  11.490  23.279  0.00  0.00     0.216 C 
ATOM      9  O   UNL d   1     -46.190  12.308  23.265  0.00  0.00    -0.285 OA
BRANCH   8  10
ATOM     10  C   UNL d   1     -45.312  11.176  23.295  0.00  0.00     0.080 A 
ATOM     11  C   UNL d   1     -44.700  11.574  22.939  0.00  0.00     0.202 A 
ATOM     12  C   UNL d   1     -43.941  11.266  22.954  0.00  0.00     0.078 A 
ATOM     13  O   UNL d   1     -44.845  12.292  22.561  0.00  0.00    -0.286 OA
ATOM     14  C   UNL d   1     -43.322  11.675  22.590  0.00  0.00     0.007 C 
ATOM     15  C   UNL d   1     -43.789  10.541  23.335  0.00  0.00     0.199 A 
ATOM     16  C   UNL d   1     -44.417  10.136  23.698  0.00  0.00     0.042 A 
ATOM     17  O   UNL d   1     -43.030  10.234  23.349  0.00  0.00    -0.286 OA
ATOM     18  C   UNL d   1     -45.178  10.450  23.680  0.00  0.00     0.010 A 
ENDBRANCH   8  10
ENDBRANCH   7   8
ENDBRANCH   1   7
BRANCH   2  19
ATOM     19  C   UNL d   1     -49.746  12.153  22.563  0.00  0.00     0.080 C 
BRANCH  19  20
ATOM     20  C   UNL d   1     -49.907  12.957  22.656  0.00  0.00     0.020 A 
ATOM     21  C   UNL d   1     -49.554  13.510  22.154  0.00  0.00     0.028 A 
ATOM     22  C   UNL d   1     -49.716  14.308  22.249  0.00  0.00     0.119 A 
ATOM     23  O   UNL d   1     -49.450  14.971  21.839  0.00  0.00    -0.300 OA
ATOM     24  C   UNL d   1     -50.229  14.556  22.844  0.00  0.00     0.119 A 
ATOM     25  C   UNL d   1     -49.794  15.639  22.174  0.00  0.00     0.304 A 
ATOM     26  O   UNL d   1     -50.277  15.380  22.797  0.00  0.00    -0.300 OA
ATOM     27  C   UNL d   1     -50.582  14.007  23.347  0.00  0.00     0.026 A 
ATOM     28  C   UNL d   1     -50.416  13.201  23.246  0.00  0.00     0.004 A 
ENDBRANCH  19  20
ENDBRANCH   2  19
TORSDOF 5
ENDMDL
MODEL 4
REMARK VINA RESULT:      -5.4      1.145      5.565
REMARK  5 active torsions:
REMARK  status: ('A' for Active; 'I' for Inactive)
REMARK    1  A    between atoms: C_4  and  C_1 
REMARK    2  A    between atoms: C_9  and  C_4 
REMARK    3  A    between atoms: N_5  and  C_9 
REMARK    4  A    between atoms: C_19  and  N_6 
REMARK    5  A    between atoms: C_18  and  C_19 
ROOT
ATOM      1  N   UNL d   1     -47.918  12.370  23.262  0.00  0.00    -0.297 N 
ATOM      2  N   UNL d   1     -46.550  11.480  23.551  0.00  0.00    -0.300 N 
ATOM      3  C   UNL d   1     -47.907  11.563  23.117  0.00  0.00     0.100 A 
ATOM      4  C   UNL d   1     -47.235  12.745  23.556  0.00  0.00     0.100 A 
ATOM      5  C   UNL d   1     -46.555  12.291  23.698  0.00  0.00     0.100 A 
ATOM      6  C   UNL d   1     -47.226  11.110  23.259  0.00  0.00     0.100 A 
ENDROOT
BRANCH   1   7
ATOM      7  C   UNL d   1     -48.595  12.816  23.119  0.00  0.00     0.123 C 
BRANCH   7   8
ATOM      8  C   UNL d   1     -48.627  13.332  22.478  0.00  0.00     0.216 C 
ATOM      9  O   UNL d   1     -48.059  13.288  21.882  0.00  0.00    -0.285 OA
BRANCH   8  10
ATOM     10  C   UNL d   1     -49.233  13.899  22.430  0.00  0.00     0.080 A 
ATOM     11  C   UNL d   1     -49.846  13.800  21.906  0.00  0.00     0.202 A 
ATOM     12  C   UNL d   1     -50.444  14.357  21.856  0.00  0.00     0.078 A 
ATOM     13  O   UNL d   1     -49.864  13.133  21.421  0.00  0.00    -0.286 OA
ATOM     14  C   UNL d   1     -51.064  14.252  21.322  0.00  0.00     0.007 C 
ATOM     15  C   UNL d   1     -50.430  15.033  22.344  0.00  0.00     0.199 A 
ATOM     16  C   UNL d   1     -49.802  15.132  22.879  0.00  0.00     0.042 A 
ATOM     17  O   UNL d   1     -51.028  15.589  22.294  0.00  0.00    -0.286 OA
ATOM     18  C   UNL d   1     -49.203  14.568  22.925  0.00  0.00     0.010 A 
ENDBRANCH   8  10
ENDBRANCH   7   8
ENDBRANCH   1   7
BRANCH   2  19
ATOM     19  C   UNL d   1     -45.868  11.032  23.694  0.00  0.00     0.080 C 
BRANCH  19  20
ATOM     20  C   UNL d   1     -45.166  11.215  23.301  0.00  0.00     0.020 A 
ATOM     21  C   UNL d   1     -45.134  11.868  22.795  0.00  0.00     0.028 A 
ATOM     22  C   UNL d   1     -44.435  12.047  22.406  0.00  0.00     0.119 A 
ATOM     23  O   UNL d   1     -44.244  12.651  21.879  0.00  0.00    -0.300 OA
ATOM     24  C   UNL d   1     -43.768  11.578  22.519  0.00  0.00     0.119 A 
ATOM     25  C   UNL d   1     -43.456  12.564  21.659  0.00  0.00     0.304 A 
ATOM     26  O   UNL d   1     -43.162  11.897  22.057  0.00  0.00    -0.300 OA
ATOM     27  C   UNL d   1     -43.797  10.926  23.023  0.00  0.00     0.026 A 
ATOM     28  C   UNL d   1     -44.506  10.749  23.414  0.00  0.00     0.004 A 
ENDBRANCH  19  20
ENDBRANCH   2  19
TORSDOF 5
ENDMDL
MODEL 5
REMARK VINA RESULT:      -5.3      1.536      2.265
REMARK  5 active torsions:
REMARK  status: ('A' for Active; 'I' for Inactive)
REMARK    1  A    between atoms: C_4  and  C_1 
REMARK    2  A    between atoms: C_9  and  C_4 
REMARK    3  A    between atoms: N_5  and  C_9 
REMARK    4  A    between atoms: C_19  and  N_6 
REMARK    5  A    between atoms: C_18  and  C_19 
ROOT
ATOM      1  N   UNL d   1     -46.191  13.587  22.998  0.00  0.00    -0.297 N 
ATOM      2  N   UNL d   1     -47.549  14.533  22.906  0.00  0.00    -0.300 N 
ATOM      3  C   UNL d   1     -46.212  14.239  22.501  0.00  0.00     0.100 A 
ATOM      4  C   UNL d   1     -46.858  13.400  23.460  0.00  0.00     0.100 A 
ATOM      5  C   UNL d   1     -47.534  13.880  23.407  0.00  0.00     0.100 A 
ATOM      6  C   UNL d   1     -46.887  14.718  22.449  0.00  0.00     0.100 A 
ENDROOT
BRANCH   1   7
ATOM      7  C   UNL d   1     -45.519  13.114  23.047  0.00  0.00     0.123 C 
BRANCH   7   8
ATOM      8  C   UNL d   1     -45.437  12.454  22.561  0.00  0.00     0.216 C 
ATOM      9  O   UNL d   1     -45.730  12.469  21.790  0.00  0.00    -0.285 OA
BRANCH   8  10
ATOM     10  C   UNL d   1     -45.059  11.771  22.846  0.00  0.00     0.080 A 
ATOM     11  C   UNL d   1     -44.271  11.646  22.695  0.00  0.00     0.202 A 
ATOM     12  C   UNL d   1     -43.897  10.973  22.975  0.00  0.00     0.078 A 
ATOM     13  O   UNL d   1     -43.846  12.201  22.257  0.00  0.00    -0.286 OA
ATOM     14  C   UNL d   1     -43.095  10.851  22.818  0.00  0.00     0.007 C 
ATOM     15  C   UNL d   1     -44.321  10.410  23.418  0.00  0.00     0.199 A 
ATOM     16  C   UNL d   1     -45.127  10.540  23.571  0.00  0.00     0.042 A 
ATOM     17  O   UNL d   1     -43.946   9.738  23.697  0.00  0.00    -0.286 OA
ATOM     18  C   UNL d   1     -45.499  11.218  23.287  0.00  0.00     0.010 A 
ENDBRANCH   8  10
ENDBRANCH   7   8
ENDBRANCH   1   7
BRANCH   2  19
ATOM     19  C   UNL d   1     -48.225  15.009  22.857  0.00  0.00     0.080 C 
BRANCH  19  20
ATOM     20  C   UNL d   1     -48.956  14.666  22.686  0.00  0.00     0.020 A 
ATOM     21  C   UNL d   1     -49.074  14.283  21.964  0.00  0.00     0.028 A 
ATOM     22  C   UNL d   1     -49.802  13.943  21.798  0.00  0.00     0.119 A 
ATOM     23  O   UNL d   1     -50.074  13.534  21.137  0.00  0.00    -0.300 OA
ATOM     24  C   UNL d   1     -50.412  13.985  22.350  0.00  0.00     0.119 A 
ATOM     25  C   UNL d   1     -50.856  13.316  21.271  0.00  0.00     0.304 A 
ATOM     26  O   UNL d   1     -51.064  13.596  22.024  0.00  0.00    -0.300 OA
ATOM     27  C   UNL d   1     -50.297  14.366  23.071  0.00  0.00     0.026 A 
ATOM     28  C   UNL d   1     -49.559  14.708  23.235  0.00  0.00     0.004 A 
ENDBRANCH  19  20
ENDBRANCH   2  19
TORSDOF 5
ENDMDL
MODEL 6
REMARK VINA RESULT:      -5.3      8.487     10.091
REMARK  5 active torsions:
REMARK  status: ('A' for Active; 'I' for Inactive)
REMARK    1  A    between atoms: C_4  and  C_1 
REMARK    2  A    between atoms: C_9  and  C_4 
REMARK    3  A    between atoms: N_5  and  C_9 
REMARK    4  A    between atoms: C_19  and  N_6 
REMARK    5  A    between atoms: C_18  and  C_19 
ROOT
ATOM      1  N   UNL d   1     -40.426  15.132  19.717  0.00  0.00    -0.297 N 
ATOM      2  N   UNL d   1     -40.552  15.172  18.065  0.00  0.00    -0.300 N 
ATOM      3  C   UNL d   1     -40.224  15.808  19.300  0.00  0.00     0.100 A 
ATOM      4  C   UNL d   1     -40.697  14.460  19.306  0.00  0.00     0.100 A 
ATOM      5  C   UNL d   1     -40.757  14.490  18.479  0.00  0.00     0.100 A 
ATOM      6  C   UNL d   1     -40.283  15.837  18.472  0.00  0.00     0.100 A 
ENDROOT
BRANCH   1   7
ATOM      7  C   UNL d   1     -40.366  15.107  20.537  0.00  0.00     0.123 C 
BRANCH   7   8
ATOM      8  C   UNL d   1     -39.831  14.597  20.901  0.00  0.00     0.216 C 
ATOM      9  O   UNL d   1     -39.672  13.859  20.569  0.00  0.00    -0.285 OA
BRANCH   8  10
ATOM     10  C   UNL d   1     -39.449  14.824  21.604  0.00  0.00     0.080 A 
ATOM     11  C   UNL d   1     -39.245  14.267  22.157  0.00  0.00     0.202 A 
ATOM     12  C   UNL d   1     -38.869  14.488  22.851  0.00  0.00     0.078 A 
ATOM     13  O   UNL d   1     -39.418  13.472  22.019  0.00  0.00    -0.286 OA
ATOM     14  C   UNL d   1     -38.663  13.917  23.411  0.00  0.00     0.007 C 
ATOM     15  C   UNL d   1     -38.692  15.290  22.994  0.00  0.00     0.199 A 
ATOM     16  C   UNL d   1     -38.902  15.858  22.427  0.00  0.00     0.042 A 
ATOM     17  O   UNL d   1     -38.317  15.510  23.687  0.00  0.00    -0.286 OA
ATOM     18  C   UNL d   1     -39.280  15.630  21.732  0.00  0.00     0.010 A 
ENDBRANCH   8  10
ENDBRANCH   7   8
ENDBRANCH   1   7
BRANCH   2  19
ATOM     19  C   UNL d   1     -40.613  15.196  17.239  0.00  0.00     0.080 C 
BRANCH  19  20
ATOM     20  C   UNL d   1     -39.930  15.170  16.777  0.00  0.00     0.020 A 
ATOM     21  C   UNL d   1     -39.736  14.480  16.366  0.00  0.00     0.028 A 
ATOM     22  C   UNL d   1     -39.056  14.457  15.907  0.00  0.00     0.119 A 
ATOM     23  O   UNL d   1     -38.730  13.858  15.446  0.00  0.00    -0.300 OA
ATOM     24  C   UNL d   1     -38.570  15.120  15.857  0.00  0.00     0.119 A 
ATOM     25  C   UNL d   1     -38.037  14.141  15.104  0.00  0.00     0.304 A 
ATOM     26  O   UNL d   1     -37.939  14.925  15.360  0.00  0.00    -0.300 OA
ATOM     27  C   UNL d   1     -38.762  15.810  16.266  0.00  0.00     0.026 A 
ATOM     28  C   UNL d   1     -39.450  15.828  16.728  0.00  0.00     0.004 A 
ENDBRANCH  19  20
ENDBRANCH   2  19
TORSDOF 5
ENDMDL
MODEL 7
REMARK VINA RESULT:      -4.3      4.120      7.740
REMARK  5 active torsions:
REMARK  status: ('A' for Active; 'I' for Inactive)
REMARK    1  A    between atoms: C_4  and  C_1 
REMARK    2  A    between atoms: C_9  and  C_4 
REMARK    3  A    between atoms: N_5  and  C_9 
REMARK    4  A    between atoms: C_19  and  N_6 
REMARK    5  A    between atoms: C_18  and  C_19 
ROOT
ATOM      1  N   UNL d   1     -42.023  13.762  21.226  0.00  0.00    -0.297 N 
ATOM      2  N   UNL d   1     -40.869  14.469  20.269  0.00  0.00    -0.300 N 
ATOM      3  C   UNL d   1     -41.429  13.310  20.887  0.00  0.00     0.100 A 
ATOM      4  C   UNL d   1     -42.045  14.583  21.088  0.00  0.00     0.100 A 
ATOM      5  C   UNL d   1     -41.463  14.928  20.607  0.00  0.00     0.100 A 
ATOM      6  C   UNL d   1     -40.847  13.655  20.406  0.00  0.00     0.100 A 
ENDROOT
BRANCH   1   7
ATOM      7  C   UNL d   1     -42.598  13.416  21.702  0.00  0.00     0.123 C 
BRANCH   7   8
ATOM      8  C   UNL d   1     -43.195  12.957  21.368  0.00  0.00     0.216 C 
ATOM      9  O   UNL d   1     -43.089  12.618  20.623  0.00  0.00    -0.285 OA
BRANCH   8  10
ATOM     10  C   UNL d   1     -43.907  12.835  21.779  0.00  0.00     0.080 A 
ATOM     11  C   UNL d   1     -44.012  12.165  22.226  0.00  0.00     0.202 A 
ATOM     12  C   UNL d   1     -44.712  12.042  22.632  0.00  0.00     0.078 A 
ATOM     13  O   UNL d   1     -43.408  11.604  22.269  0.00  0.00    -0.286 OA
ATOM     14  C   UNL d   1     -44.813  11.358  23.085  0.00  0.00     0.007 C 
ATOM     15  C   UNL d   1     -45.325  12.605  22.592  0.00  0.00     0.199 A 
ATOM     16  C   UNL d   1     -45.215  13.290  22.135  0.00  0.00     0.042 A 
ATOM     17  O   UNL d   1     -46.025  12.482  22.999  0.00  0.00    -0.286 OA
ATOM     18  C   UNL d   1     -44.509  13.408  21.728  0.00  0.00     0.010 A 
ENDBRANCH   8  10
ENDBRANCH   7   8
ENDBRANCH   1   7
BRANCH   2  19
ATOM     19  C   UNL d   1     -40.290  14.817  19.790  0.00  0.00     0.080 C 
BRANCH  19  20
ATOM     20  C   UNL d   1     -40.389  14.830  18.971  0.00  0.00     0.020 A 
ATOM     21  C   UNL d   1     -40.860  15.411  18.620  0.00  0.00     0.028 A 
ATOM     22  C   UNL d   1     -40.955  15.420  17.805  0.00  0.00     0.119 A 
ATOM     23  O   UNL d   1     -41.383  15.922  17.312  0.00  0.00    -0.300 OA
ATOM     24  C   UNL d   1     -40.583  14.851  17.340  0.00  0.00     0.119 A 
ATOM     25  C   UNL d   1     -41.282  15.672  16.535  0.00  0.00     0.304 A 
ATOM     26  O   UNL d   1     -40.785  15.007  16.554  0.00  0.00    -0.300 OA
ATOM     27  C   UNL d   1     -40.113  14.270  17.687  0.00  0.00     0.026 A 
ATOM     28  C   UNL d   1     -40.019  14.265  18.511  0.00  0.00     0.004 A 
ENDBRANCH  19  20
ENDBRANCH   2  19
TORSDOF 5
ENDMDL
