MODEL 1
REMARK VINA RESULT:       9.3      0.000      0.000
REMARK  6 active torsions:
REMARK  status: ('A' for Active; 'I' for Inactive)
REMARK    1  A    between atoms: C_7  and  N_1 
REMARK    2  A    between atoms: C_9  and  C_7 
REMARK    3  A    between atoms: C_10  and  C_9 
REMARK       I    between atoms: N_13  and  C_10 
REMARK    4  A    between atoms: C_15  and  N_13 
REMARK    5  A    between atoms: C_18  and  C_15 
REMARK    6  A    between atoms: C_17  and  C_18 
ROOT
ATOM      1  C   UNL d   1      46.394 -17.514  44.211  0.00  0.00     0.090 C 
ENDROOT
BRANCH   1   2
ATOM      2  N   UNL d   1      46.436 -18.211  43.758  0.00  0.00    -0.249 N 
ATOM      3  C   UNL d   1      46.420 -18.939  44.129  0.00  0.00     0.208 A 
ATOM      4  N   UNL d   1      46.461 -19.637  43.690  0.00  0.00    -0.218 NA
ATOM      5  S   UNL d   1      46.361 -18.986  44.952  0.00  0.00    -0.038 SA
ATOM      6  C   UNL d   1      46.520 -19.586  42.865  0.00  0.00     0.088 A 
ATOM      7  C   UNL d   1      46.537 -18.853  42.491  0.00  0.00     0.074 A 
ATOM      8  C   UNL d   1      46.562 -20.278  42.417  0.00  0.00     0.019 A 
ATOM      9  C   UNL d   1      46.495 -18.162  42.940  0.00  0.00     0.268 A 
ATOM     10  C   UNL d   1      46.596 -18.808  41.670  0.00  0.00     0.006 A 
ATOM     11  O   UNL d   1      46.511 -17.426  42.568  0.00  0.00    -0.267 OA
ATOM     12  C   UNL d   1      46.638 -19.499  41.221  0.00  0.00     0.000 A 
ATOM     13  C   UNL d   1      46.621 -20.232  41.589  0.00  0.00     0.002 A 
ENDBRANCH   1   2
BRANCH   1  14
ATOM     14  C   UNL d   1      45.924 -16.892  43.953  0.00  0.00     0.082 C 
BRANCH  14  15
ATOM     15  C   UNL d   1      45.914 -16.177  44.373  0.00  0.00     0.281 C 
ATOM     16  O   UNL d   1      46.479 -16.044  44.954  0.00  0.00    -0.265 OA
ATOM     17  N   UNL d   1      45.341 -15.616  44.202  0.00  0.00    -0.206 NA
BRANCH  17  18
ATOM     18  C   UNL d   1      45.331 -14.894  44.625  0.00  0.00     0.102 C 
BRANCH  18  19
ATOM     19  C   UNL d   1      45.845 -14.288  44.432  0.00  0.00     0.021 C 
BRANCH  19  20
ATOM     20  C   UNL d   1      45.569 -13.590  44.139  0.00  0.00     0.002 A 
ATOM     21  C   UNL d   1      45.873 -12.864  44.405  0.00  0.00     0.000 A 
ATOM     22  C   UNL d   1      45.589 -12.148  44.104  0.00  0.00     0.000 A 
ATOM     23  C   UNL d   1      44.997 -12.128  43.532  0.00  0.00     0.000 A 
ATOM     24  C   UNL d   1      44.694 -12.857  43.267  0.00  0.00     0.000 A 
ATOM     25  C   UNL d   1      44.971 -13.581  43.562  0.00  0.00     0.000 A 
ENDBRANCH  19  20
ENDBRANCH  18  19
ENDBRANCH  17  18
ENDBRANCH  14  15
ENDBRANCH   1  14
TORSDOF 6
ENDMDL
