MODEL 1
REMARK VINA RESULT:      -7.6      0.000      0.000
REMARK  5 active torsions:
REMARK  status: ('A' for Active; 'I' for Inactive)
REMARK    1  A    between atoms: C_20  and  C_3 
REMARK    2  A    between atoms: C_6  and  C_8 
REMARK       I    between atoms: C_8  and  N_17 
REMARK    3  A    between atoms: N_17  and  C_21 
REMARK    4  A    between atoms: O_22  and  C_18 
REMARK    5  A    between atoms: C_21  and  C_20 
ROOT
ATOM      1  N   UNL d   1     -45.412  12.751  22.761  0.00  0.00    -0.208 NA
ATOM      2  C   UNL d   1     -45.932  13.389  22.698  0.00  0.00     0.279 A 
ATOM      3  C   UNL d   1     -46.722  13.309  22.949  0.00  0.00     0.059 A 
ATOM      4  C   UNL d   1     -45.681  12.027  23.076  0.00  0.00     0.087 A 
ATOM      5  C   UNL d   1     -46.984  12.590  23.261  0.00  0.00     0.006 A 
ATOM      6  C   UNL d   1     -46.465  11.955  23.323  0.00  0.00     0.018 A 
ATOM      7  C   UNL d   1     -45.154  11.393  23.136  0.00  0.00     0.043 A 
ATOM      8  O   UNL d   1     -45.670  14.105  22.387  0.00  0.00    -0.265 OA
ATOM      9  C   UNL d   1     -46.726  11.232  23.636  0.00  0.00     0.004 A 
ATOM     10  C   UNL d   1     -45.417  10.678  23.447  0.00  0.00     0.096 A 
ATOM     11  C   UNL d   1     -46.207  10.597  23.698  0.00  0.00     0.024 A 
ENDROOT
BRANCH   3  12
ATOM     12  C   UNL d   1     -47.234  13.945  22.885  0.00  0.00     0.026 C 
BRANCH  12  13
ATOM     13  C   UNL d   1     -48.029  13.830  22.721  0.00  0.00     0.102 C 
BRANCH  13  14
ATOM     14  N   UNL d   1     -48.609  14.304  23.068  0.00  0.00    -0.206 NA
ATOM     15  C   UNL d   1     -49.346  14.391  22.709  0.00  0.00     0.285 C 
ATOM     16  O   UNL d   1     -49.511  14.008  22.003  0.00  0.00    -0.265 OA
BRANCH  15  17
ATOM     17  C   UNL d   1     -49.921  14.867  23.064  0.00  0.00     0.087 A 
ATOM     18  S   UNL d   1     -50.667  14.627  23.294  0.00  0.00    -0.082 SA
ATOM     19  C   UNL d   1     -51.060  15.258  23.619  0.00  0.00     0.036 A 
ATOM     20  C   UNL d   1     -50.551  15.911  23.593  0.00  0.00     0.008 A 
ATOM     21  C   UNL d   1     -49.843  15.667  23.248  0.00  0.00     0.012 A 
ENDBRANCH  15  17
ENDBRANCH  13  14
ENDBRANCH  12  13
ENDBRANCH   3  12
BRANCH  10  22
ATOM     22  O   UNL d   1     -44.898  10.042  23.509  0.00  0.00    -0.328 OA
ATOM     23  C   UNL d   1     -44.089  10.161  23.415  0.00  0.00     0.181 C 
ENDBRANCH  10  22
TORSDOF 5
ENDMDL
MODEL 2
REMARK VINA RESULT:      -7.3      1.972      5.488
REMARK  5 active torsions:
REMARK  status: ('A' for Active; 'I' for Inactive)
REMARK    1  A    between atoms: C_20  and  C_3 
REMARK    2  A    between atoms: C_6  and  C_8 
REMARK       I    between atoms: C_8  and  N_17 
REMARK    3  A    between atoms: N_17  and  C_21 
REMARK    4  A    between atoms: O_22  and  C_18 
REMARK    5  A    between atoms: C_21  and  C_20 
ROOT
ATOM      1  N   UNL d   1     -49.370  12.624  23.269  0.00  0.00    -0.208 NA
ATOM      2  C   UNL d   1     -48.777  12.067  23.414  0.00  0.00     0.279 A 
ATOM      3  C   UNL d   1     -47.977  12.297  23.396  0.00  0.00     0.059 A 
ATOM      4  C   UNL d   1     -49.163  13.415  23.104  0.00  0.00     0.087 A 
ATOM      5  C   UNL d   1     -47.777  13.081  23.232  0.00  0.00     0.006 A 
ATOM      6  C   UNL d   1     -48.368  13.635  23.088  0.00  0.00     0.018 A 
ATOM      7  C   UNL d   1     -49.762  13.966  22.959  0.00  0.00     0.043 A 
ATOM      8  O   UNL d   1     -48.978  11.286  23.577  0.00  0.00    -0.265 OA
ATOM      9  C   UNL d   1     -48.170  14.423  22.923  0.00  0.00     0.004 A 
ATOM     10  C   UNL d   1     -49.562  14.747  22.797  0.00  0.00     0.096 A 
ATOM     11  C   UNL d   1     -48.761  14.977  22.778  0.00  0.00     0.024 A 
ENDROOT
BRANCH   3  12
ATOM     12  C   UNL d   1     -47.394  11.741  23.541  0.00  0.00     0.026 C 
BRANCH  12  13
ATOM     13  C   UNL d   1     -46.602  11.923  23.429  0.00  0.00     0.102 C 
BRANCH  13  14
ATOM     14  N   UNL d   1     -46.014  11.352  23.530  0.00  0.00    -0.206 NA
ATOM     15  C   UNL d   1     -45.249  11.488  23.253  0.00  0.00     0.285 C 
ATOM     16  O   UNL d   1     -45.065  12.191  22.873  0.00  0.00    -0.265 OA
BRANCH  15  17
ATOM     17  C   UNL d   1     -44.667  10.911  23.359  0.00  0.00     0.087 A 
ATOM     18  S   UNL d   1     -44.777  10.175  23.696  0.00  0.00    -0.082 SA
ATOM     19  C   UNL d   1     -44.072   9.776  23.698  0.00  0.00     0.036 A 
ATOM     20  C   UNL d   1     -43.502  10.271  23.354  0.00  0.00     0.008 A 
ATOM     21  C   UNL d   1     -43.874  10.975  23.144  0.00  0.00     0.012 A 
ENDBRANCH  15  17
ENDBRANCH  13  14
ENDBRANCH  12  13
ENDBRANCH   3  12
BRANCH  10  22
ATOM     22  O   UNL d   1     -50.153  15.301  22.652  0.00  0.00    -0.328 OA
ATOM     23  C   UNL d   1     -50.519  15.685  23.281  0.00  0.00     0.181 C 
ENDBRANCH  10  22
TORSDOF 5
ENDMDL
MODEL 3
REMARK VINA RESULT:      -6.9      1.299      1.856
REMARK  5 active torsions:
REMARK  status: ('A' for Active; 'I' for Inactive)
REMARK    1  A    between atoms: C_20  and  C_3 
REMARK    2  A    between atoms: C_6  and  C_8 
REMARK       I    between atoms: C_8  and  N_17 
REMARK    3  A    between atoms: N_17  and  C_21 
REMARK    4  A    between atoms: O_22  and  C_18 
REMARK    5  A    between atoms: C_21  and  C_20 
ROOT
ATOM      1  N   UNL d   1     -45.881  11.842  23.046  0.00  0.00    -0.208 NA
ATOM      2  C   UNL d   1     -46.634  12.078  23.288  0.00  0.00     0.279 A 
ATOM      3  C   UNL d   1     -46.903  12.848  23.117  0.00  0.00     0.059 A 
ATOM      4  C   UNL d   1     -45.392  12.375  22.631  0.00  0.00     0.087 A 
ATOM      5  C   UNL d   1     -46.416  13.373  22.706  0.00  0.00     0.006 A 
ATOM      6  C   UNL d   1     -45.666  13.135  22.465  0.00  0.00     0.018 A 
ATOM      7  C   UNL d   1     -44.640  12.130  22.393  0.00  0.00     0.043 A 
ATOM      8  O   UNL d   1     -47.119  11.555  23.698  0.00  0.00    -0.265 OA
ATOM      9  C   UNL d   1     -45.174  13.661  22.052  0.00  0.00     0.004 A 
ATOM     10  C   UNL d   1     -44.156  12.653  21.983  0.00  0.00     0.096 A 
ATOM     11  C   UNL d   1     -44.424  13.423  21.812  0.00  0.00     0.024 A 
ENDROOT
BRANCH   3  12
ATOM     12  C   UNL d   1     -47.651  13.078  23.359  0.00  0.00     0.026 C 
BRANCH  12  13
ATOM     13  C   UNL d   1     -48.100  13.592  22.906  0.00  0.00     0.102 C 
BRANCH  13  14
ATOM     14  N   UNL d   1     -48.682  14.066  23.248  0.00  0.00    -0.206 NA
ATOM     15  C   UNL d   1     -49.267  14.413  22.780  0.00  0.00     0.285 C 
ATOM     16  O   UNL d   1     -49.275  14.290  21.969  0.00  0.00    -0.265 OA
BRANCH  15  17
ATOM     17  C   UNL d   1     -49.846  14.886  23.132  0.00  0.00     0.087 A 
ATOM     18  S   UNL d   1     -50.604  14.651  23.328  0.00  0.00    -0.082 SA
ATOM     19  C   UNL d   1     -50.997  15.276  23.661  0.00  0.00     0.036 A 
ATOM     20  C   UNL d   1     -50.477  15.922  23.677  0.00  0.00     0.008 A 
ATOM     21  C   UNL d   1     -49.762  15.678  23.348  0.00  0.00     0.012 A 
ENDBRANCH  15  17
ENDBRANCH  13  14
ENDBRANCH  12  13
ENDBRANCH   3  12
BRANCH  10  22
ATOM     22  O   UNL d   1     -43.405  12.416  21.742  0.00  0.00    -0.328 OA
ATOM     23  C   UNL d   1     -42.928  12.933  21.315  0.00  0.00     0.181 C 
ENDBRANCH  10  22
TORSDOF 5
ENDMDL
MODEL 4
REMARK VINA RESULT:      -5.9      2.455      5.032
REMARK  5 active torsions:
REMARK  status: ('A' for Active; 'I' for Inactive)
REMARK    1  A    between atoms: C_20  and  C_3 
REMARK    2  A    between atoms: C_6  and  C_8 
REMARK       I    between atoms: C_8  and  N_17 
REMARK    3  A    between atoms: N_17  and  C_21 
REMARK    4  A    between atoms: O_22  and  C_18 
REMARK    5  A    between atoms: C_21  and  C_20 
ROOT
ATOM      1  N   UNL d   1     -48.437  14.457  22.896  0.00  0.00    -0.208 NA
ATOM      2  C   UNL d   1     -47.623  14.521  22.772  0.00  0.00     0.279 A 
ATOM      3  C   UNL d   1     -47.144  13.840  22.802  0.00  0.00     0.059 A 
ATOM      4  C   UNL d   1     -48.776  13.711  23.050  0.00  0.00     0.087 A 
ATOM      5  C   UNL d   1     -47.484  13.103  22.954  0.00  0.00     0.006 A 
ATOM      6  C   UNL d   1     -48.295  13.041  23.078  0.00  0.00     0.018 A 
ATOM      7  C   UNL d   1     -49.592  13.656  23.173  0.00  0.00     0.043 A 
ATOM      8  O   UNL d   1     -47.286  15.256  22.620  0.00  0.00    -0.265 OA
ATOM      9  C   UNL d   1     -48.639  12.302  23.231  0.00  0.00     0.004 A 
ATOM     10  C   UNL d   1     -49.929  12.921  23.325  0.00  0.00     0.096 A 
ATOM     11  C   UNL d   1     -49.450  12.241  23.354  0.00  0.00     0.024 A 
ENDROOT
BRANCH   3  12
ATOM     12  C   UNL d   1     -46.337  13.908  22.678  0.00  0.00     0.026 C 
BRANCH  12  13
ATOM     13  C   UNL d   1     -45.880  13.248  22.515  0.00  0.00     0.102 C 
BRANCH  13  14
ATOM     14  N   UNL d   1     -45.146  13.318  22.143  0.00  0.00    -0.206 NA
ATOM     15  C   UNL d   1     -44.598  12.703  22.183  0.00  0.00     0.285 C 
ATOM     16  O   UNL d   1     -44.775  12.015  22.593  0.00  0.00    -0.265 OA
BRANCH  15  17
ATOM     17  C   UNL d   1     -43.866  12.782  21.808  0.00  0.00     0.087 A 
ATOM     18  S   UNL d   1     -43.234  12.269  21.874  0.00  0.00    -0.082 SA
ATOM     19  C   UNL d   1     -42.621  12.542  21.421  0.00  0.00     0.036 A 
ATOM     20  C   UNL d   1     -42.870  13.245  21.058  0.00  0.00     0.008 A 
ATOM     21  C   UNL d   1     -43.644  13.393  21.299  0.00  0.00     0.012 A 
ENDBRANCH  15  17
ENDBRANCH  13  14
ENDBRANCH  12  13
ENDBRANCH   3  12
BRANCH  10  22
ATOM     22  O   UNL d   1     -50.741  12.860  23.448  0.00  0.00    -0.328 OA
ATOM     23  C   UNL d   1     -51.064  12.146  23.697  0.00  0.00     0.181 C 
ENDBRANCH  10  22
TORSDOF 5
ENDMDL
MODEL 5
REMARK VINA RESULT:      -5.5      8.901     10.235
REMARK  5 active torsions:
REMARK  status: ('A' for Active; 'I' for Inactive)
REMARK    1  A    between atoms: C_20  and  C_3 
REMARK    2  A    between atoms: C_6  and  C_8 
REMARK       I    between atoms: C_8  and  N_17 
REMARK    3  A    between atoms: N_17  and  C_21 
REMARK    4  A    between atoms: O_22  and  C_18 
REMARK    5  A    between atoms: C_21  and  C_20 
ROOT
ATOM      1  N   UNL d   1     -39.876  14.711  17.421  0.00  0.00    -0.208 NA
ATOM      2  C   UNL d   1     -40.024  14.645  18.231  0.00  0.00     0.279 A 
ATOM      3  C   UNL d   1     -39.524  14.181  18.708  0.00  0.00     0.059 A 
ATOM      4  C   UNL d   1     -39.226  14.312  17.085  0.00  0.00     0.087 A 
ATOM      5  C   UNL d   1     -38.881  13.788  18.371  0.00  0.00     0.006 A 
ATOM      6  C   UNL d   1     -38.735  13.855  17.564  0.00  0.00     0.018 A 
ATOM      7  C   UNL d   1     -39.085  14.383  16.273  0.00  0.00     0.043 A 
ATOM      8  O   UNL d   1     -40.665  15.037  18.565  0.00  0.00    -0.265 OA
ATOM      9  C   UNL d   1     -38.089  13.461  17.223  0.00  0.00     0.004 A 
ATOM     10  C   UNL d   1     -38.444  13.991  15.939  0.00  0.00     0.096 A 
ATOM     11  C   UNL d   1     -37.944  13.527  16.416  0.00  0.00     0.024 A 
ENDROOT
BRANCH   3  12
ATOM     12  C   UNL d   1     -39.674  14.119  19.511  0.00  0.00     0.026 C 
BRANCH  12  13
ATOM     13  C   UNL d   1     -39.136  14.398  20.063  0.00  0.00     0.102 C 
BRANCH  13  14
ATOM     14  N   UNL d   1     -39.117  14.096  20.831  0.00  0.00    -0.206 NA
ATOM     15  C   UNL d   1     -38.714  14.499  21.427  0.00  0.00     0.285 C 
ATOM     16  O   UNL d   1     -38.329  15.204  21.263  0.00  0.00    -0.265 OA
BRANCH  15  17
ATOM     17  C   UNL d   1     -38.700  14.190  22.193  0.00  0.00     0.087 A 
ATOM     18  S   UNL d   1     -38.618  14.619  22.883  0.00  0.00    -0.082 SA
ATOM     19  C   UNL d   1     -38.632  14.112  23.515  0.00  0.00     0.036 A 
ATOM     20  C   UNL d   1     -38.725  13.343  23.218  0.00  0.00     0.008 A 
ATOM     21  C   UNL d   1     -38.767  13.393  22.397  0.00  0.00     0.012 A 
ENDBRANCH  15  17
ENDBRANCH  13  14
ENDBRANCH  12  13
ENDBRANCH   3  12
BRANCH  10  22
ATOM     22  O   UNL d   1     -38.298  14.057  15.131  0.00  0.00    -0.328 OA
ATOM     23  C   UNL d   1     -37.942  13.436  14.726  0.00  0.00     0.181 C 
ENDBRANCH  10  22
TORSDOF 5
ENDMDL
MODEL 6
REMARK VINA RESULT:      -5.4      3.999      6.228
REMARK  5 active torsions:
REMARK  status: ('A' for Active; 'I' for Inactive)
REMARK    1  A    between atoms: C_20  and  C_3 
REMARK    2  A    between atoms: C_6  and  C_8 
REMARK       I    between atoms: C_8  and  N_17 
REMARK    3  A    between atoms: N_17  and  C_21 
REMARK    4  A    between atoms: O_22  and  C_18 
REMARK    5  A    between atoms: C_21  and  C_20 
ROOT
ATOM      1  N   UNL d   1     -44.634  11.918  22.787  0.00  0.00    -0.208 NA
ATOM      2  C   UNL d   1     -43.940  12.005  22.347  0.00  0.00     0.279 A 
ATOM      3  C   UNL d   1     -43.861  12.645  21.820  0.00  0.00     0.059 A 
ATOM      4  C   UNL d   1     -45.252  12.470  22.701  0.00  0.00     0.087 A 
ATOM      5  C   UNL d   1     -44.476  13.190  21.738  0.00  0.00     0.006 A 
ATOM      6  C   UNL d   1     -45.166  13.101  22.177  0.00  0.00     0.018 A 
ATOM      7  C   UNL d   1     -45.942  12.375  23.146  0.00  0.00     0.043 A 
ATOM      8  O   UNL d   1     -43.329  11.461  22.430  0.00  0.00    -0.265 OA
ATOM      9  C   UNL d   1     -45.785  13.648  22.096  0.00  0.00     0.004 A 
ATOM     10  C   UNL d   1     -46.554  12.920  23.063  0.00  0.00     0.096 A 
ATOM     11  C   UNL d   1     -46.475  13.559  22.536  0.00  0.00     0.024 A 
ENDROOT
BRANCH   3  12
ATOM     12  C   UNL d   1     -43.172  12.728  21.385  0.00  0.00     0.026 C 
BRANCH  12  13
ATOM     13  C   UNL d   1     -42.806  13.457  21.311  0.00  0.00     0.102 C 
BRANCH  13  14
ATOM     14  N   UNL d   1     -42.024  13.519  21.055  0.00  0.00    -0.206 NA
ATOM     15  C   UNL d   1     -41.674  14.260  20.960  0.00  0.00     0.285 C 
ATOM     16  O   UNL d   1     -42.099  14.943  21.119  0.00  0.00    -0.265 OA
BRANCH  15  17
ATOM     17  C   UNL d   1     -40.890  14.312  20.702  0.00  0.00     0.087 A 
ATOM     18  S   UNL d   1     -40.645  14.470  19.939  0.00  0.00    -0.082 SA
ATOM     19  C   UNL d   1     -39.835  14.473  19.916  0.00  0.00     0.036 A 
ATOM     20  C   UNL d   1     -39.561  14.315  20.682  0.00  0.00     0.008 A 
ATOM     21  C   UNL d   1     -40.218  14.215  21.170  0.00  0.00     0.012 A 
ENDBRANCH  15  17
ENDBRANCH  13  14
ENDBRANCH  12  13
ENDBRANCH   3  12
BRANCH  10  22
ATOM     22  O   UNL d   1     -47.245  12.831  23.502  0.00  0.00    -0.328 OA
ATOM     23  C   UNL d   1     -47.955  12.665  23.122  0.00  0.00     0.181 C 
ENDBRANCH  10  22
TORSDOF 5
ENDMDL
MODEL 7
REMARK VINA RESULT:      -4.9      2.836      5.507
REMARK  5 active torsions:
REMARK  status: ('A' for Active; 'I' for Inactive)
REMARK    1  A    between atoms: C_20  and  C_3 
REMARK    2  A    between atoms: C_6  and  C_8 
REMARK       I    between atoms: C_8  and  N_17 
REMARK    3  A    between atoms: N_17  and  C_21 
REMARK    4  A    between atoms: O_22  and  C_18 
REMARK    5  A    between atoms: C_21  and  C_20 
ROOT
ATOM      1  N   UNL d   1     -47.209  12.715  23.377  0.00  0.00    -0.208 NA
ATOM      2  C   UNL d   1     -46.404  12.576  23.255  0.00  0.00     0.279 A 
ATOM      3  C   UNL d   1     -45.944  13.135  22.843  0.00  0.00     0.059 A 
ATOM      4  C   UNL d   1     -47.558  13.415  23.087  0.00  0.00     0.087 A 
ATOM      5  C   UNL d   1     -46.294  13.827  22.557  0.00  0.00     0.006 A 
ATOM      6  C   UNL d   1     -47.095  13.963  22.680  0.00  0.00     0.018 A 
ATOM      7  C   UNL d   1     -48.364  13.546  23.214  0.00  0.00     0.043 A 
ATOM      8  O   UNL d   1     -46.057  11.887  23.540  0.00  0.00    -0.265 OA
ATOM      9  C   UNL d   1     -47.448  14.658  22.394  0.00  0.00     0.004 A 
ATOM     10  C   UNL d   1     -48.710  14.236  22.929  0.00  0.00     0.096 A 
ATOM     11  C   UNL d   1     -48.250  14.794  22.517  0.00  0.00     0.024 A 
ENDROOT
BRANCH   3  12
ATOM     12  C   UNL d   1     -45.146  12.993  22.724  0.00  0.00     0.026 C 
BRANCH  12  13
ATOM     13  C   UNL d   1     -44.808  13.088  21.983  0.00  0.00     0.102 C 
BRANCH  13  14
ATOM     14  N   UNL d   1     -44.033  13.359  21.900  0.00  0.00    -0.206 NA
ATOM     15  C   UNL d   1     -43.561  13.088  21.279  0.00  0.00     0.285 C 
ATOM     16  O   UNL d   1     -43.857  12.546  20.740  0.00  0.00    -0.265 OA
BRANCH  15  17
ATOM     17  C   UNL d   1     -42.786  13.365  21.204  0.00  0.00     0.087 A 
ATOM     18  S   UNL d   1     -42.106  12.935  21.349  0.00  0.00    -0.082 SA
ATOM     19  C   UNL d   1     -41.461  13.405  21.210  0.00  0.00     0.036 A 
ATOM     20  C   UNL d   1     -41.738  14.150  20.972  0.00  0.00     0.008 A 
ATOM     21  C   UNL d   1     -42.562  14.123  20.968  0.00  0.00     0.012 A 
ENDBRANCH  15  17
ENDBRANCH  13  14
ENDBRANCH  12  13
ENDBRANCH   3  12
BRANCH  10  22
ATOM     22  O   UNL d   1     -49.513  14.373  23.052  0.00  0.00    -0.328 OA
ATOM     23  C   UNL d   1     -49.833  15.113  22.888  0.00  0.00     0.181 C 
ENDBRANCH  10  22
TORSDOF 5
ENDMDL
MODEL 8
REMARK VINA RESULT:      -4.6      8.969     10.025
REMARK  5 active torsions:
REMARK  status: ('A' for Active; 'I' for Inactive)
REMARK    1  A    between atoms: C_20  and  C_3 
REMARK    2  A    between atoms: C_6  and  C_8 
REMARK       I    between atoms: C_8  and  N_17 
REMARK    3  A    between atoms: N_17  and  C_21 
REMARK    4  A    between atoms: O_22  and  C_18 
REMARK    5  A    between atoms: C_21  and  C_20 
ROOT
ATOM      1  N   UNL d   1     -39.498  14.105  17.345  0.00  0.00    -0.208 NA
ATOM      2  C   UNL d   1     -39.088  13.767  17.978  0.00  0.00     0.279 A 
ATOM      3  C   UNL d   1     -39.258  14.004  18.758  0.00  0.00     0.059 A 
ATOM      4  C   UNL d   1     -40.081  14.682  17.490  0.00  0.00     0.087 A 
ATOM      5  C   UNL d   1     -39.837  14.577  18.897  0.00  0.00     0.006 A 
ATOM      6  C   UNL d   1     -40.245  14.912  18.266  0.00  0.00     0.018 A 
ATOM      7  C   UNL d   1     -40.487  15.015  16.852  0.00  0.00     0.043 A 
ATOM      8  O   UNL d   1     -38.511  13.197  17.837  0.00  0.00    -0.265 OA
ATOM      9  C   UNL d   1     -40.826  15.487  18.403  0.00  0.00     0.004 A 
ATOM     10  C   UNL d   1     -41.063  15.585  16.992  0.00  0.00     0.096 A 
ATOM     11  C   UNL d   1     -41.234  15.822  17.772  0.00  0.00     0.024 A 
ENDROOT
BRANCH   3  12
ATOM     12  C   UNL d   1     -38.849  13.667  19.381  0.00  0.00     0.026 C 
BRANCH  12  13
ATOM     13  C   UNL d   1     -38.578  14.126  20.004  0.00  0.00     0.102 C 
BRANCH  13  14
ATOM     14  N   UNL d   1     -38.489  13.809  20.761  0.00  0.00    -0.206 NA
ATOM     15  C   UNL d   1     -38.351  14.304  21.407  0.00  0.00     0.285 C 
ATOM     16  O   UNL d   1     -38.302  15.116  21.303  0.00  0.00    -0.265 OA
BRANCH  15  17
ATOM     17  C   UNL d   1     -38.263  13.978  22.161  0.00  0.00     0.087 A 
ATOM     18  S   UNL d   1     -38.196  13.182  22.335  0.00  0.00    -0.082 SA
ATOM     19  C   UNL d   1     -38.119  13.092  23.136  0.00  0.00     0.036 A 
ATOM     20  C   UNL d   1     -38.138  13.847  23.478  0.00  0.00     0.008 A 
ATOM     21  C   UNL d   1     -38.227  14.396  22.871  0.00  0.00     0.012 A 
ENDBRANCH  15  17
ENDBRANCH  13  14
ENDBRANCH  12  13
ENDBRANCH   3  12
BRANCH  10  22
ATOM     22  O   UNL d   1     -41.471  15.921  16.360  0.00  0.00    -0.328 OA
ATOM     23  C   UNL d   1     -42.037  15.481  15.957  0.00  0.00     0.181 C 
ENDBRANCH  10  22
TORSDOF 5
ENDMDL
