MODEL 1
REMARK VINA RESULT:     -13.2      0.000      0.000
REMARK  1 active torsions:
REMARK  status: ('A' for Active; 'I' for Inactive)
REMARK    1  A    between atoms: C_14  and  C_5 
ROOT
ATOM      1  C   UNL d   1      53.432  33.558  54.293  0.00  0.00     0.111 A 
ATOM      2  C   UNL d   1      53.097  32.328  53.621  0.00  0.00     0.062 A 
ATOM      3  C   UNL d   1      54.042  33.098  54.736  0.00  0.00     0.213 A 
ATOM      4  C   UNL d   1      53.655  31.928  54.030  0.00  0.00     0.101 A 
ATOM      5  C   UNL d   1      52.985  33.146  53.752  0.00  0.00     0.018 A 
ATOM      6  O   UNL d   1      54.126  32.313  54.586  0.00  0.00    -0.288 OA
ATOM      7  C   UNL d   1      52.619  31.943  53.057  0.00  0.00     0.194 A 
ATOM      8  C   UNL d   1      53.321  34.366  54.423  0.00  0.00     0.105 C 
ATOM      9  N   UNL d   1      53.194  35.179  54.539  0.00  0.00    -0.191 NA
ATOM     10  C   UNL d   1      53.765  31.121  53.900  0.00  0.00     0.002 A 
ATOM     11  C   UNL d   1      53.319  30.708  53.359  0.00  0.00     0.042 A 
ATOM     12  C   UNL d   1      52.710  31.158  52.916  0.00  0.00     0.019 A 
ATOM     13  O   UNL d   1      52.021  32.376  52.619  0.00  0.00    -0.287 OA
ATOM     14  N   UNL d   1      54.552  33.461  55.322  0.00  0.00    -0.120 N 
ATOM     15  C   UNL d   1      53.724  30.000  53.536  0.00  0.00     0.009 C 
ATOM     16  C   UNL d   1      52.959  30.169  52.863  0.00  0.00     0.009 C 
ENDROOT
BRANCH   5  17
ATOM     17  C   UNL d   1      52.424  33.546  53.339  0.00  0.00     0.001 A 
ATOM     18  C   UNL d   1      51.674  33.562  53.625  0.00  0.00     0.000 A 
ATOM     19  C   UNL d   1      51.075  33.975  53.207  0.00  0.00     0.000 A 
ATOM     20  C   UNL d   1      51.254  34.352  52.522  0.00  0.00     0.000 A 
ATOM     21  C   UNL d   1      52.034  34.332  52.230  0.00  0.00     0.000 A 
ATOM     22  C   UNL d   1      52.622  33.924  52.646  0.00  0.00     0.000 A 
ENDBRANCH   5  17
TORSDOF 1
ENDMDL
MODEL 2
REMARK VINA RESULT:     -13.2      0.916      2.440
REMARK  1 active torsions:
REMARK  status: ('A' for Active; 'I' for Inactive)
REMARK    1  A    between atoms: C_14  and  C_5 
ROOT
ATOM      1  C   UNL d   1      52.825  33.560  53.361  0.00  0.00     0.111 A 
ATOM      2  C   UNL d   1      53.209  32.180  53.519  0.00  0.00     0.062 A 
ATOM      3  C   UNL d   1      52.202  33.277  52.803  0.00  0.00     0.213 A 
ATOM      4  C   UNL d   1      52.639  31.941  53.012  0.00  0.00     0.101 A 
ATOM      5  C   UNL d   1      53.302  32.992  53.694  0.00  0.00     0.018 A 
ATOM      6  O   UNL d   1      52.137  32.489  52.655  0.00  0.00    -0.288 OA
ATOM      7  C   UNL d   1      53.719  31.629  53.882  0.00  0.00     0.194 A 
ATOM      8  C   UNL d   1      52.917  34.362  53.534  0.00  0.00     0.105 C 
ATOM      9  N   UNL d   1      53.027  35.164  53.721  0.00  0.00    -0.191 NA
ATOM     10  C   UNL d   1      52.547  31.141  52.839  0.00  0.00     0.002 A 
ATOM     11  C   UNL d   1      53.024  30.571  53.172  0.00  0.00     0.042 A 
ATOM     12  C   UNL d   1      53.646  30.846  53.727  0.00  0.00     0.019 A 
ATOM     13  O   UNL d   1      54.330  31.890  54.427  0.00  0.00    -0.287 OA
ATOM     14  N   UNL d   1      51.660  33.813  52.412  0.00  0.00    -0.120 N 
ATOM     15  C   UNL d   1      52.622  29.966  52.762  0.00  0.00     0.009 C 
ATOM     16  C   UNL d   1      53.415  29.900  53.421  0.00  0.00     0.009 C 
ENDROOT
BRANCH   5  17
ATOM     17  C   UNL d   1      53.876  33.229  54.204  0.00  0.00     0.001 A 
ATOM     18  C   UNL d   1      54.607  33.391  53.914  0.00  0.00     0.000 A 
ATOM     19  C   UNL d   1      55.218  33.639  54.432  0.00  0.00     0.000 A 
ATOM     20  C   UNL d   1      55.070  33.715  55.217  0.00  0.00     0.000 A 
ATOM     21  C   UNL d   1      54.310  33.547  55.513  0.00  0.00     0.000 A 
ATOM     22  C   UNL d   1      53.710  33.301  54.998  0.00  0.00     0.000 A 
ENDBRANCH   5  17
TORSDOF 1
ENDMDL
MODEL 3
REMARK VINA RESULT:     -11.6      1.455      3.345
REMARK  1 active torsions:
REMARK  status: ('A' for Active; 'I' for Inactive)
REMARK    1  A    between atoms: C_14  and  C_5 
ROOT
ATOM      1  C   UNL d   1      53.218  31.758  53.405  0.00  0.00     0.111 A 
ATOM      2  C   UNL d   1      52.597  33.058  53.368  0.00  0.00     0.062 A 
ATOM      3  C   UNL d   1      52.544  31.471  52.911  0.00  0.00     0.213 A 
ATOM      4  C   UNL d   1      51.995  32.781  52.921  0.00  0.00     0.101 A 
ATOM      5  C   UNL d   1      53.211  32.544  53.611  0.00  0.00     0.018 A 
ATOM      6  O   UNL d   1      51.970  31.989  52.694  0.00  0.00    -0.288 OA
ATOM      7  C   UNL d   1      52.627  33.858  53.601  0.00  0.00     0.194 A 
ATOM      8  C   UNL d   1      53.823  31.251  53.645  0.00  0.00     0.105 C 
ATOM      9  N   UNL d   1      54.443  30.757  53.897  0.00  0.00    -0.191 NA
ATOM     10  C   UNL d   1      51.390  33.288  52.682  0.00  0.00     0.002 A 
ATOM     11  C   UNL d   1      51.382  34.075  52.887  0.00  0.00     0.042 A 
ATOM     12  C   UNL d   1      52.048  34.367  53.378  0.00  0.00     0.019 A 
ATOM     13  O   UNL d   1      53.275  34.152  54.081  0.00  0.00    -0.287 OA
ATOM     14  N   UNL d   1      52.480  30.656  52.653  0.00  0.00    -0.120 N 
ATOM     15  C   UNL d   1      50.666  34.195  52.476  0.00  0.00     0.009 C 
ATOM     16  C   UNL d   1      51.238  34.868  53.011  0.00  0.00     0.009 C 
ENDROOT
BRANCH   5  17
ATOM     17  C   UNL d   1      53.814  32.825  54.060  0.00  0.00     0.001 A 
ATOM     18  C   UNL d   1      53.737  32.816  54.860  0.00  0.00     0.000 A 
ATOM     19  C   UNL d   1      54.357  33.106  55.345  0.00  0.00     0.000 A 
ATOM     20  C   UNL d   1      55.027  33.391  55.008  0.00  0.00     0.000 A 
ATOM     21  C   UNL d   1      55.103  33.398  54.179  0.00  0.00     0.000 A 
ATOM     22  C   UNL d   1      54.488  33.111  53.703  0.00  0.00     0.000 A 
ENDBRANCH   5  17
TORSDOF 1
ENDMDL
MODEL 4
REMARK VINA RESULT:     -10.7      1.147      2.981
REMARK  1 active torsions:
REMARK  status: ('A' for Active; 'I' for Inactive)
REMARK    1  A    between atoms: C_14  and  C_5 
ROOT
ATOM      1  C   UNL d   1      53.378  34.422  54.350  0.00  0.00     0.111 A 
ATOM      2  C   UNL d   1      52.332  33.915  53.499  0.00  0.00     0.062 A 
ATOM      3  C   UNL d   1      52.930  35.183  54.372  0.00  0.00     0.213 A 
ATOM      4  C   UNL d   1      51.939  34.611  53.530  0.00  0.00     0.101 A 
ATOM      5  C   UNL d   1      53.053  33.821  53.910  0.00  0.00     0.018 A 
ATOM      6  O   UNL d   1      52.239  35.243  53.966  0.00  0.00    -0.288 OA
ATOM      7  C   UNL d   1      52.032  33.274  53.059  0.00  0.00     0.194 A 
ATOM      8  C   UNL d   1      54.091  34.329  54.756  0.00  0.00     0.105 C 
ATOM      9  N   UNL d   1      54.809  34.214  55.157  0.00  0.00    -0.191 NA
ATOM     10  C   UNL d   1      51.228  34.704  53.124  0.00  0.00     0.002 A 
ATOM     11  C   UNL d   1      50.902  34.103  52.684  0.00  0.00     0.042 A 
ATOM     12  C   UNL d   1      51.342  33.344  52.657  0.00  0.00     0.019 A 
ATOM     13  O   UNL d   1      52.456  32.527  53.027  0.00  0.00    -0.287 OA
ATOM     14  N   UNL d   1      53.207  35.864  54.813  0.00  0.00    -0.120 N 
ATOM     15  C   UNL d   1      50.254  34.583  52.470  0.00  0.00     0.009 C 
ATOM     16  C   UNL d   1      50.460  33.605  52.212  0.00  0.00     0.009 C 
ENDROOT
BRANCH   5  17
ATOM     17  C   UNL d   1      53.445  33.120  53.877  0.00  0.00     0.001 A 
ATOM     18  C   UNL d   1      53.291  32.565  54.436  0.00  0.00     0.000 A 
ATOM     19  C   UNL d   1      53.691  31.828  54.417  0.00  0.00     0.000 A 
ATOM     20  C   UNL d   1      54.226  31.679  53.839  0.00  0.00     0.000 A 
ATOM     21  C   UNL d   1      54.382  32.258  53.261  0.00  0.00     0.000 A 
ATOM     22  C   UNL d   1      53.986  32.985  53.283  0.00  0.00     0.000 A 
ENDBRANCH   5  17
TORSDOF 1
ENDMDL
MODEL 5
REMARK VINA RESULT:     -10.7      1.479      2.692
REMARK  1 active torsions:
REMARK  status: ('A' for Active; 'I' for Inactive)
REMARK    1  A    between atoms: C_14  and  C_5 
ROOT
ATOM      1  C   UNL d   1      52.997  31.984  53.356  0.00  0.00     0.111 A 
ATOM      2  C   UNL d   1      53.483  33.140  54.067  0.00  0.00     0.062 A 
ATOM      3  C   UNL d   1      53.684  31.543  53.693  0.00  0.00     0.213 A 
ATOM      4  C   UNL d   1      54.099  32.725  54.363  0.00  0.00     0.101 A 
ATOM      5  C   UNL d   1      52.931  32.768  53.562  0.00  0.00     0.018 A 
ATOM      6  O   UNL d   1      54.199  31.928  54.176  0.00  0.00    -0.288 OA
ATOM      7  C   UNL d   1      53.379  33.945  54.253  0.00  0.00     0.194 A 
ATOM      8  C   UNL d   1      52.452  31.617  52.858  0.00  0.00     0.105 C 
ATOM      9  N   UNL d   1      51.891  31.266  52.354  0.00  0.00    -0.191 NA
ATOM     10  C   UNL d   1      54.644  33.092  54.861  0.00  0.00     0.002 A 
ATOM     11  C   UNL d   1      54.578  33.876  55.068  0.00  0.00     0.042 A 
ATOM     12  C   UNL d   1      53.898  34.321  54.736  0.00  0.00     0.019 A 
ATOM     13  O   UNL d   1      52.716  34.388  53.933  0.00  0.00    -0.287 OA
ATOM     14  N   UNL d   1      53.824  30.714  53.524  0.00  0.00    -0.120 N 
ATOM     15  C   UNL d   1      55.268  33.832  55.535  0.00  0.00     0.009 C 
ATOM     16  C   UNL d   1      54.644  34.636  55.358  0.00  0.00     0.009 C 
ENDROOT
BRANCH   5  17
ATOM     17  C   UNL d   1      52.313  33.187  53.266  0.00  0.00     0.001 A 
ATOM     18  C   UNL d   1      52.418  33.601  52.585  0.00  0.00     0.000 A 
ATOM     19  C   UNL d   1      51.784  34.044  52.262  0.00  0.00     0.000 A 
ATOM     20  C   UNL d   1      51.073  34.054  52.633  0.00  0.00     0.000 A 
ATOM     21  C   UNL d   1      50.968  33.623  53.338  0.00  0.00     0.000 A 
ATOM     22  C   UNL d   1      51.598  33.186  53.655  0.00  0.00     0.000 A 
ENDBRANCH   5  17
TORSDOF 1
ENDMDL
