MODEL 1
REMARK VINA RESULT:      -3.1      0.000      0.000
REMARK  0 active torsions:
REMARK  status: ('A' for Active; 'I' for Inactive)
ROOT
ATOM      1  C   UNL d   1      46.547 -19.063  43.416  0.00  0.00     0.020 A 
ATOM      2  N   UNL d   1      46.471 -19.100  44.847  0.00  0.00    -0.242 NA
ATOM      3  C   UNL d   1      46.571 -19.886  43.402  0.00  0.00     0.003 A 
ATOM      4  C   UNL d   1      46.572 -18.628  42.718  0.00  0.00     0.013 A 
ATOM      5  C   UNL d   1      46.621 -20.276  42.673  0.00  0.00     0.001 A 
ATOM      6  C   UNL d   1      46.622 -19.019  41.998  0.00  0.00     0.058 A 
ATOM      7  C   UNL d   1      46.646 -19.845  41.976  0.00  0.00     0.011 A 
ATOM      8  C   UNL d   1      46.496 -18.669  44.144  0.00  0.00     0.099 A 
ATOM      9 CL   UNL d   1      46.647 -18.588  41.299  0.00  0.00    -0.082 Cl
ATOM     10  C   UNL d   1      46.496 -19.926  44.825  0.00  0.00     0.099 A 
ATOM     11  C   UNL d   1      46.546 -20.324  44.100  0.00  0.00     0.021 A 
ENDROOT
TORSDOF 0
ENDMDL
MODEL 2
REMARK VINA RESULT:      -3.0      1.663      2.613
REMARK  0 active torsions:
REMARK  status: ('A' for Active; 'I' for Inactive)
ROOT
ATOM      1  C   UNL d   1      46.609 -19.765  42.841  0.00  0.00     0.020 A 
ATOM      2  N   UNL d   1      46.613 -19.672  41.411  0.00  0.00    -0.242 NA
ATOM      3  C   UNL d   1      46.633 -18.944  42.889  0.00  0.00     0.003 A 
ATOM      4  C   UNL d   1      46.596 -20.227  43.522  0.00  0.00     0.013 A 
ATOM      5  C   UNL d   1      46.643 -18.583  43.635  0.00  0.00     0.001 A 
ATOM      6  C   UNL d   1      46.606 -19.866  44.259  0.00  0.00     0.058 A 
ATOM      7  C   UNL d   1      46.629 -19.041  44.315  0.00  0.00     0.011 A 
ATOM      8  C   UNL d   1      46.599 -20.130  42.097  0.00  0.00     0.099 A 
ATOM      9 CL   UNL d   1      46.592 -20.324  44.940  0.00  0.00    -0.082 Cl
ATOM     10  C   UNL d   1      46.636 -18.847  41.468  0.00  0.00     0.099 A 
ATOM     11  C   UNL d   1      46.646 -18.478  42.209  0.00  0.00     0.021 A 
ENDROOT
TORSDOF 0
ENDMDL
