MODEL 1
REMARK VINA RESULT:      -5.2      0.000      0.000
REMARK  7 active torsions:
REMARK  status: ('A' for Active; 'I' for Inactive)
REMARK    1  A    between atoms: N_4  and  C_2 
REMARK    2  A    between atoms: S_9  and  C_3 
REMARK    3  A    between atoms: C_8  and  C_13 
REMARK    4  A    between atoms: O_11  and  C_8 
REMARK    5  A    between atoms: C_13  and  S_9 
REMARK    6  A    between atoms: C_14  and  O_11 
REMARK    7  A    between atoms: C_17  and  C_14 
ROOT
ATOM      1  N   UNL d   1      59.231  -0.975  29.302  0.00  0.00    -0.203 NA
ATOM      2  C   UNL d   1      59.923  -1.318  29.017  0.00  0.00     0.152 A 
ATOM      3  C   UNL d   1      59.171  -0.151  29.364  0.00  0.00     0.196 A 
ATOM      4  C   UNL d   1      60.556  -0.841  28.795  0.00  0.00     0.057 A 
ATOM      5  N   UNL d   1      59.805   0.327  29.142  0.00  0.00    -0.221 NA
ATOM      6  C   UNL d   1      60.496  -0.017  28.857  0.00  0.00     0.087 A 
ATOM      7  C   UNL d   1      61.133   0.461  28.633  0.00  0.00     0.021 C 
ENDROOT
BRANCH   3   8
ATOM      8  S   UNL d   1      58.471   0.192  29.652  0.00  0.00    -0.043 SA
BRANCH   8   9
ATOM      9  C   UNL d   1      58.133  -0.090  30.349  0.00  0.00     0.107 C 
BRANCH   9  10
ATOM     10  C   UNL d   1      57.347   0.088  30.523  0.00  0.00     0.307 C 
ATOM     11  O   UNL d   1      56.954   0.682  30.114  0.00  0.00    -0.258 OA
BRANCH  10  12
ATOM     12  O   UNL d   1      56.951  -0.335  31.116  0.00  0.00    -0.271 OA
BRANCH  12  13
ATOM     13  C   UNL d   1      56.982  -0.078  31.898  0.00  0.00     0.126 C 
BRANCH  13  14
ATOM     14  C   UNL d   1      56.416  -0.336  32.440  0.00  0.00     0.025 A 
ATOM     15  C   UNL d   1      55.960   0.224  32.852  0.00  0.00     0.002 A 
ATOM     16  C   UNL d   1      55.394  -0.034  33.394  0.00  0.00     0.000 A 
ATOM     17  C   UNL d   1      55.289  -0.851  33.522  0.00  0.00     0.000 A 
ATOM     18  C   UNL d   1      55.751  -1.396  33.105  0.00  0.00     0.000 A 
ATOM     19  C   UNL d   1      56.311  -1.140  32.568  0.00  0.00     0.002 A 
ENDBRANCH  13  14
ENDBRANCH  12  13
ENDBRANCH  10  12
ENDBRANCH   9  10
ENDBRANCH   8   9
ENDBRANCH   3   8
BRANCH   2  20
ATOM     20  N   UNL d   1      59.986  -2.139  28.954  0.00  0.00    -0.285 N 
ATOM     21  C   UNL d   1      59.319  -2.586  28.755  0.00  0.00     0.108 A 
ATOM     22  C   UNL d   1      59.378  -3.402  28.691  0.00  0.00     0.142 A 
ATOM     23  O   UNL d   1      60.100  -3.775  28.824  0.00  0.00    -0.300 OA
ATOM     24  C   UNL d   1      60.766  -3.328  29.022  0.00  0.00     0.142 A 
ATOM     25  C   UNL d   1      60.707  -2.508  29.087  0.00  0.00     0.108 A 
ENDBRANCH   2  20
TORSDOF 7
ENDMDL
MODEL 2
REMARK VINA RESULT:      -3.9      1.808      5.240
REMARK  7 active torsions:
REMARK  status: ('A' for Active; 'I' for Inactive)
REMARK    1  A    between atoms: N_4  and  C_2 
REMARK    2  A    between atoms: S_9  and  C_3 
REMARK    3  A    between atoms: C_8  and  C_13 
REMARK    4  A    between atoms: O_11  and  C_8 
REMARK    5  A    between atoms: C_13  and  S_9 
REMARK    6  A    between atoms: C_14  and  O_11 
REMARK    7  A    between atoms: C_17  and  C_14 
ROOT
ATOM      1  N   UNL d   1      56.907   0.002  31.623  0.00  0.00    -0.203 NA
ATOM      2  C   UNL d   1      56.883   0.120  32.438  0.00  0.00     0.152 A 
ATOM      3  C   UNL d   1      57.617   0.111  31.209  0.00  0.00     0.196 A 
ATOM      4  C   UNL d   1      57.564   0.346  32.840  0.00  0.00     0.057 A 
ATOM      5  N   UNL d   1      58.299   0.337  31.611  0.00  0.00    -0.221 NA
ATOM      6  C   UNL d   1      58.274   0.455  32.426  0.00  0.00     0.087 A 
ATOM      7  C   UNL d   1      58.959   0.682  32.831  0.00  0.00     0.021 C 
ENDROOT
BRANCH   3   8
ATOM      8  S   UNL d   1      57.638  -0.009  30.387  0.00  0.00    -0.043 SA
BRANCH   8   9
ATOM      9  C   UNL d   1      58.363  -0.111  30.006  0.00  0.00     0.107 C 
BRANCH   9  10
ATOM     10  C   UNL d   1      58.387  -0.477  29.268  0.00  0.00     0.307 C 
ATOM     11  O   UNL d   1      58.264  -0.042  28.582  0.00  0.00    -0.258 OA
BRANCH  10  12
ATOM     12  O   UNL d   1      58.538  -1.290  29.218  0.00  0.00    -0.271 OA
BRANCH  12  13
ATOM     13  C   UNL d   1      59.021  -1.585  28.618  0.00  0.00     0.126 C 
BRANCH  13  14
ATOM     14  C   UNL d   1      59.343  -2.342  28.681  0.00  0.00     0.025 A 
ATOM     15  C   UNL d   1      60.122  -2.432  28.958  0.00  0.00     0.002 A 
ATOM     16  C   UNL d   1      60.444  -3.189  29.020  0.00  0.00     0.000 A 
ATOM     17  C   UNL d   1      59.984  -3.851  28.805  0.00  0.00     0.000 A 
ATOM     18  C   UNL d   1      59.212  -3.745  28.532  0.00  0.00     0.000 A 
ATOM     19  C   UNL d   1      58.893  -2.995  28.470  0.00  0.00     0.002 A 
ENDBRANCH  13  14
ENDBRANCH  12  13
ENDBRANCH  10  12
ENDBRANCH   9  10
ENDBRANCH   8   9
ENDBRANCH   3   8
BRANCH   2  20
ATOM     20  N   UNL d   1      56.178   0.013  32.854  0.00  0.00    -0.285 N 
ATOM     21  C   UNL d   1      55.782   0.670  33.163  0.00  0.00     0.108 A 
ATOM     22  C   UNL d   1      55.081   0.567  33.577  0.00  0.00     0.142 A 
ATOM     23  O   UNL d   1      54.772  -0.189  33.684  0.00  0.00    -0.300 OA
ATOM     24  C   UNL d   1      55.168  -0.845  33.375  0.00  0.00     0.142 A 
ATOM     25  C   UNL d   1      55.873  -0.741  32.959  0.00  0.00     0.108 A 
ENDBRANCH   2  20
TORSDOF 7
ENDMDL
MODEL 3
REMARK VINA RESULT:      -2.5      2.423      6.015
REMARK  7 active torsions:
REMARK  status: ('A' for Active; 'I' for Inactive)
REMARK    1  A    between atoms: N_4  and  C_2 
REMARK    2  A    between atoms: S_9  and  C_3 
REMARK    3  A    between atoms: C_8  and  C_13 
REMARK    4  A    between atoms: O_11  and  C_8 
REMARK    5  A    between atoms: C_13  and  S_9 
REMARK    6  A    between atoms: C_14  and  O_11 
REMARK    7  A    between atoms: C_17  and  C_14 
ROOT
ATOM      1  N   UNL d   1      56.050   0.151  32.936  0.00  0.00    -0.203 NA
ATOM      2  C   UNL d   1      56.021   0.414  33.715  0.00  0.00     0.152 A 
ATOM      3  C   UNL d   1      56.781   0.063  32.554  0.00  0.00     0.196 A 
ATOM      4  C   UNL d   1      56.718   0.590  34.115  0.00  0.00     0.057 A 
ATOM      5  N   UNL d   1      57.479   0.239  32.955  0.00  0.00    -0.221 NA
ATOM      6  C   UNL d   1      57.449   0.503  33.734  0.00  0.00     0.087 A 
ATOM      7  C   UNL d   1      58.149   0.680  34.137  0.00  0.00     0.021 C 
ENDROOT
BRANCH   3   8
ATOM      8  S   UNL d   1      56.807  -0.203  31.768  0.00  0.00    -0.043 SA
BRANCH   8   9
ATOM      9  C   UNL d   1      57.340   0.137  31.237  0.00  0.00     0.107 C 
BRANCH   9  10
ATOM     10  C   UNL d   1      57.688  -0.329  30.654  0.00  0.00     0.307 C 
ATOM     11  O   UNL d   1      57.306  -0.999  30.371  0.00  0.00    -0.258 OA
BRANCH  10  12
ATOM     12  O   UNL d   1      58.430  -0.119  30.349  0.00  0.00    -0.271 OA
BRANCH  12  13
ATOM     13  C   UNL d   1      58.583  -0.197  29.543  0.00  0.00     0.126 C 
BRANCH  13  14
ATOM     14  C   UNL d   1      59.360  -0.181  29.266  0.00  0.00     0.025 A 
ATOM     15  C   UNL d   1      59.733   0.552  29.140  0.00  0.00     0.002 A 
ATOM     16  C   UNL d   1      60.510   0.567  28.863  0.00  0.00     0.000 A 
ATOM     17  C   UNL d   1      60.909  -0.150  28.714  0.00  0.00     0.000 A 
ATOM     18  C   UNL d   1      60.524  -0.870  28.845  0.00  0.00     0.000 A 
ATOM     19  C   UNL d   1      59.755  -0.885  29.119  0.00  0.00     0.002 A 
ENDBRANCH  13  14
ENDBRANCH  12  13
ENDBRANCH  10  12
ENDBRANCH   9  10
ENDBRANCH   8   9
ENDBRANCH   3   8
BRANCH   2  20
ATOM     20  N   UNL d   1      55.295   0.503  34.099  0.00  0.00    -0.285 N 
ATOM     21  C   UNL d   1      54.598   0.523  33.654  0.00  0.00     0.108 A 
ATOM     22  C   UNL d   1      53.874   0.611  34.031  0.00  0.00     0.142 A 
ATOM     23  O   UNL d   1      53.843   0.679  34.851  0.00  0.00    -0.300 OA
ATOM     24  C   UNL d   1      54.539   0.659  35.295  0.00  0.00     0.142 A 
ATOM     25  C   UNL d   1      55.266   0.571  34.916  0.00  0.00     0.108 A 
ENDBRANCH   2  20
TORSDOF 7
ENDMDL
