MODEL 1
REMARK VINA RESULT:      26.6      0.000      0.000
REMARK  5 active torsions:
REMARK  status: ('A' for Active; 'I' for Inactive)
REMARK    1  A    between atoms: S_2  and  C_1 
REMARK    2  A    between atoms: N_3  and  C_1 
REMARK    3  A    between atoms: C_4  and  C_1 
REMARK    4  A    between atoms: C_6  and  S_2 
REMARK       I    between atoms: C_5  and  N_3 
REMARK    5  A    between atoms: C_9  and  C_5 
ROOT
ATOM      1  C   UNL d   1      45.941 -18.096  44.005  0.00  0.00     0.193 C 
ENDROOT
BRANCH   1   2
ATOM      2  S   UNL d   1      45.820 -17.296  44.167  0.00  0.00     0.228 S 
ATOM      3  O   UNL d   1      45.023 -17.379  43.976  0.00  0.00    -0.216 OA
ATOM      4  O   UNL d   1      46.624 -17.207  44.362  0.00  0.00    -0.216 OA
BRANCH   2   5
ATOM      5  C   UNL d   1      45.692 -16.461  44.337  0.00  0.00     0.089 A 
ATOM      6  C   UNL d   1      45.005 -16.226  44.729  0.00  0.00     0.011 A 
ATOM      7  C   UNL d   1      44.884 -15.426  44.890  0.00  0.00     0.001 A 
ATOM      8  C   UNL d   1      45.449 -14.862  44.661  0.00  0.00     0.000 A 
ATOM      9  C   UNL d   1      46.138 -15.095  44.269  0.00  0.00     0.001 A 
ATOM     10  C   UNL d   1      45.318 -14.054  44.829  0.00  0.00     0.000 C 
ATOM     11  C   UNL d   1      46.260 -15.894  44.107  0.00  0.00     0.011 A 
ENDBRANCH   2   5
ENDBRANCH   1   2
BRANCH   1  12
ATOM     12  N   UNL d   1      46.050 -18.347  43.248  0.00  0.00    -0.195 NA
ATOM     13  C   UNL d   1      46.226 -19.137  43.090  0.00  0.00     0.280 C 
ATOM     14  O   UNL d   1      46.289 -19.660  43.690  0.00  0.00    -0.265 OA
BRANCH  13  15
ATOM     15  C   UNL d   1      46.329 -19.345  42.305  0.00  0.00     0.058 A 
ATOM     16  C   UNL d   1      46.416 -18.752  41.762  0.00  0.00     0.005 A 
ATOM     17  C   UNL d   1      46.519 -18.932  40.979  0.00  0.00     0.000 A 
ATOM     18  C   UNL d   1      46.536 -19.713  40.718  0.00  0.00     0.000 A 
ATOM     19  C   UNL d   1      46.449 -20.314  41.260  0.00  0.00     0.000 A 
ATOM     20  C   UNL d   1      46.644 -19.920  39.891  0.00  0.00     0.000 C 
ATOM     21  C   UNL d   1      46.344 -20.126  42.063  0.00  0.00     0.005 A 
ENDBRANCH  13  15
ENDBRANCH   1  12
BRANCH   1  22
ATOM     22  C   UNL d   1      45.954 -18.652  44.605  0.00  0.00     0.144 C 
ATOM     23 CL   UNL d   1      46.638 -18.752  44.944  0.00  0.00    -0.068 Cl
ATOM     24 CL   UNL d   1      45.231 -19.089  44.826  0.00  0.00    -0.068 Cl
ENDBRANCH   1  22
TORSDOF 5
ENDMDL
