MODEL 1
REMARK VINA RESULT:      89.2      0.000      0.000
REMARK  9 active torsions:
REMARK  status: ('A' for Active; 'I' for Inactive)
REMARK    1  A    between atoms: C_9  and  N_1 
REMARK    2  A    between atoms: S_8  and  C_2 
REMARK    3  A    between atoms: C_7  and  C_12 
REMARK       I    between atoms: N_13  and  C_7 
REMARK    4  A    between atoms: C_26  and  S_8 
REMARK    5  A    between atoms: C_27  and  N_13 
REMARK    6  A    between atoms: C_15  and  C_27 
REMARK    7  A    between atoms: C_16  and  C_26 
REMARK    8  A    between atoms: O_31  and  C_16 
REMARK    9  A    between atoms: C_33  and  O_31 
ROOT
ATOM      1  N   UNL d   1     -54.782-100.772 -39.743  0.00  0.00    -0.254 N 
ATOM      2  C   UNL d   1     -54.769-101.482 -39.343  0.00  0.00     0.182 A 
ATOM      3  C   UNL d   1     -54.783-100.062 -39.331  0.00  0.00     0.268 A 
ATOM      4  N   UNL d   1     -54.758-101.480 -38.524  0.00  0.00    -0.222 NA
ATOM      5  C   UNL d   1     -54.772-100.059 -38.516  0.00  0.00     0.074 A 
ATOM      6  C   UNL d   1     -54.759-100.776 -38.101  0.00  0.00     0.088 A 
ATOM      7  C   UNL d   1     -54.747-100.781 -37.273  0.00  0.00     0.024 A 
ATOM      8  C   UNL d   1     -54.773 -99.352 -38.091  0.00  0.00     0.006 A 
ATOM      9  C   UNL d   1     -54.748-100.068 -36.859  0.00  0.00     0.059 A 
ATOM     10  O   UNL d   1     -54.796 -99.345 -39.746  0.00  0.00    -0.267 OA
ATOM     11  C   UNL d   1     -54.761 -99.349 -37.273  0.00  0.00     0.005 A 
ENDROOT
BRANCH   9  12
ATOM     12  C   UNL d   1     -54.737-100.068 -36.027  0.00  0.00     0.279 C 
ATOM     13  N   UNL d   1     -54.747-100.778 -35.636  0.00  0.00    -0.204 NA
ATOM     14  O   UNL d   1     -54.716 -99.350 -35.629  0.00  0.00    -0.265 OA
BRANCH  13  15
ATOM     15  C   UNL d   1     -54.768-101.485 -36.051  0.00  0.00     0.127 C 
BRANCH  15  16
ATOM     16  C   UNL d   1     -55.420-101.984 -35.984  0.00  0.00     0.119 A 
ATOM     17  O   UNL d   1     -55.925-102.153 -35.374  0.00  0.00    -0.304 OA
ATOM     18  C   UNL d   1     -56.484-102.699 -35.620  0.00  0.00     0.123 A 
ATOM     19  C   UNL d   1     -56.308-102.865 -36.412  0.00  0.00     0.029 A 
ATOM     20  C   UNL d   1     -55.662-102.434 -36.639  0.00  0.00     0.028 A 
ENDBRANCH  15  16
ENDBRANCH  13  15
ENDBRANCH   9  12
BRANCH   2  21
ATOM     21  S   UNL d   1     -54.768-102.196 -39.757  0.00  0.00    -0.044 SA
BRANCH  21  22
ATOM     22  C   UNL d   1     -55.331-102.767 -39.596  0.00  0.00     0.107 C 
BRANCH  22  23
ATOM     23  C   UNL d   1     -56.115-102.638 -39.821  0.00  0.00     0.307 C 
ATOM     24  O   UNL d   1     -56.654-102.289 -39.297  0.00  0.00    -0.258 OA
BRANCH  23  25
ATOM     25  O   UNL d   1     -56.358-102.863 -40.581  0.00  0.00    -0.271 OA
BRANCH  25  26
ATOM     26  C   UNL d   1     -56.719-102.302 -41.066  0.00  0.00     0.126 C 
ATOM     27  C   UNL d   1     -57.522-102.350 -41.184  0.00  0.00     0.029 C 
ENDBRANCH  25  26
ENDBRANCH  23  25
ENDBRANCH  22  23
ENDBRANCH  21  22
ENDBRANCH   2  21
BRANCH   1  28
ATOM     28  C   UNL d   1     -54.793-100.770 -40.569  0.00  0.00     0.069 A 
ATOM     29  C   UNL d   1     -54.877-101.479 -40.982  0.00  0.00     0.020 A 
ATOM     30  C   UNL d   1     -54.889-101.484 -41.794  0.00  0.00     0.031 A 
ATOM     31  C   UNL d   1     -54.817-100.773 -42.206  0.00  0.00     0.140 A 
ATOM     32  C   UNL d   1     -54.734-100.064 -41.793  0.00  0.00     0.031 A 
ATOM     33  F   UNL d   1     -54.830-100.779 -43.040  0.00  0.00    -0.204 F 
ATOM     34  C   UNL d   1     -54.722-100.060 -40.977  0.00  0.00     0.020 A 
ENDBRANCH   1  28
TORSDOF 9
ENDMDL
