MODEL 1
REMARK VINA RESULT:      16.2      0.000      0.000
REMARK  4 active torsions:
REMARK  status: ('A' for Active; 'I' for Inactive)
REMARK    1  A    between atoms: N_2  and  C_1 
REMARK    2  A    between atoms: N_3  and  C_1 
REMARK       I    between atoms: C_4  and  N_2 
REMARK    3  A    between atoms: C_5  and  N_3 
REMARK    4  A    between atoms: C_9  and  C_4 
ROOT
ATOM      1  C   UNL d   1      59.327  49.691  50.277  0.00  0.00     0.276 C 
ATOM      2  S   UNL d   1      59.746  49.671  49.566  0.00  0.00    -0.023 SA
ENDROOT
BRANCH   1   3
ATOM      3  N   UNL d   1      59.738  49.707  50.990  0.00  0.00    -0.168 NA
ATOM      4  C   UNL d   1      60.471  49.331  51.064  0.00  0.00     0.282 C 
ATOM      5  O   UNL d   1      60.789  48.936  50.412  0.00  0.00    -0.265 OA
BRANCH   4   6
ATOM      6  C   UNL d   1      60.881  49.350  51.781  0.00  0.00     0.058 C 
ATOM      7  C   UNL d   1      60.469  49.416  52.479  0.00  0.00     0.005 C 
ATOM      8  C   UNL d   1      61.704  49.301  51.781  0.00  0.00     0.005 C 
ENDBRANCH   4   6
ENDBRANCH   1   3
BRANCH   1   9
ATOM      9  N   UNL d   1      58.499  49.694  50.276  0.00  0.00    -0.353 NA
BRANCH   9  10
ATOM     10  C   UNL d   1      57.677  49.695  50.275  0.00  0.00     0.216 A 
ATOM     11  N   UNL d   1      57.270  49.706  49.555  0.00  0.00    -0.215 NA
ATOM     12  C   UNL d   1      56.446  49.708  49.556  0.00  0.00     0.102 A 
ATOM     13  C   UNL d   1      56.034  49.698  50.272  0.00  0.00     0.021 A 
ATOM     14  C   UNL d   1      56.438  49.687  50.981  0.00  0.00     0.006 A 
ATOM     15  C   UNL d   1      57.263  49.686  50.994  0.00  0.00     0.052 A 
ENDBRANCH   9  10
ENDBRANCH   1   9
TORSDOF 4
ENDMDL
MODEL 2
REMARK VINA RESULT:      17.3      1.103      3.848
REMARK  4 active torsions:
REMARK  status: ('A' for Active; 'I' for Inactive)
REMARK    1  A    between atoms: N_2  and  C_1 
REMARK    2  A    between atoms: N_3  and  C_1 
REMARK       I    between atoms: C_4  and  N_2 
REMARK    3  A    between atoms: C_5  and  N_3 
REMARK    4  A    between atoms: C_9  and  C_4 
ROOT
ATOM      1  C   UNL d   1      58.869  49.693  49.911  0.00  0.00     0.276 C 
ATOM      2  S   UNL d   1      58.962  49.706  49.092  0.00  0.00    -0.023 SA
ENDROOT
BRANCH   1   3
ATOM      3  N   UNL d   1      58.110  49.687  50.233  0.00  0.00    -0.168 NA
ATOM      4  C   UNL d   1      57.449  49.562  49.753  0.00  0.00     0.282 C 
ATOM      5  O   UNL d   1      57.555  49.442  48.943  0.00  0.00    -0.265 OA
BRANCH   4   6
ATOM      6  C   UNL d   1      56.690  49.557  50.079  0.00  0.00     0.058 C 
ATOM      7  C   UNL d   1      56.591  49.702  50.873  0.00  0.00     0.005 C 
ATOM      8  C   UNL d   1      56.040  49.403  49.595  0.00  0.00     0.005 C 
ENDBRANCH   4   6
ENDBRANCH   1   3
BRANCH   1   9
ATOM      9  N   UNL d   1      59.529  49.685  50.410  0.00  0.00    -0.353 NA
BRANCH   9  10
ATOM     10  C   UNL d   1      60.187  49.677  50.903  0.00  0.00     0.216 A 
ATOM     11  N   UNL d   1      60.081  49.646  51.724  0.00  0.00    -0.215 NA
ATOM     12  C   UNL d   1      60.741  49.638  52.216  0.00  0.00     0.102 A 
ATOM     13  C   UNL d   1      61.500  49.662  51.891  0.00  0.00     0.021 A 
ATOM     14  C   UNL d   1      61.602  49.693  51.082  0.00  0.00     0.006 A 
ATOM     15  C   UNL d   1      60.949  49.701  50.576  0.00  0.00     0.052 A 
ENDBRANCH   9  10
ENDBRANCH   1   9
TORSDOF 4
ENDMDL
