MODEL 1
REMARK VINA RESULT:      32.4      0.000      0.000
REMARK  5 active torsions:
REMARK  status: ('A' for Active; 'I' for Inactive)
REMARK    1  A    between atoms: C_6  and  N_1 
REMARK    2  A    between atoms: C_11  and  C_6 
REMARK    3  A    between atoms: C_14  and  C_11 
REMARK    4  A    between atoms: C_12  and  O_13 
REMARK    5  A    between atoms: O_13  and  C_14 
ROOT
ATOM      1  C   UNL d   1     -55.067 -99.555 -44.120  0.00  0.00     0.238 C 
ATOM      2  O   UNL d   1     -54.717 -99.592 -43.374  0.00  0.00    -0.283 OA
ENDROOT
BRANCH   1   3
ATOM      3  C   UNL d   1     -54.831-100.076 -44.718  0.00  0.00     0.126 C 
BRANCH   3   4
ATOM      4  N   UNL d   1     -54.817-100.894 -44.572  0.00  0.00    -0.284 N 
ATOM      5  C   UNL d   1     -54.836-101.490 -45.137  0.00  0.00     0.183 A 
ATOM      6  N   UNL d   1     -54.812-102.220 -44.752  0.00  0.00    -0.224 NA
ATOM      7  C   UNL d   1     -54.777-102.071 -43.942  0.00  0.00     0.099 A 
ATOM      8  C   UNL d   1     -54.780-101.255 -43.827  0.00  0.00     0.083 A 
ATOM      9  C   UNL d   1     -54.743-102.575 -43.297  0.00  0.00     0.021 A 
ATOM     10  C   UNL d   1     -54.748-100.942 -43.063  0.00  0.00     0.019 A 
ATOM     11  C   UNL d   1     -54.714-101.450 -42.414  0.00  0.00     0.002 A 
ATOM     12  C   UNL d   1     -54.712-102.272 -42.528  0.00  0.00     0.002 A 
ENDBRANCH   3   4
ENDBRANCH   1   3
BRANCH   1  13
ATOM     13  C   UNL d   1     -55.663 -98.989 -44.275  0.00  0.00     0.166 C 
BRANCH  13  14
ATOM     14  O   UNL d   1     -56.328 -99.197 -44.748  0.00  0.00    -0.302 OA
BRANCH  14  15
ATOM     15  C   UNL d   1     -57.109 -99.084 -44.473  0.00  0.00     0.100 A 
ATOM     16  C   UNL d   1     -57.727 -99.086 -45.001  0.00  0.00     0.025 A 
ATOM     17  C   UNL d   1     -58.507 -98.973 -44.726  0.00  0.00     0.002 A 
ATOM     18  C   UNL d   1     -59.225 -98.947 -45.112  0.00  0.00     0.000 A 
ATOM     19  C   UNL d   1     -58.643 -98.863 -43.924  0.00  0.00     0.000 A 
ATOM     20  C   UNL d   1     -59.806 -98.820 -44.550  0.00  0.00     0.000 A 
ATOM     21  C   UNL d   1     -59.449 -98.768 -43.818  0.00  0.00     0.000 A 
ATOM     22  C   UNL d   1     -58.000 -98.863 -43.393  0.00  0.00     0.002 A 
ATOM     23  C   UNL d   1     -57.245 -98.974 -43.671  0.00  0.00     0.025 A 
ENDBRANCH  14  15
ENDBRANCH  13  14
ENDBRANCH   1  13
TORSDOF 5
ENDMDL
