MODEL 1
REMARK VINA RESULT:       1.6      0.000      0.000
REMARK  5 active torsions:
REMARK  status: ('A' for Active; 'I' for Inactive)
REMARK    1  A    between atoms: C_8  and  C_1 
REMARK    2  A    between atoms: N_4  and  C_2 
REMARK       I    between atoms: C_6  and  N_4 
REMARK    3  A    between atoms: C_11  and  C_6 
REMARK    4  A    between atoms: O_12  and  C_8 
REMARK    5  A    between atoms: C_17  and  O_12 
ROOT
ATOM      1  C   UNL d   1     -41.308-122.181 -52.391  0.00  0.00     0.181 A 
ATOM      2  C   UNL d   1     -41.279-121.931 -51.598  0.00  0.00     0.115 A 
ATOM      3  O   UNL d   1     -41.271-121.498 -52.861  0.00  0.00    -0.300 OA
ATOM      4  C   UNL d   1     -41.225-121.115 -51.590  0.00  0.00     0.043 A 
ATOM      5  C   UNL d   1     -41.220-120.844 -52.371  0.00  0.00     0.102 A 
ATOM      6  C   UNL d   1     -41.180-120.575 -50.968  0.00  0.00     0.004 A 
ATOM      7  C   UNL d   1     -41.169-120.041 -52.526  0.00  0.00     0.025 A 
ATOM      8  C   UNL d   1     -41.129-119.763 -51.127  0.00  0.00     0.000 A 
ATOM      9  C   UNL d   1     -41.124-119.501 -51.912  0.00  0.00     0.002 A 
ENDROOT
BRANCH   2  10
ATOM     10  N   UNL d   1     -41.301-122.429 -50.933  0.00  0.00    -0.206 NA
ATOM     11  C   UNL d   1     -41.895-122.334 -50.370  0.00  0.00     0.279 C 
ATOM     12  O   UNL d   1     -42.466-121.748 -50.463  0.00  0.00    -0.265 OA
BRANCH  11  13
ATOM     13  C   UNL d   1     -41.916-122.827 -49.713  0.00  0.00     0.058 A 
ATOM     14  C   UNL d   1     -42.649-123.061 -49.388  0.00  0.00     0.005 A 
ATOM     15  C   UNL d   1     -42.666-123.549 -48.738  0.00  0.00     0.000 A 
ATOM     16  C   UNL d   1     -41.961-123.812 -48.401  0.00  0.00     0.000 A 
ATOM     17  C   UNL d   1     -41.243-123.582 -48.721  0.00  0.00     0.000 A 
ATOM     18  C   UNL d   1     -41.223-123.082 -49.386  0.00  0.00     0.005 A 
ENDBRANCH  11  13
ENDBRANCH   2  10
BRANCH   1  19
ATOM     19  C   UNL d   1     -41.363-122.960 -52.658  0.00  0.00     0.325 C 
ATOM     20  O   UNL d   1     -41.553-123.565 -52.125  0.00  0.00    -0.257 OA
BRANCH  19  21
ATOM     21  O   UNL d   1     -41.231-123.129 -53.447  0.00  0.00    -0.269 OA
BRANCH  21  22
ATOM     22  C   UNL d   1     -41.561-123.813 -53.786  0.00  0.00     0.126 C 
ATOM     23  C   UNL d   1     -42.068-123.742 -54.439  0.00  0.00     0.029 C 
ENDBRANCH  21  22
ENDBRANCH  19  21
ENDBRANCH   1  19
TORSDOF 5
ENDMDL
