MODEL 1
REMARK VINA RESULT:      -6.9      0.000      0.000
REMARK  5 active torsions:
REMARK  status: ('A' for Active; 'I' for Inactive)
REMARK    1  A    between atoms: N_2  and  C_1 
REMARK    2  A    between atoms: C_4  and  C_8 
REMARK       I    between atoms: N_7  and  C_4 
REMARK    3  A    between atoms: C_9  and  C_6 
REMARK    4  A    between atoms: C_14  and  N_7 
REMARK    5  A    between atoms: C_8  and  C_9 
ROOT
ATOM      1  C   UNL d   1     -48.515  14.193  22.911  0.00  0.00     0.265 C 
ATOM      2  N   UNL d   1     -49.273  13.975  23.093  0.00  0.00    -0.272 N 
ATOM      3  O   UNL d   1     -48.299  14.974  22.754  0.00  0.00    -0.267 OA
ATOM      4  C   UNL d   1     -49.466  13.194  23.245  0.00  0.00     0.102 C 
ENDROOT
BRANCH   1   5
ATOM      5  C   UNL d   1     -47.934  13.608  22.880  0.00  0.00     0.062 C 
BRANCH   5   6
ATOM      6  C   UNL d   1     -47.124  13.842  22.935  0.00  0.00     0.011 C 
BRANCH   6   7
ATOM      7  C   UNL d   1     -46.495  13.267  22.835  0.00  0.00     0.031 A 
ATOM      8  S   UNL d   1     -46.343  12.627  23.315  0.00  0.00    -0.064 SA
ATOM      9  C   UNL d   1     -45.686  12.211  23.025  0.00  0.00     0.156 A 
ATOM     10  C   UNL d   1     -45.439  12.624  22.343  0.00  0.00     0.031 A 
ATOM     11  C   UNL d   1     -45.926  13.248  22.241  0.00  0.00     0.009 A 
BRANCH   9  12
ATOM     12  N   UNL d   1     -45.332  11.528  23.329  0.00  0.00    -0.107 N 
ATOM     13  O   UNL d   1     -45.808  10.911  23.697  0.00  0.00    -0.531 OA
ATOM     14  O   UNL d   1     -44.491  11.374  23.307  0.00  0.00    -0.531 OA
ENDBRANCH   9  12
ENDBRANCH   6   7
ENDBRANCH   5   6
ENDBRANCH   1   5
BRANCH   2  15
ATOM     15  C   UNL d   1     -49.862  14.552  23.127  0.00  0.00     0.067 A 
ATOM     16  C   UNL d   1     -49.827  15.144  23.679  0.00  0.00     0.018 A 
ATOM     17  C   UNL d   1     -50.428  15.704  23.688  0.00  0.00     0.002 A 
ATOM     18  C   UNL d   1     -51.057  15.678  23.157  0.00  0.00     0.000 A 
ATOM     19  C   UNL d   1     -51.064  15.049  22.596  0.00  0.00     0.002 A 
ATOM     20  C   UNL d   1     -50.483  14.498  22.578  0.00  0.00     0.018 A 
ENDBRANCH   2  15
TORSDOF 5
ENDMDL
MODEL 2
REMARK VINA RESULT:      -6.9      1.573      2.017
REMARK  5 active torsions:
REMARK  status: ('A' for Active; 'I' for Inactive)
REMARK    1  A    between atoms: N_2  and  C_1 
REMARK    2  A    between atoms: C_4  and  C_8 
REMARK       I    between atoms: N_7  and  C_4 
REMARK    3  A    between atoms: C_9  and  C_6 
REMARK    4  A    between atoms: C_14  and  N_7 
REMARK    5  A    between atoms: C_8  and  C_9 
ROOT
ATOM      1  C   UNL d   1     -48.179  12.766  22.940  0.00  0.00     0.265 C 
ATOM      2  N   UNL d   1     -48.817  12.481  22.532  0.00  0.00    -0.272 N 
ATOM      3  O   UNL d   1     -48.239  13.087  23.698  0.00  0.00    -0.267 OA
ATOM      4  C   UNL d   1     -48.735  12.167  21.780  0.00  0.00     0.102 C 
ENDROOT
BRANCH   1   5
ATOM      5  C   UNL d   1     -47.436  12.735  22.582  0.00  0.00     0.062 C 
BRANCH   5   6
ATOM      6  C   UNL d   1     -46.777  13.067  22.993  0.00  0.00     0.011 C 
BRANCH   6   7
ATOM      7  C   UNL d   1     -45.994  13.057  22.643  0.00  0.00     0.031 A 
ATOM      8  S   UNL d   1     -45.450  12.453  22.690  0.00  0.00    -0.064 SA
ATOM      9  C   UNL d   1     -44.762  12.665  22.275  0.00  0.00     0.156 A 
ATOM     10  C   UNL d   1     -44.908  13.427  21.970  0.00  0.00     0.031 A 
ATOM     11  C   UNL d   1     -45.640  13.649  22.194  0.00  0.00     0.009 A 
BRANCH   9  12
ATOM     12  N   UNL d   1     -44.067  12.228  22.171  0.00  0.00    -0.107 N 
ATOM     13  O   UNL d   1     -43.509  12.430  21.547  0.00  0.00    -0.531 OA
ATOM     14  O   UNL d   1     -43.844  11.561  22.657  0.00  0.00    -0.531 OA
ENDBRANCH   9  12
ENDBRANCH   6   7
ENDBRANCH   5   6
ENDBRANCH   1   5
BRANCH   2  15
ATOM     15  C   UNL d   1     -49.564  12.508  22.880  0.00  0.00     0.067 A 
ATOM     16  C   UNL d   1     -50.008  13.186  22.853  0.00  0.00     0.018 A 
ATOM     17  C   UNL d   1     -50.748  13.181  23.209  0.00  0.00     0.002 A 
ATOM     18  C   UNL d   1     -51.047  12.515  23.587  0.00  0.00     0.000 A 
ATOM     19  C   UNL d   1     -50.561  11.826  23.599  0.00  0.00     0.002 A 
ATOM     20  C   UNL d   1     -49.838  11.819  23.255  0.00  0.00     0.018 A 
ENDBRANCH   2  15
TORSDOF 5
ENDMDL
MODEL 3
REMARK VINA RESULT:      -5.8      8.964      9.924
REMARK  5 active torsions:
REMARK  status: ('A' for Active; 'I' for Inactive)
REMARK    1  A    between atoms: N_2  and  C_1 
REMARK    2  A    between atoms: C_4  and  C_8 
REMARK       I    between atoms: N_7  and  C_4 
REMARK    3  A    between atoms: C_9  and  C_6 
REMARK    4  A    between atoms: C_14  and  N_7 
REMARK    5  A    between atoms: C_8  and  C_9 
ROOT
ATOM      1  C   UNL d   1     -39.366  14.225  20.768  0.00  0.00     0.265 C 
ATOM      2  N   UNL d   1     -38.650  14.260  21.145  0.00  0.00    -0.272 N 
ATOM      3  O   UNL d   1     -40.068  14.042  21.160  0.00  0.00    -0.267 OA
ATOM      4  C   UNL d   1     -37.964  14.444  20.737  0.00  0.00     0.102 C 
ENDROOT
BRANCH   1   5
ATOM      5  C   UNL d   1     -39.393  14.380  19.958  0.00  0.00     0.062 C 
BRANCH   5   6
ATOM      6  C   UNL d   1     -40.127  14.276  19.554  0.00  0.00     0.011 C 
BRANCH   6   7
ATOM      7  C   UNL d   1     -40.177  14.384  18.704  0.00  0.00     0.031 A 
ATOM      8  S   UNL d   1     -40.564  14.985  18.314  0.00  0.00    -0.064 SA
ATOM      9  C   UNL d   1     -40.477  14.887  17.494  0.00  0.00     0.156 A 
ATOM     10  C   UNL d   1     -40.018  14.197  17.396  0.00  0.00     0.031 A 
ATOM     11  C   UNL d   1     -39.846  13.909  18.120  0.00  0.00     0.009 A 
BRANCH   9  12
ATOM     12  N   UNL d   1     -40.774  15.359  16.883  0.00  0.00    -0.107 N 
ATOM     13  O   UNL d   1     -41.603  15.313  16.653  0.00  0.00    -0.531 OA
ATOM     14  O   UNL d   1     -40.303  15.917  16.438  0.00  0.00    -0.531 OA
ENDBRANCH   9  12
ENDBRANCH   6   7
ENDBRANCH   5   6
ENDBRANCH   1   5
BRANCH   2  15
ATOM     15  C   UNL d   1     -38.611  14.107  21.954  0.00  0.00     0.067 A 
ATOM     16  C   UNL d   1     -38.755  14.696  22.492  0.00  0.00     0.018 A 
ATOM     17  C   UNL d   1     -38.709  14.514  23.291  0.00  0.00     0.002 A 
ATOM     18  C   UNL d   1     -38.522  13.758  23.556  0.00  0.00     0.000 A 
ATOM     19  C   UNL d   1     -38.377  13.167  22.973  0.00  0.00     0.002 A 
ATOM     20  C   UNL d   1     -38.420  13.334  22.190  0.00  0.00     0.018 A 
ENDBRANCH   2  15
TORSDOF 5
ENDMDL
MODEL 4
REMARK VINA RESULT:      -4.4      8.410     10.965
REMARK  5 active torsions:
REMARK  status: ('A' for Active; 'I' for Inactive)
REMARK    1  A    between atoms: N_2  and  C_1 
REMARK    2  A    between atoms: C_4  and  C_8 
REMARK       I    between atoms: N_7  and  C_4 
REMARK    3  A    between atoms: C_9  and  C_6 
REMARK    4  A    between atoms: C_14  and  N_7 
REMARK    5  A    between atoms: C_8  and  C_9 
ROOT
ATOM      1  C   UNL d   1     -39.135  14.517  16.999  0.00  0.00     0.265 C 
ATOM      2  N   UNL d   1     -38.457  14.151  16.752  0.00  0.00    -0.272 N 
ATOM      3  O   UNL d   1     -39.669  14.868  16.478  0.00  0.00    -0.267 OA
ATOM      4  C   UNL d   1     -37.940  13.808  17.287  0.00  0.00     0.102 C 
ENDROOT
BRANCH   1   5
ATOM      5  C   UNL d   1     -39.298  14.541  17.808  0.00  0.00     0.062 C 
BRANCH   5   6
ATOM      6  C   UNL d   1     -40.042  14.852  18.059  0.00  0.00     0.011 C 
BRANCH   6   7
ATOM      7  C   UNL d   1     -40.166  15.079  18.877  0.00  0.00     0.031 A 
ATOM      8  S   UNL d   1     -40.688  14.738  19.401  0.00  0.00    -0.064 SA
ATOM      9  C   UNL d   1     -40.637  15.122  20.135  0.00  0.00     0.156 A 
ATOM     10  C   UNL d   1     -40.059  15.716  20.040  0.00  0.00     0.031 A 
ATOM     11  C   UNL d   1     -39.787  15.681  19.291  0.00  0.00     0.009 A 
BRANCH   9  12
ATOM     12  N   UNL d   1     -41.059  14.966  20.830  0.00  0.00    -0.107 N 
ATOM     13  O   UNL d   1     -40.836  14.311  21.343  0.00  0.00    -0.531 OA
ATOM     14  O   UNL d   1     -41.730  15.424  21.094  0.00  0.00    -0.531 OA
ENDBRANCH   9  12
ENDBRANCH   6   7
ENDBRANCH   5   6
ENDBRANCH   1   5
BRANCH   2  15
ATOM     15  C   UNL d   1     -38.284  14.121  15.946  0.00  0.00     0.067 A 
ATOM     16  C   UNL d   1     -38.189  14.804  15.520  0.00  0.00     0.018 A 
ATOM     17  C   UNL d   1     -38.018  14.743  14.719  0.00  0.00     0.002 A 
ATOM     18  C   UNL d   1     -37.940  14.015  14.344  0.00  0.00     0.000 A 
ATOM     19  C   UNL d   1     -38.044  13.323  14.814  0.00  0.00     0.002 A 
ATOM     20  C   UNL d   1     -38.212  13.371  15.596  0.00  0.00     0.018 A 
ENDBRANCH   2  15
TORSDOF 5
ENDMDL
