MODEL 1
REMARK VINA RESULT:      -5.5      0.000      0.000
REMARK  2 active torsions:
REMARK  status: ('A' for Active; 'I' for Inactive)
REMARK    1  A    between atoms: N_5  and  C_1 
REMARK       I    between atoms: C_7  and  N_5 
REMARK    2  A    between atoms: C_11  and  C_7 
ROOT
ATOM      1  C   UNL d   1     -41.413-122.413 -52.214  0.00  0.00     0.124 A 
ATOM      2  C   UNL d   1     -41.287-121.948 -51.583  0.00  0.00     0.093 A 
ATOM      3  S   UNL d   1     -41.459-123.199 -51.971  0.00  0.00    -0.067 SA
ATOM      4  C   UNL d   1     -41.248-122.416 -50.910  0.00  0.00     0.018 A 
ATOM      5  C   UNL d   1     -41.358-123.219 -51.160  0.00  0.00     0.032 A 
ATOM      6  C   UNL d   1     -41.205-121.089 -51.596  0.00  0.00     0.103 C 
ATOM      7  N   UNL d   1     -41.124-120.272 -51.592  0.00  0.00    -0.191 NA
ATOM      8  C   UNL d   1     -41.130-122.245 -50.120  0.00  0.00     0.001 A 
ATOM      9  C   UNL d   1     -41.347-123.817 -50.609  0.00  0.00     0.006 A 
ATOM     10  C   UNL d   1     -41.124-122.885 -49.575  0.00  0.00     0.000 A 
ATOM     11  C   UNL d   1     -41.224-123.615 -49.802  0.00  0.00     0.001 A 
ENDROOT
BRANCH   1  12
ATOM     12  N   UNL d   1     -41.490-122.153 -53.018  0.00  0.00    -0.201 NA
ATOM     13  C   UNL d   1     -41.832-122.647 -53.585  0.00  0.00     0.280 C 
ATOM     14  O   UNL d   1     -42.114-123.428 -53.371  0.00  0.00    -0.265 OA
BRANCH  13  15
ATOM     15  C   UNL d   1     -41.906-122.398 -54.355  0.00  0.00     0.058 A 
ATOM     16  C   UNL d   1     -42.607-121.969 -54.574  0.00  0.00     0.005 A 
ATOM     17  C   UNL d   1     -42.684-121.709 -55.377  0.00  0.00     0.000 A 
ATOM     18  C   UNL d   1     -42.055-121.890 -55.921  0.00  0.00     0.000 A 
ATOM     19  C   UNL d   1     -41.385-122.304 -55.694  0.00  0.00     0.000 A 
ATOM     20  C   UNL d   1     -41.312-122.553 -54.925  0.00  0.00     0.005 A 
ENDBRANCH  13  15
ENDBRANCH   1  12
TORSDOF 2
ENDMDL
