MODEL 1
REMARK VINA RESULT:      19.5      0.000      0.000
REMARK  2 active torsions:
REMARK  status: ('A' for Active; 'I' for Inactive)
REMARK    1  A    between atoms: C_10  and  N_1 
REMARK    2  A    between atoms: C_11  and  C_10 
ROOT
ATOM      1  N   UNL d   1      46.128 -17.482  43.692  0.00  0.00    -0.187 N 
ATOM      2  N   UNL d   1      46.203 -17.546  42.759  0.00  0.00    -0.162 NA
ATOM      3  C   UNL d   1      46.331 -18.309  42.334  0.00  0.00     0.102 A 
ATOM      4  C   UNL d   1      46.366 -18.909  42.896  0.00  0.00     0.024 A 
ATOM      5  C   UNL d   1      46.187 -18.188  44.117  0.00  0.00     0.281 A 
ATOM      6  C   UNL d   1      46.306 -18.901  43.719  0.00  0.00     0.059 A 
ATOM      7  C   UNL d   1      46.487 -19.628  42.496  0.00  0.00     0.002 A 
ATOM      8  C   UNL d   1      46.428 -18.654  41.593  0.00  0.00     0.019 A 
ATOM      9  C   UNL d   1      46.524 -19.465  41.690  0.00  0.00     0.002 A 
ATOM     10  O   UNL d   1      46.125 -18.173  44.954  0.00  0.00    -0.265 OA
ATOM     11  C   UNL d   1      46.365 -19.607  44.150  0.00  0.00     0.005 A 
ATOM     12  C   UNL d   1      46.545 -20.329  42.923  0.00  0.00     0.000 A 
ATOM     13  C   UNL d   1      46.442 -18.331  40.835  0.00  0.00     0.002 A 
ATOM     14  C   UNL d   1      46.634 -19.958  41.035  0.00  0.00     0.000 A 
ATOM     15  C   UNL d   1      46.485 -20.327  43.749  0.00  0.00     0.000 A 
ATOM     16  C   UNL d   1      46.646 -19.628  40.280  0.00  0.00     0.000 A 
ATOM     17  C   UNL d   1      46.551 -18.819  40.173  0.00  0.00     0.000 A 
ENDROOT
BRANCH   1  18
ATOM     18  C   UNL d   1      46.011 -16.878  44.253  0.00  0.00     0.174 C 
BRANCH  18  19
ATOM     19  C   UNL d   1      45.790 -16.114  44.013  0.00  0.00     0.231 C 
ATOM     20  O   UNL d   1      45.123 -15.768  44.330  0.00  0.00    -0.643 OA
ATOM     21  O   UNL d   1      45.974 -15.487  43.540  0.00  0.00    -0.643 OA
ENDBRANCH  18  19
ENDBRANCH   1  18
TORSDOF 2
ENDMDL
