MODEL 1
REMARK VINA RESULT:      17.8      0.000      0.000
REMARK  6 active torsions:
REMARK  status: ('A' for Active; 'I' for Inactive)
REMARK    1  A    between atoms: N_6  and  C_1 
REMARK    2  A    between atoms: C_7  and  C_2 
REMARK       I    between atoms: C_8  and  N_6 
REMARK    3  A    between atoms: O_14  and  C_7 
REMARK    4  A    between atoms: C_10  and  C_8 
REMARK    5  A    between atoms: N_9  and  C_10 
REMARK    6  A    between atoms: C_21  and  O_14 
ROOT
ATOM      1  C   UNL d   1      46.324 -17.633  43.625  0.00  0.00     0.119 A 
ATOM      2  C   UNL d   1      46.243 -18.279  43.119  0.00  0.00     0.088 A 
ATOM      3  S   UNL d   1      46.465 -17.902  44.377  0.00  0.00    -0.068 SA
ATOM      4  C   UNL d   1      46.336 -18.954  43.570  0.00  0.00     0.013 A 
ATOM      5  C   UNL d   1      46.475 -18.719  44.354  0.00  0.00     0.031 A 
ATOM      6  C   UNL d   1      46.318 -19.762  43.395  0.00  0.00     0.001 A 
ATOM      7  C   UNL d   1      46.593 -19.296  44.954  0.00  0.00     0.006 A 
ATOM      8  C   UNL d   1      46.430 -20.326  43.965  0.00  0.00     0.000 A 
ATOM      9  C   UNL d   1      46.569 -20.091  44.749  0.00  0.00     0.001 A 
ENDROOT
BRANCH   1  10
ATOM     10  N   UNL d   1      46.270 -16.841  43.397  0.00  0.00    -0.200 NA
ATOM     11  C   UNL d   1      46.243 -16.236  43.957  0.00  0.00     0.297 C 
ATOM     12  O   UNL d   1      46.272 -16.452  44.752  0.00  0.00    -0.264 OA
BRANCH  11  13
ATOM     13  C   UNL d   1      46.189 -15.451  43.709  0.00  0.00     0.144 C 
BRANCH  13  14
ATOM     14  N   UNL d   1      45.656 -14.963  44.113  0.00  0.00    -0.295 N 
ATOM     15  C   UNL d   1      45.764 -14.140  44.077  0.00  0.00     0.107 A 
ATOM     16  C   UNL d   1      45.237 -13.648  44.478  0.00  0.00     0.142 A 
ATOM     17  O   UNL d   1      44.618 -13.954  44.905  0.00  0.00    -0.300 OA
ATOM     18  C   UNL d   1      44.510 -14.776  44.941  0.00  0.00     0.142 A 
ATOM     19  C   UNL d   1      45.025 -15.262  44.549  0.00  0.00     0.107 A 
ENDBRANCH  13  14
ENDBRANCH  11  13
ENDBRANCH   1  10
BRANCH   2  20
ATOM     20  C   UNL d   1      46.093 -18.265  42.296  0.00  0.00     0.302 C 
ATOM     21  O   UNL d   1      45.379 -17.929  42.025  0.00  0.00    -0.259 OA
BRANCH  20  22
ATOM     22  O   UNL d   1      46.642 -18.576  41.775  0.00  0.00    -0.271 OA
BRANCH  22  23
ATOM     23  C   UNL d   1      46.597 -18.409  40.977  0.00  0.00     0.126 C 
ATOM     24  C   UNL d   1      46.233 -18.941  40.466  0.00  0.00     0.029 C 
ENDBRANCH  22  23
ENDBRANCH  20  22
ENDBRANCH   2  20
TORSDOF 6
ENDMDL
