MODEL 1
REMARK VINA RESULT:      -5.9      0.000      0.000
REMARK  3 active torsions:
REMARK  status: ('A' for Active; 'I' for Inactive)
REMARK    1  A    between atoms: C_6  and  N_1 
REMARK    2  A    between atoms: C_7  and  O_10 
REMARK    3  A    between atoms: O_10  and  C_13 
ROOT
ATOM      1  C   UNL d   1     -41.580-122.444 -52.865  0.00  0.00     0.070 A 
ATOM      2  C   UNL d   1     -42.135-121.943 -53.236  0.00  0.00     0.020 A 
ATOM      3  C   UNL d   1     -41.130-122.968 -53.318  0.00  0.00     0.020 A 
ATOM      4  C   UNL d   1     -41.771-122.510 -54.512  0.00  0.00     0.105 A 
ATOM      5  C   UNL d   1     -41.220-123.006 -54.136  0.00  0.00     0.026 A 
ATOM      6  C   UNL d   1     -42.225-121.980 -54.056  0.00  0.00     0.026 A 
ENDROOT
BRANCH   1   7
ATOM      7  N   UNL d   1     -41.490-122.407 -52.052  0.00  0.00    -0.242 N 
ATOM      8  C   UNL d   1     -41.281-121.735 -51.585  0.00  0.00     0.267 A 
ATOM      9  C   UNL d   1     -41.262-121.972 -50.815  0.00  0.00     0.066 A 
ATOM     10  O   UNL d   1     -41.123-120.973 -51.849  0.00  0.00    -0.267 OA
ATOM     11  C   UNL d   1     -41.446-122.755 -50.758  0.00  0.00     0.066 A 
ATOM     12  C   UNL d   1     -41.589-123.021 -51.548  0.00  0.00     0.267 A 
ATOM     13  O   UNL d   1     -41.797-123.789 -51.777  0.00  0.00    -0.267 OA
ENDBRANCH   1   7
BRANCH   4  14
ATOM     14  O   UNL d   1     -41.858-122.546 -55.306  0.00  0.00    -0.260 OA
BRANCH  14  15
ATOM     15  C   UNL d   1     -42.159-121.908 -55.713  0.00  0.00     0.391 C 
ATOM     16  F   UNL d   1     -41.669-121.315 -55.957  0.00  0.00    -0.145 F 
ATOM     17  F   UNL d   1     -42.956-121.867 -55.875  0.00  0.00    -0.145 F 
ENDBRANCH  14  15
ENDBRANCH   4  14
TORSDOF 3
ENDMDL
MODEL 2
REMARK VINA RESULT:      -5.5      2.076      2.930
REMARK  3 active torsions:
REMARK  status: ('A' for Active; 'I' for Inactive)
REMARK    1  A    between atoms: C_6  and  N_1 
REMARK    2  A    between atoms: C_7  and  O_10 
REMARK    3  A    between atoms: O_10  and  C_13 
ROOT
ATOM      1  C   UNL d   1     -41.982-122.986 -50.209  0.00  0.00     0.070 A 
ATOM      2  C   UNL d   1     -42.145-122.200 -50.440  0.00  0.00     0.020 A 
ATOM      3  C   UNL d   1     -41.536-123.476 -50.701  0.00  0.00     0.020 A 
ATOM      4  C   UNL d   1     -41.404-122.423 -51.659  0.00  0.00     0.105 A 
ATOM      5  C   UNL d   1     -41.247-123.204 -51.421  0.00  0.00     0.026 A 
ATOM      6  C   UNL d   1     -41.854-121.926 -51.163  0.00  0.00     0.026 A 
ENDROOT
BRANCH   1   7
ATOM      7  N   UNL d   1     -42.270-123.257 -49.492  0.00  0.00    -0.242 N 
ATOM      8  C   UNL d   1     -41.900-123.209 -48.734  0.00  0.00     0.267 A 
ATOM      9  C   UNL d   1     -42.396-123.551 -48.200  0.00  0.00     0.066 A 
ATOM     10  O   UNL d   1     -41.168-122.878 -48.556  0.00  0.00    -0.267 OA
ATOM     11  C   UNL d   1     -43.064-123.816 -48.568  0.00  0.00     0.066 A 
ATOM     12  C   UNL d   1     -42.973-123.624 -49.387  0.00  0.00     0.267 A 
ATOM     13  O   UNL d   1     -43.516-123.785 -49.991  0.00  0.00    -0.267 OA
ENDBRANCH   1   7
BRANCH   4  14
ATOM     14  O   UNL d   1     -41.123-122.158 -52.359  0.00  0.00    -0.260 OA
BRANCH  14  15
ATOM     15  C   UNL d   1     -41.500-122.359 -53.053  0.00  0.00     0.391 C 
ATOM     16  F   UNL d   1     -41.354-123.072 -53.401  0.00  0.00    -0.145 F 
ATOM     17  F   UNL d   1     -42.025-121.841 -53.396  0.00  0.00    -0.145 F 
ENDBRANCH  14  15
ENDBRANCH   4  14
TORSDOF 3
ENDMDL
MODEL 3
REMARK VINA RESULT:      -5.1      2.287      3.677
REMARK  3 active torsions:
REMARK  status: ('A' for Active; 'I' for Inactive)
REMARK    1  A    between atoms: C_6  and  N_1 
REMARK    2  A    between atoms: C_7  and  O_10 
REMARK    3  A    between atoms: O_10  and  C_13 
ROOT
ATOM      1  C   UNL d   1     -41.646-122.594 -53.270  0.00  0.00     0.070 A 
ATOM      2  C   UNL d   1     -41.684-123.366 -52.952  0.00  0.00     0.020 A 
ATOM      3  C   UNL d   1     -41.434-121.959 -52.786  0.00  0.00     0.020 A 
ATOM      4  C   UNL d   1     -41.294-122.837 -51.667  0.00  0.00     0.105 A 
ATOM      5  C   UNL d   1     -41.258-122.073 -51.990  0.00  0.00     0.026 A 
ATOM      6  C   UNL d   1     -41.507-123.480 -52.153  0.00  0.00     0.026 A 
ENDROOT
BRANCH   1   7
ATOM      7  N   UNL d   1     -41.821-122.481 -54.062  0.00  0.00    -0.242 N 
ATOM      8  C   UNL d   1     -42.274-121.857 -54.407  0.00  0.00     0.267 A 
ATOM      9  C   UNL d   1     -42.293-121.983 -55.203  0.00  0.00     0.066 A 
ATOM     10  O   UNL d   1     -42.638-121.230 -54.019  0.00  0.00    -0.267 OA
ATOM     11  C   UNL d   1     -41.878-122.650 -55.390  0.00  0.00     0.066 A 
ATOM     12  C   UNL d   1     -41.583-122.957 -54.659  0.00  0.00     0.267 A 
ATOM     13  O   UNL d   1     -41.123-123.638 -54.564  0.00  0.00    -0.267 OA
ENDBRANCH   1   7
BRANCH   4  14
ATOM     14  O   UNL d   1     -41.123-122.948 -50.893  0.00  0.00    -0.260 OA
BRANCH  14  15
ATOM     15  C   UNL d   1     -41.724-123.013 -50.348  0.00  0.00     0.391 C 
ATOM     16  F   UNL d   1     -41.978-123.741 -50.111  0.00  0.00    -0.145 F 
ATOM     17  F   UNL d   1     -42.070-122.344 -50.041  0.00  0.00    -0.145 F 
ENDBRANCH  14  15
ENDBRANCH   4  14
TORSDOF 3
ENDMDL
MODEL 4
REMARK VINA RESULT:      -4.3      2.782      4.255
REMARK  3 active torsions:
REMARK  status: ('A' for Active; 'I' for Inactive)
REMARK    1  A    between atoms: C_6  and  N_1 
REMARK    2  A    between atoms: C_7  and  O_10 
REMARK    3  A    between atoms: O_10  and  C_13 
ROOT
ATOM      1  C   UNL d   1     -41.657-122.553 -51.530  0.00  0.00     0.070 A 
ATOM      2  C   UNL d   1     -41.123-123.009 -51.077  0.00  0.00     0.020 A 
ATOM      3  C   UNL d   1     -42.321-122.219 -51.170  0.00  0.00     0.020 A 
ATOM      4  C   UNL d   1     -41.941-122.779 -49.911  0.00  0.00     0.105 A 
ATOM      5  C   UNL d   1     -42.468-122.327 -50.367  0.00  0.00     0.026 A 
ATOM      6  C   UNL d   1     -41.270-123.117 -50.271  0.00  0.00     0.026 A 
ENDROOT
BRANCH   1   7
ATOM      7  N   UNL d   1     -41.511-122.446 -52.328  0.00  0.00    -0.242 N 
ATOM      8  C   UNL d   1     -41.586-123.014 -52.949  0.00  0.00     0.267 A 
ATOM      9  C   UNL d   1     -41.382-122.649 -53.637  0.00  0.00     0.066 A 
ATOM     10  O   UNL d   1     -41.822-123.799 -52.881  0.00  0.00    -0.267 OA
ATOM     11  C   UNL d   1     -41.180-121.881 -53.497  0.00  0.00     0.066 A 
ATOM     12  C   UNL d   1     -41.266-121.762 -52.664  0.00  0.00     0.267 A 
ATOM     13  O   UNL d   1     -41.123-121.060 -52.251  0.00  0.00    -0.267 OA
ENDBRANCH   1   7
BRANCH   4  14
ATOM     14  O   UNL d   1     -42.083-122.884 -49.130  0.00  0.00    -0.260 OA
BRANCH  14  15
ATOM     15  C   UNL d   1     -42.842-123.025 -48.870  0.00  0.00     0.391 C 
ATOM     16  F   UNL d   1     -43.304-122.414 -48.617  0.00  0.00    -0.145 F 
ATOM     17  F   UNL d   1     -43.136-123.784 -48.863  0.00  0.00    -0.145 F 
ENDBRANCH  14  15
ENDBRANCH   4  14
TORSDOF 3
ENDMDL
MODEL 5
REMARK VINA RESULT:      -3.4      1.695      2.446
REMARK  3 active torsions:
REMARK  status: ('A' for Active; 'I' for Inactive)
REMARK    1  A    between atoms: C_6  and  N_1 
REMARK    2  A    between atoms: C_7  and  O_10 
REMARK    3  A    between atoms: O_10  and  C_13 
ROOT
ATOM      1  C   UNL d   1     -42.119-122.612 -50.833  0.00  0.00     0.070 A 
ATOM      2  C   UNL d   1     -42.274-123.039 -51.534  0.00  0.00     0.020 A 
ATOM      3  C   UNL d   1     -41.688-121.909 -50.865  0.00  0.00     0.020 A 
ATOM      4  C   UNL d   1     -41.555-122.037 -52.283  0.00  0.00     0.105 A 
ATOM      5  C   UNL d   1     -41.405-121.618 -51.582  0.00  0.00     0.026 A 
ATOM      6  C   UNL d   1     -41.990-122.748 -52.252  0.00  0.00     0.026 A 
ENDROOT
BRANCH   1   7
ATOM      7  N   UNL d   1     -42.400-122.901 -50.120  0.00  0.00    -0.242 N 
ATOM      8  C   UNL d   1     -43.195-122.887 -49.834  0.00  0.00     0.267 A 
ATOM      9  C   UNL d   1     -43.197-123.236 -49.107  0.00  0.00     0.066 A 
ATOM     10  O   UNL d   1     -43.857-122.578 -50.212  0.00  0.00    -0.267 OA
ATOM     11  C   UNL d   1     -42.452-123.474 -48.910  0.00  0.00     0.066 A 
ATOM     12  C   UNL d   1     -41.955-123.256 -49.558  0.00  0.00     0.267 A 
ATOM     13  O   UNL d   1     -41.139-123.385 -49.616  0.00  0.00    -0.267 OA
ENDBRANCH   1   7
BRANCH   4  14
ATOM     14  O   UNL d   1     -41.280-121.755 -52.979  0.00  0.00    -0.260 OA
BRANCH  14  15
ATOM     15  C   UNL d   1     -41.607-122.010 -53.681  0.00  0.00     0.391 C 
ATOM     16  F   UNL d   1     -41.179-122.476 -54.181  0.00  0.00    -0.145 F 
ATOM     17  F   UNL d   1     -42.367-121.795 -53.878  0.00  0.00    -0.145 F 
ENDBRANCH  14  15
ENDBRANCH   4  14
TORSDOF 3
ENDMDL
