MODEL 1
REMARK VINA RESULT:      -6.4      0.000      0.000
REMARK  9 active torsions:
REMARK  status: ('A' for Active; 'I' for Inactive)
REMARK    1  A    between atoms: C_17  and  N_1 
REMARK    2  A    between atoms: S_10  and  C_2 
REMARK    3  A    between atoms: N_8  and  C_9 
REMARK    4  A    between atoms: C_19  and  S_10 
REMARK    5  A    between atoms: C_11  and  C_19 
REMARK       I    between atoms: N_13  and  C_11 
REMARK    6  A    between atoms: C_20  and  N_13 
REMARK    7  A    between atoms: C_28  and  C_17 
REMARK    8  A    between atoms: C_23  and  C_20 
REMARK    9  A    between atoms: C_29  and  C_28 
ROOT
ATOM      1  N   UNL d   1     -45.669  12.167  22.745  0.00  0.00    -0.253 N 
ATOM      2  C   UNL d   1     -45.241  12.800  22.433  0.00  0.00     0.182 A 
ATOM      3  C   UNL d   1     -46.465  12.272  22.959  0.00  0.00     0.268 A 
ATOM      4  C   UNL d   1     -46.826  13.005  22.861  0.00  0.00     0.076 A 
ATOM      5  N   UNL d   1     -45.610  13.538  22.336  0.00  0.00    -0.222 NA
ATOM      6  C   UNL d   1     -46.399  13.638  22.549  0.00  0.00     0.088 A 
ATOM      7  C   UNL d   1     -47.615  13.105  23.074  0.00  0.00     0.024 A 
ATOM      8  C   UNL d   1     -47.977  13.839  22.976  0.00  0.00     0.065 A 
ATOM      9  O   UNL d   1     -46.892  11.638  23.271  0.00  0.00    -0.267 OA
ATOM     10  C   UNL d   1     -46.760  14.371  22.451  0.00  0.00     0.021 A 
ATOM     11  C   UNL d   1     -47.549  14.472  22.664  0.00  0.00     0.019 A 
ENDROOT
BRANCH   2  12
ATOM     12  S   UNL d   1     -44.448  12.700  22.218  0.00  0.00    -0.044 SA
BRANCH  12  13
ATOM     13  C   UNL d   1     -44.091  13.225  21.677  0.00  0.00     0.101 C 
BRANCH  13  14
ATOM     14  C   UNL d   1     -43.322  13.077  21.406  0.00  0.00     0.286 C 
ATOM     15  N   UNL d   1     -42.751  13.678  21.443  0.00  0.00    -0.206 NA
ATOM     16  O   UNL d   1     -43.133  12.334  21.101  0.00  0.00    -0.265 OA
BRANCH  15  17
ATOM     17  C   UNL d   1     -41.978  13.527  21.169  0.00  0.00     0.102 C 
BRANCH  17  18
ATOM     18  C   UNL d   1     -41.442  14.156  21.088  0.00  0.00     0.019 A 
ATOM     19  C   UNL d   1     -41.715  14.908  20.886  0.00  0.00     0.002 A 
ATOM     20  C   UNL d   1     -41.187  15.535  20.805  0.00  0.00     0.000 A 
ATOM     21  C   UNL d   1     -40.366  15.404  20.929  0.00  0.00     0.000 A 
ATOM     22  C   UNL d   1     -40.094  14.652  21.131  0.00  0.00     0.000 A 
ATOM     23  C   UNL d   1     -40.629  14.022  21.212  0.00  0.00     0.002 A 
ENDBRANCH  17  18
ENDBRANCH  15  17
ENDBRANCH  13  14
ENDBRANCH  12  13
ENDBRANCH   2  12
BRANCH   1  24
ATOM     24  C   UNL d   1     -45.305  11.431  22.843  0.00  0.00     0.085 C 
BRANCH  24  25
ATOM     25  C   UNL d   1     -45.200  11.121  23.600  0.00  0.00     0.019 C 
BRANCH  25  26
ATOM     26  C   UNL d   1     -45.073  10.306  23.697  0.00  0.00     0.002 C 
ATOM     27  C   UNL d   1     -44.304  10.006  23.698  0.00  0.00     0.000 C 
ENDBRANCH  25  26
ENDBRANCH  24  25
ENDBRANCH   1  24
BRANCH   8  28
ATOM     28  N   UNL d   1     -48.765  13.938  23.189  0.00  0.00    -0.300 N 
ATOM     29  C   UNL d   1     -49.249  13.278  23.287  0.00  0.00     0.107 A 
ATOM     30  C   UNL d   1     -50.050  13.373  23.503  0.00  0.00     0.142 A 
ATOM     31  O   UNL d   1     -50.358  14.138  23.621  0.00  0.00    -0.300 OA
ATOM     32  C   UNL d   1     -49.863  14.802  23.521  0.00  0.00     0.142 A 
ATOM     33  C   UNL d   1     -49.073  14.703  23.307  0.00  0.00     0.107 A 
ENDBRANCH   8  28
TORSDOF 9
ENDMDL
MODEL 2
REMARK VINA RESULT:      -5.8      2.864      7.746
REMARK  9 active torsions:
REMARK  status: ('A' for Active; 'I' for Inactive)
REMARK    1  A    between atoms: C_17  and  N_1 
REMARK    2  A    between atoms: S_10  and  C_2 
REMARK    3  A    between atoms: N_8  and  C_9 
REMARK    4  A    between atoms: C_19  and  S_10 
REMARK    5  A    between atoms: C_11  and  C_19 
REMARK       I    between atoms: N_13  and  C_11 
REMARK    6  A    between atoms: C_20  and  N_13 
REMARK    7  A    between atoms: C_28  and  C_17 
REMARK    8  A    between atoms: C_23  and  C_20 
REMARK    9  A    between atoms: C_29  and  C_28 
ROOT
ATOM      1  N   UNL d   1     -40.421  14.201  20.758  0.00  0.00    -0.253 N 
ATOM      2  C   UNL d   1     -41.159  13.915  20.526  0.00  0.00     0.182 A 
ATOM      3  C   UNL d   1     -39.875  14.449  20.183  0.00  0.00     0.268 A 
ATOM      4  C   UNL d   1     -40.070  14.410  19.384  0.00  0.00     0.076 A 
ATOM      5  N   UNL d   1     -41.351  13.877  19.719  0.00  0.00    -0.222 NA
ATOM      6  C   UNL d   1     -40.808  14.124  19.151  0.00  0.00     0.088 A 
ATOM      7  C   UNL d   1     -39.526  14.656  18.818  0.00  0.00     0.024 A 
ATOM      8  C   UNL d   1     -39.720  14.617  18.018  0.00  0.00     0.065 A 
ATOM      9  O   UNL d   1     -39.137  14.735  20.416  0.00  0.00    -0.267 OA
ATOM     10  C   UNL d   1     -41.002  14.084  18.353  0.00  0.00     0.021 A 
ATOM     11  C   UNL d   1     -40.458  14.331  17.786  0.00  0.00     0.019 A 
ENDROOT
BRANCH   2  12
ATOM     12  S   UNL d   1     -41.707  13.666  21.095  0.00  0.00    -0.044 SA
BRANCH  12  13
ATOM     13  C   UNL d   1     -42.501  13.529  20.881  0.00  0.00     0.101 C 
BRANCH  13  14
ATOM     14  C   UNL d   1     -42.981  13.055  21.362  0.00  0.00     0.286 C 
ATOM     15  N   UNL d   1     -43.760  13.292  21.525  0.00  0.00    -0.206 NA
ATOM     16  O   UNL d   1     -42.680  12.353  21.674  0.00  0.00    -0.265 OA
BRANCH  15  17
ATOM     17  C   UNL d   1     -44.241  12.814  22.009  0.00  0.00     0.102 C 
BRANCH  17  18
ATOM     18  C   UNL d   1     -44.986  13.093  22.249  0.00  0.00     0.019 A 
ATOM     19  C   UNL d   1     -45.554  12.564  22.528  0.00  0.00     0.002 A 
ATOM     20  C   UNL d   1     -46.294  12.836  22.768  0.00  0.00     0.000 A 
ATOM     21  C   UNL d   1     -46.468  13.657  22.726  0.00  0.00     0.000 A 
ATOM     22  C   UNL d   1     -45.899  14.185  22.447  0.00  0.00     0.000 A 
ATOM     23  C   UNL d   1     -45.154  13.908  22.206  0.00  0.00     0.002 A 
ENDBRANCH  17  18
ENDBRANCH  15  17
ENDBRANCH  13  14
ENDBRANCH  12  13
ENDBRANCH   2  12
BRANCH   1  24
ATOM     24  C   UNL d   1     -40.228  14.240  21.561  0.00  0.00     0.085 C 
BRANCH  24  25
ATOM     25  C   UNL d   1     -39.613  13.777  21.859  0.00  0.00     0.019 C 
BRANCH  25  26
ATOM     26  C   UNL d   1     -39.340  13.905  22.633  0.00  0.00     0.002 C 
ATOM     27  C   UNL d   1     -38.767  13.406  22.956  0.00  0.00     0.000 C 
ENDBRANCH  25  26
ENDBRANCH  24  25
ENDBRANCH   1  24
BRANCH   8  28
ATOM     28  N   UNL d   1     -39.176  14.864  17.452  0.00  0.00    -0.300 N 
ATOM     29  C   UNL d   1     -39.108  15.665  17.271  0.00  0.00     0.107 A 
ATOM     30  C   UNL d   1     -38.559  15.921  16.698  0.00  0.00     0.142 A 
ATOM     31  O   UNL d   1     -38.078  15.363  16.309  0.00  0.00    -0.300 OA
ATOM     32  C   UNL d   1     -38.151  14.553  16.496  0.00  0.00     0.142 A 
ATOM     33  C   UNL d   1     -38.695  14.306  17.063  0.00  0.00     0.107 A 
ENDBRANCH   8  28
TORSDOF 9
ENDMDL
