MODEL 1
REMARK VINA RESULT:      -3.5      0.000      0.000
REMARK  7 active torsions:
REMARK  status: ('A' for Active; 'I' for Inactive)
REMARK    1  A    between atoms: N_4  and  C_2 
REMARK    2  A    between atoms: S_9  and  C_3 
REMARK    3  A    between atoms: C_8  and  C_13 
REMARK    4  A    between atoms: O_11  and  C_8 
REMARK    5  A    between atoms: C_13  and  S_9 
REMARK    6  A    between atoms: C_14  and  O_11 
REMARK    7  A    between atoms: C_17  and  C_14 
ROOT
ATOM      1  N   UNL d   1     -41.906-122.586 -49.442  0.00  0.00    -0.203 NA
ATOM      2  C   UNL d   1     -42.414-122.944 -48.902  0.00  0.00     0.152 A 
ATOM      3  C   UNL d   1     -42.192-122.335 -50.178  0.00  0.00     0.196 A 
ATOM      4  C   UNL d   1     -43.206-123.053 -49.095  0.00  0.00     0.057 A 
ATOM      5  N   UNL d   1     -42.986-122.444 -50.371  0.00  0.00    -0.221 NA
ATOM      6  C   UNL d   1     -43.493-122.802 -49.831  0.00  0.00     0.087 A 
ATOM      7  C   UNL d   1     -44.290-122.912 -50.023  0.00  0.00     0.021 C 
ENDROOT
BRANCH   3   8
ATOM      8  S   UNL d   1     -41.677-121.973 -50.721  0.00  0.00    -0.043 SA
BRANCH   8   9
ATOM      9  C   UNL d   1     -41.500-122.351 -51.432  0.00  0.00     0.107 C 
BRANCH   9  10
ATOM     10  C   UNL d   1     -41.367-121.903 -52.111  0.00  0.00     0.307 C 
ATOM     11  O   UNL d   1     -41.123-121.121 -52.053  0.00  0.00    -0.258 OA
BRANCH  10  12
ATOM     12  O   UNL d   1     -41.481-122.244 -52.857  0.00  0.00    -0.271 OA
BRANCH  12  13
ATOM     13  C   UNL d   1     -41.503-121.769 -53.530  0.00  0.00     0.126 C 
BRANCH  13  14
ATOM     14  C   UNL d   1     -41.774-122.077 -54.246  0.00  0.00     0.025 A 
ATOM     15  C   UNL d   1     -41.594-122.865 -54.444  0.00  0.00     0.002 A 
ATOM     16  C   UNL d   1     -41.864-123.174 -55.160  0.00  0.00     0.000 A 
ATOM     17  C   UNL d   1     -42.313-122.693 -55.673  0.00  0.00     0.000 A 
ATOM     18  C   UNL d   1     -42.483-121.912 -55.461  0.00  0.00     0.000 A 
ATOM     19  C   UNL d   1     -42.215-121.606 -54.752  0.00  0.00     0.002 A 
ENDBRANCH  13  14
ENDBRANCH  12  13
ENDBRANCH  10  12
ENDBRANCH   9  10
ENDBRANCH   8   9
ENDBRANCH   3   8
BRANCH   2  20
ATOM     20  N   UNL d   1     -42.132-123.195 -48.168  0.00  0.00    -0.285 N 
ATOM     21  C   UNL d   1     -42.589-123.069 -47.490  0.00  0.00     0.108 A 
ATOM     22  C   UNL d   1     -42.312-123.318 -46.758  0.00  0.00     0.142 A 
ATOM     23  O   UNL d   1     -41.580-123.691 -46.700  0.00  0.00    -0.300 OA
ATOM     24  C   UNL d   1     -41.125-123.817 -47.377  0.00  0.00     0.142 A 
ATOM     25  C   UNL d   1     -41.403-123.568 -48.112  0.00  0.00     0.108 A 
ENDBRANCH   2  20
TORSDOF 7
ENDMDL
