MODEL 1
REMARK VINA RESULT:      -4.3      0.000      0.000
REMARK  6 active torsions:
REMARK  status: ('A' for Active; 'I' for Inactive)
REMARK       I    between atoms: C_2  and  N_1 
REMARK    1  A    between atoms: C_5  and  N_1 
REMARK    2  A    between atoms: C_4  and  C_2 
REMARK    3  A    between atoms: C_3  and  C_6 
REMARK    4  A    between atoms: C_6  and  C_4 
REMARK    5  A    between atoms: O_11  and  C_7 
REMARK    6  A    between atoms: C_14  and  O_11 
ROOT
ATOM      1  C   UNL d   1      58.149  -0.495  30.125  0.00  0.00     0.107 A 
ATOM      2  C   UNL d   1      58.620  -0.953  29.618  0.00  0.00     0.118 A 
ATOM      3  C   UNL d   1      58.256   0.295  30.179  0.00  0.00     0.021 A 
ATOM      4  C   UNL d   1      59.204  -0.586  29.165  0.00  0.00     0.026 A 
ATOM      5  C   UNL d   1      58.839   0.681  29.731  0.00  0.00     0.002 A 
ATOM      6  C   UNL d   1      59.308   0.254  29.231  0.00  0.00     0.002 A 
ENDROOT
BRANCH   1   7
ATOM      7  N   UNL d   1      57.561  -0.863  30.582  0.00  0.00    -0.206 NA
ATOM      8  C   UNL d   1      57.292  -0.518  31.278  0.00  0.00     0.280 C 
ATOM      9  O   UNL d   1      57.598   0.183  31.525  0.00  0.00    -0.265 OA
BRANCH   8  10
ATOM     10  C   UNL d   1      56.695  -0.894  31.739  0.00  0.00     0.068 C 
BRANCH  10  11
ATOM     11  C   UNL d   1      56.584  -0.680  32.524  0.00  0.00     0.069 C 
BRANCH  11  12
ATOM     12  C   UNL d   1      55.995  -1.037  32.955  0.00  0.00     0.297 C 
ATOM     13  O   UNL d   1      55.982  -1.860  33.019  0.00  0.00    -0.264 OA
ATOM     14  N   UNL d   1      55.407  -0.602  33.331  0.00  0.00    -0.102 N 
ENDBRANCH  11  12
ENDBRANCH  10  11
ENDBRANCH   8  10
ENDBRANCH   1   7
BRANCH   2  15
ATOM     15  O   UNL d   1      58.513  -1.779  29.558  0.00  0.00    -0.304 OA
BRANCH  15  16
ATOM     16  C   UNL d   1      58.968  -2.223  29.016  0.00  0.00     0.123 C 
ATOM     17  C   UNL d   1      58.857  -3.047  28.999  0.00  0.00     0.029 C 
ENDBRANCH  15  16
ENDBRANCH   2  15
TORSDOF 6
ENDMDL
MODEL 2
REMARK VINA RESULT:      -3.3      1.487      1.961
REMARK  6 active torsions:
REMARK  status: ('A' for Active; 'I' for Inactive)
REMARK       I    between atoms: C_2  and  N_1 
REMARK    1  A    between atoms: C_5  and  N_1 
REMARK    2  A    between atoms: C_4  and  C_2 
REMARK    3  A    between atoms: C_3  and  C_6 
REMARK    4  A    between atoms: C_6  and  C_4 
REMARK    5  A    between atoms: O_11  and  C_7 
REMARK    6  A    between atoms: C_14  and  O_11 
ROOT
ATOM      1  C   UNL d   1      58.583   0.565  30.108  0.00  0.00     0.107 A 
ATOM      2  C   UNL d   1      59.411   0.621  30.107  0.00  0.00     0.118 A 
ATOM      3  C   UNL d   1      58.174   0.550  29.422  0.00  0.00     0.021 A 
ATOM      4  C   UNL d   1      59.814   0.662  29.388  0.00  0.00     0.026 A 
ATOM      5  C   UNL d   1      58.563   0.589  28.689  0.00  0.00     0.002 A 
ATOM      6  C   UNL d   1      59.369   0.645  28.666  0.00  0.00     0.002 A 
ENDROOT
BRANCH   1   7
ATOM      7  N   UNL d   1      58.177   0.524  30.831  0.00  0.00    -0.206 NA
ATOM      8  C   UNL d   1      57.573  -0.024  30.943  0.00  0.00     0.280 C 
ATOM      9  O   UNL d   1      57.370  -0.527  30.350  0.00  0.00    -0.265 OA
BRANCH   8  10
ATOM     10  C   UNL d   1      57.162  -0.063  31.678  0.00  0.00     0.068 C 
BRANCH  10  11
ATOM     11  C   UNL d   1      56.668  -0.699  31.841  0.00  0.00     0.069 C 
BRANCH  11  12
ATOM     12  C   UNL d   1      56.320  -0.754  32.573  0.00  0.00     0.297 C 
ATOM     13  O   UNL d   1      56.403  -1.449  33.009  0.00  0.00    -0.264 OA
ATOM     14  N   UNL d   1      55.884  -0.135  32.894  0.00  0.00    -0.102 N 
ENDBRANCH  11  12
ENDBRANCH  10  11
ENDBRANCH   8  10
ENDBRANCH   1   7
BRANCH   2  15
ATOM     15  O   UNL d   1      59.844   0.637  30.821  0.00  0.00    -0.304 OA
BRANCH  15  16
ATOM     16  C   UNL d   1      60.678   0.679  30.806  0.00  0.00     0.123 C 
ATOM     17  C   UNL d   1      61.081   0.676  31.533  0.00  0.00     0.029 C 
ENDBRANCH  15  16
ENDBRANCH   2  15
TORSDOF 6
ENDMDL
MODEL 3
REMARK VINA RESULT:      -3.1      1.418      3.747
REMARK  6 active torsions:
REMARK  status: ('A' for Active; 'I' for Inactive)
REMARK       I    between atoms: C_2  and  N_1 
REMARK    1  A    between atoms: C_5  and  N_1 
REMARK    2  A    between atoms: C_4  and  C_2 
REMARK    3  A    between atoms: C_3  and  C_6 
REMARK    4  A    between atoms: C_6  and  C_4 
REMARK    5  A    between atoms: O_11  and  C_7 
REMARK    6  A    between atoms: C_14  and  O_11 
ROOT
ATOM      1  C   UNL d   1      57.861  -0.861  30.584  0.00  0.00     0.107 A 
ATOM      2  C   UNL d   1      57.382  -0.674  31.236  0.00  0.00     0.118 A 
ATOM      3  C   UNL d   1      58.321  -0.305  30.241  0.00  0.00     0.021 A 
ATOM      4  C   UNL d   1      57.385   0.097  31.532  0.00  0.00     0.026 A 
ATOM      5  C   UNL d   1      58.336   0.475  30.526  0.00  0.00     0.002 A 
ATOM      6  C   UNL d   1      57.878   0.679  31.160  0.00  0.00     0.002 A 
ENDROOT
BRANCH   1   7
ATOM      7  N   UNL d   1      57.859  -1.636  30.285  0.00  0.00    -0.206 NA
ATOM      8  C   UNL d   1      58.359  -1.849  29.667  0.00  0.00     0.280 C 
ATOM      9  O   UNL d   1      58.856  -1.305  29.345  0.00  0.00    -0.265 OA
BRANCH   8  10
ATOM     10  C   UNL d   1      58.355  -2.637  29.366  0.00  0.00     0.068 C 
BRANCH  10  11
ATOM     11  C   UNL d   1      58.920  -2.870  28.817  0.00  0.00     0.069 C 
BRANCH  11  12
ATOM     12  C   UNL d   1      58.986  -3.657  28.626  0.00  0.00     0.297 C 
ATOM     13  O   UNL d   1      58.304  -4.105  28.508  0.00  0.00    -0.264 OA
ATOM     14  N   UNL d   1      59.718  -4.023  28.547  0.00  0.00    -0.102 N 
ENDBRANCH  11  12
ENDBRANCH  10  11
ENDBRANCH   8  10
ENDBRANCH   1   7
BRANCH   2  15
ATOM     15  O   UNL d   1      56.899  -1.250  31.597  0.00  0.00    -0.304 OA
BRANCH  15  16
ATOM     16  C   UNL d   1      56.435  -1.052  32.263  0.00  0.00     0.123 C 
ATOM     17  C   UNL d   1      55.993  -1.658  32.623  0.00  0.00     0.029 C 
ENDBRANCH  15  16
ENDBRANCH   2  15
TORSDOF 6
ENDMDL
MODEL 4
REMARK VINA RESULT:      -1.9      9.077      9.317
REMARK  6 active torsions:
REMARK  status: ('A' for Active; 'I' for Inactive)
REMARK       I    between atoms: C_2  and  N_1 
REMARK    1  A    between atoms: C_5  and  N_1 
REMARK    2  A    between atoms: C_4  and  C_2 
REMARK    3  A    between atoms: C_3  and  C_6 
REMARK    4  A    between atoms: C_6  and  C_4 
REMARK    5  A    between atoms: O_11  and  C_7 
REMARK    6  A    between atoms: C_14  and  O_11 
ROOT
ATOM      1  C   UNL d   1      58.366  -9.813  31.335  0.00  0.00     0.107 A 
ATOM      2  C   UNL d   1      58.484  -9.815  30.514  0.00  0.00     0.118 A 
ATOM      3  C   UNL d   1      57.628  -9.812  31.643  0.00  0.00     0.021 A 
ATOM      4  C   UNL d   1      57.829  -9.816  30.011  0.00  0.00     0.026 A 
ATOM      5  C   UNL d   1      56.959  -9.813  31.152  0.00  0.00     0.002 A 
ATOM      6  C   UNL d   1      57.050  -9.814  30.349  0.00  0.00     0.002 A 
ENDROOT
BRANCH   1   7
ATOM      7  N   UNL d   1      59.024  -9.813  31.843  0.00  0.00    -0.206 NA
ATOM      8  C   UNL d   1      58.924  -9.799  32.659  0.00  0.00     0.280 C 
ATOM      9  O   UNL d   1      58.185  -9.787  32.975  0.00  0.00    -0.265 OA
BRANCH   8  10
ATOM     10  C   UNL d   1      59.594  -9.799  33.171  0.00  0.00     0.068 C 
BRANCH  10  11
ATOM     11  C   UNL d   1      59.551  -9.431  33.904  0.00  0.00     0.069 C 
BRANCH  11  12
ATOM     12  C   UNL d   1      60.233  -9.316  34.332  0.00  0.00     0.297 C 
ATOM     13  O   UNL d   1      60.258  -9.545  35.124  0.00  0.00    -0.264 OA
ATOM     14  N   UNL d   1      60.903  -8.977  33.996  0.00  0.00    -0.102 N 
ENDBRANCH  11  12
ENDBRANCH  10  11
ENDBRANCH   8  10
ENDBRANCH   1   7
BRANCH   2  15
ATOM     15  O   UNL d   1      59.251  -9.817  30.187  0.00  0.00    -0.304 OA
BRANCH  15  16
ATOM     16  C   UNL d   1      59.365  -9.642  29.378  0.00  0.00     0.123 C 
ATOM     17  C   UNL d   1      60.118  -9.775  29.053  0.00  0.00     0.029 C 
ENDBRANCH  15  16
ENDBRANCH   2  15
TORSDOF 6
ENDMDL
MODEL 5
REMARK VINA RESULT:      -1.6      1.479      4.037
REMARK  6 active torsions:
REMARK  status: ('A' for Active; 'I' for Inactive)
REMARK       I    between atoms: C_2  and  N_1 
REMARK    1  A    between atoms: C_5  and  N_1 
REMARK    2  A    between atoms: C_4  and  C_2 
REMARK    3  A    between atoms: C_3  and  C_6 
REMARK    4  A    between atoms: C_6  and  C_4 
REMARK    5  A    between atoms: O_11  and  C_7 
REMARK    6  A    between atoms: C_14  and  O_11 
ROOT
ATOM      1  C   UNL d   1      57.357   0.142  32.371  0.00  0.00     0.107 A 
ATOM      2  C   UNL d   1      56.715  -0.040  32.864  0.00  0.00     0.118 A 
ATOM      3  C   UNL d   1      58.013   0.491  32.665  0.00  0.00     0.021 A 
ATOM      4  C   UNL d   1      56.757   0.143  33.668  0.00  0.00     0.026 A 
ATOM      5  C   UNL d   1      58.073   0.682  33.471  0.00  0.00     0.002 A 
ATOM      6  C   UNL d   1      57.459   0.514  33.969  0.00  0.00     0.002 A 
ENDROOT
BRANCH   1   7
ATOM      7  N   UNL d   1      57.316  -0.041  31.562  0.00  0.00    -0.206 NA
ATOM      8  C   UNL d   1      57.890   0.231  31.039  0.00  0.00     0.280 C 
ATOM      9  O   UNL d   1      58.501   0.679  31.309  0.00  0.00    -0.265 OA
BRANCH   8  10
ATOM     10  C   UNL d   1      57.846   0.043  30.219  0.00  0.00     0.068 C 
BRANCH  10  11
ATOM     11  C   UNL d   1      58.527  -0.152  29.803  0.00  0.00     0.069 C 
BRANCH  11  12
ATOM     12  C   UNL d   1      58.482  -0.273  29.001  0.00  0.00     0.297 C 
ATOM     13  O   UNL d   1      58.177   0.322  28.517  0.00  0.00    -0.264 OA
ATOM     14  N   UNL d   1      58.732  -0.976  28.654  0.00  0.00    -0.102 N 
ENDBRANCH  11  12
ENDBRANCH  10  11
ENDBRANCH   8  10
ENDBRANCH   1   7
BRANCH   2  15
ATOM     15  O   UNL d   1      56.028  -0.404  32.562  0.00  0.00    -0.304 OA
BRANCH  15  16
ATOM     16  C   UNL d   1      55.503  -0.803  33.075  0.00  0.00     0.123 C 
ATOM     17  C   UNL d   1      55.387  -1.618  32.957  0.00  0.00     0.029 C 
ENDBRANCH  15  16
ENDBRANCH   2  15
TORSDOF 6
ENDMDL
