MODEL 1
REMARK VINA RESULT:      -7.1      0.000      0.000
REMARK  5 active torsions:
REMARK  status: ('A' for Active; 'I' for Inactive)
REMARK    1  A    between atoms: C_14  and  N_1 
REMARK    2  A    between atoms: C_13  and  C_3 
REMARK    3  A    between atoms: C_4  and  S_11 
REMARK    4  A    between atoms: S_11  and  C_13 
REMARK    5  A    between atoms: C_15  and  C_14 
ROOT
ATOM      1  S   UNL d   1      53.861  32.598  54.042  0.00  0.00    -0.058 SA
ENDROOT
BRANCH   1   2
ATOM      2  C   UNL d   1      53.637  31.834  53.863  0.00  0.00     0.141 A 
ATOM      3  N   UNL d   1      53.284  31.593  53.154  0.00  0.00    -0.232 NA
ATOM      4  C   UNL d   1      53.151  30.787  53.206  0.00  0.00     0.088 A 
ATOM      5  C   UNL d   1      52.823  30.237  52.691  0.00  0.00     0.020 A 
ATOM      6  C   UNL d   1      53.422  30.534  53.946  0.00  0.00     0.049 A 
ATOM      7  C   UNL d   1      52.760  29.457  52.895  0.00  0.00     0.002 A 
ATOM      8  C   UNL d   1      53.031  29.205  53.635  0.00  0.00     0.001 A 
ATOM      9  C   UNL d   1      53.362  29.733  54.165  0.00  0.00     0.008 A 
ATOM     10  S   UNL d   1      53.718  31.188  54.340  0.00  0.00    -0.060 SA
ENDBRANCH   1   2
BRANCH   1  11
ATOM     11  C   UNL d   1      53.350  33.224  53.861  0.00  0.00     0.077 C 
BRANCH  11  12
ATOM     12  C   UNL d   1      53.427  33.935  54.264  0.00  0.00     0.178 A 
ATOM     13  N   UNL d   1      53.016  34.580  54.010  0.00  0.00    -0.264 N 
ATOM     14  C   UNL d   1      53.204  35.202  54.519  0.00  0.00     0.227 A 
ATOM     15  N   UNL d   1      53.717  34.918  55.060  0.00  0.00    -0.117 NA
ATOM     16  S   UNL d   1      52.914  36.021  54.496  0.00  0.00    -0.036 SA
ATOM     17  N   UNL d   1      53.859  34.155  54.917  0.00  0.00    -0.127 NA
BRANCH  13  18
ATOM     18  C   UNL d   1      52.479  34.648  53.345  0.00  0.00     0.084 C 
BRANCH  18  19
ATOM     19  C   UNL d   1      51.659  34.617  53.486  0.00  0.00     0.019 C 
ATOM     20  C   UNL d   1      51.131  34.524  52.847  0.00  0.00     0.002 C 
ENDBRANCH  18  19
ENDBRANCH  13  18
ENDBRANCH  11  12
ENDBRANCH   1  11
TORSDOF 5
ENDMDL
MODEL 2
REMARK VINA RESULT:      -6.5      1.490      3.850
REMARK  5 active torsions:
REMARK  status: ('A' for Active; 'I' for Inactive)
REMARK    1  A    between atoms: C_14  and  N_1 
REMARK    2  A    between atoms: C_13  and  C_3 
REMARK    3  A    between atoms: C_4  and  S_11 
REMARK    4  A    between atoms: S_11  and  C_13 
REMARK    5  A    between atoms: C_15  and  C_14 
ROOT
ATOM      1  S   UNL d   1      52.148  34.686  53.613  0.00  0.00    -0.058 SA
ENDROOT
BRANCH   1   2
ATOM      2  C   UNL d   1      51.509  34.583  53.116  0.00  0.00     0.141 A 
ATOM      3  N   UNL d   1      51.554  34.412  52.308  0.00  0.00    -0.232 NA
ATOM      4  C   UNL d   1      50.788  34.355  52.024  0.00  0.00     0.088 A 
ATOM      5  C   UNL d   1      50.474  34.199  51.281  0.00  0.00     0.020 A 
ATOM      6  C   UNL d   1      50.274  34.490  52.658  0.00  0.00     0.049 A 
ATOM      7  C   UNL d   1      49.676  34.177  51.160  0.00  0.00     0.002 A 
ATOM      8  C   UNL d   1      49.162  34.312  51.794  0.00  0.00     0.001 A 
ATOM      9  C   UNL d   1      49.450  34.469  52.543  0.00  0.00     0.008 A 
ATOM     10  S   UNL d   1      50.730  34.629  53.323  0.00  0.00    -0.060 SA
ENDBRANCH   1   2
BRANCH   1  11
ATOM     11  C   UNL d   1      52.652  34.046  53.763  0.00  0.00     0.077 C 
BRANCH  11  12
ATOM     12  C   UNL d   1      53.267  34.136  54.300  0.00  0.00     0.178 A 
ATOM     13  N   UNL d   1      53.856  33.586  54.321  0.00  0.00    -0.264 N 
ATOM     14  C   UNL d   1      54.386  33.824  54.908  0.00  0.00     0.227 A 
ATOM     15  N   UNL d   1      54.105  34.502  55.220  0.00  0.00    -0.117 NA
ATOM     16  S   UNL d   1      55.119  33.431  55.160  0.00  0.00    -0.036 SA
ATOM     17  N   UNL d   1      53.431  34.700  54.861  0.00  0.00    -0.127 NA
BRANCH  13  18
ATOM     18  C   UNL d   1      53.950  32.880  53.846  0.00  0.00     0.084 C 
BRANCH  18  19
ATOM     19  C   UNL d   1      53.779  32.140  54.186  0.00  0.00     0.019 C 
ATOM     20  C   UNL d   1      53.772  31.454  53.712  0.00  0.00     0.002 C 
ENDBRANCH  18  19
ENDBRANCH  13  18
ENDBRANCH  11  12
ENDBRANCH   1  11
TORSDOF 5
ENDMDL
MODEL 3
REMARK VINA RESULT:      -6.2      3.333      4.827
REMARK  5 active torsions:
REMARK  status: ('A' for Active; 'I' for Inactive)
REMARK    1  A    between atoms: C_14  and  N_1 
REMARK    2  A    between atoms: C_13  and  C_3 
REMARK    3  A    between atoms: C_4  and  S_11 
REMARK    4  A    between atoms: S_11  and  C_13 
REMARK    5  A    between atoms: C_15  and  C_14 
ROOT
ATOM      1  S   UNL d   1      50.134  34.355  52.332  0.00  0.00    -0.058 SA
ENDROOT
BRANCH   1   2
ATOM      2  C   UNL d   1      50.829  34.274  52.752  0.00  0.00     0.141 A 
ATOM      3  N   UNL d   1      51.350  34.890  52.938  0.00  0.00    -0.232 NA
ATOM      4  C   UNL d   1      51.972  34.567  53.362  0.00  0.00     0.088 A 
ATOM      5  C   UNL d   1      52.651  34.888  53.696  0.00  0.00     0.020 A 
ATOM      6  C   UNL d   1      51.832  33.755  53.436  0.00  0.00     0.049 A 
ATOM      7  C   UNL d   1      53.181  34.426  54.093  0.00  0.00     0.002 A 
ATOM      8  C   UNL d   1      53.041  33.614  54.168  0.00  0.00     0.001 A 
ATOM      9  C   UNL d   1      52.373  33.271  53.844  0.00  0.00     0.008 A 
ATOM     10  S   UNL d   1      51.126  33.588  53.057  0.00  0.00    -0.060 SA
ENDBRANCH   1   2
BRANCH   1  11
ATOM     11  C   UNL d   1      49.549  34.870  52.611  0.00  0.00     0.077 C 
BRANCH  11  12
ATOM     12  C   UNL d   1      48.876  34.998  52.158  0.00  0.00     0.178 A 
ATOM     13  N   UNL d   1      48.327  35.532  52.408  0.00  0.00    -0.264 N 
ATOM     14  C   UNL d   1      47.723  35.538  51.846  0.00  0.00     0.227 A 
ATOM     15  N   UNL d   1      47.923  35.013  51.278  0.00  0.00    -0.117 NA
ATOM     16  S   UNL d   1      46.996  36.014  51.843  0.00  0.00    -0.036 SA
ATOM     17  N   UNL d   1      48.616  34.681  51.456  0.00  0.00    -0.127 NA
BRANCH  13  18
ATOM     18  C   UNL d   1      48.331  36.018  53.113  0.00  0.00     0.084 C 
BRANCH  18  19
ATOM     19  C   UNL d   1      47.722  35.922  53.672  0.00  0.00     0.019 C 
ATOM     20  C   UNL d   1      47.734  36.361  54.381  0.00  0.00     0.002 C 
ENDBRANCH  18  19
ENDBRANCH  13  18
ENDBRANCH  11  12
ENDBRANCH   1  11
TORSDOF 5
ENDMDL
MODEL 4
REMARK VINA RESULT:      -6.1      2.534      5.133
REMARK  5 active torsions:
REMARK  status: ('A' for Active; 'I' for Inactive)
REMARK    1  A    between atoms: C_14  and  N_1 
REMARK    2  A    between atoms: C_13  and  C_3 
REMARK    3  A    between atoms: C_4  and  S_11 
REMARK    4  A    between atoms: S_11  and  C_13 
REMARK    5  A    between atoms: C_15  and  C_14 
ROOT
ATOM      1  S   UNL d   1      50.386  34.021  52.446  0.00  0.00    -0.058 SA
ENDROOT
BRANCH   1   2
ATOM      2  C   UNL d   1      49.744  34.524  52.489  0.00  0.00     0.141 A 
ATOM      3  N   UNL d   1      49.518  34.955  53.159  0.00  0.00    -0.232 NA
ATOM      4  C   UNL d   1      48.849  35.384  52.961  0.00  0.00     0.088 A 
ATOM      5  C   UNL d   1      48.373  35.907  53.381  0.00  0.00     0.020 A 
ATOM      6  C   UNL d   1      48.666  35.217  52.172  0.00  0.00     0.049 A 
ATOM      7  C   UNL d   1      47.733  36.258  53.036  0.00  0.00     0.002 A 
ATOM      8  C   UNL d   1      47.549  36.091  52.247  0.00  0.00     0.001 A 
ATOM      9  C   UNL d   1      48.008  35.574  51.809  0.00  0.00     0.008 A 
ATOM     10  S   UNL d   1      49.224  34.686  51.894  0.00  0.00    -0.060 SA
ENDBRANCH   1   2
BRANCH   1  11
ATOM     11  C   UNL d   1      51.062  34.188  52.895  0.00  0.00     0.077 C 
BRANCH  11  12
ATOM     12  C   UNL d   1      51.695  33.665  52.877  0.00  0.00     0.178 A 
ATOM     13  N   UNL d   1      52.310  33.772  53.386  0.00  0.00    -0.264 N 
ATOM     14  C   UNL d   1      52.853  33.169  53.238  0.00  0.00     0.227 A 
ATOM     15  N   UNL d   1      52.554  32.720  52.650  0.00  0.00    -0.117 NA
ATOM     16  S   UNL d   1      53.615  33.024  53.630  0.00  0.00    -0.036 SA
ATOM     17  N   UNL d   1      51.855  33.009  52.424  0.00  0.00    -0.127 NA
BRANCH  13  18
ATOM     18  C   UNL d   1      52.418  34.381  53.979  0.00  0.00     0.084 C 
BRANCH  18  19
ATOM     19  C   UNL d   1      52.987  34.974  53.849  0.00  0.00     0.019 C 
ATOM     20  C   UNL d   1      53.073  35.596  54.397  0.00  0.00     0.002 C 
ENDBRANCH  18  19
ENDBRANCH  13  18
ENDBRANCH  11  12
ENDBRANCH   1  11
TORSDOF 5
ENDMDL
MODEL 5
REMARK VINA RESULT:      -5.9     10.482     10.907
REMARK  5 active torsions:
REMARK  status: ('A' for Active; 'I' for Inactive)
REMARK    1  A    between atoms: C_14  and  N_1 
REMARK    2  A    between atoms: C_13  and  C_3 
REMARK    3  A    between atoms: C_4  and  S_11 
REMARK    4  A    between atoms: S_11  and  C_13 
REMARK    5  A    between atoms: C_15  and  C_14 
ROOT
ATOM      1  S   UNL d   1      44.964  29.934  59.226  0.00  0.00    -0.058 SA
ENDROOT
BRANCH   1   2
ATOM      2  C   UNL d   1      44.998  29.346  58.661  0.00  0.00     0.141 A 
ATOM      3  N   UNL d   1      45.443  28.650  58.723  0.00  0.00    -0.232 NA
ATOM      4  C   UNL d   1      45.319  28.218  58.039  0.00  0.00     0.088 A 
ATOM      5  C   UNL d   1      45.601  27.492  57.774  0.00  0.00     0.020 A 
ATOM      6  C   UNL d   1      44.800  28.647  57.559  0.00  0.00     0.049 A 
ATOM      7  C   UNL d   1      45.379  27.194  57.057  0.00  0.00     0.002 A 
ATOM      8  C   UNL d   1      44.860  27.623  56.577  0.00  0.00     0.001 A 
ATOM      9  C   UNL d   1      44.566  28.348  56.819  0.00  0.00     0.008 A 
ATOM     10  S   UNL d   1      44.610  29.339  57.954  0.00  0.00    -0.060 SA
ENDBRANCH   1   2
BRANCH   1  11
ATOM     11  C   UNL d   1      44.803  29.733  60.013  0.00  0.00     0.077 C 
BRANCH  11  12
ATOM     12  C   UNL d   1      44.736  30.328  60.575  0.00  0.00     0.178 A 
ATOM     13  N   UNL d   1      44.528  30.137  61.329  0.00  0.00    -0.264 N 
ATOM     14  C   UNL d   1      44.507  30.842  61.759  0.00  0.00     0.227 A 
ATOM     15  N   UNL d   1      44.702  31.431  61.257  0.00  0.00    -0.117 NA
ATOM     16  S   UNL d   1      44.314  30.953  62.599  0.00  0.00    -0.036 SA
ATOM     17  N   UNL d   1      44.843  31.133  60.540  0.00  0.00    -0.127 NA
BRANCH  13  18
ATOM     18  C   UNL d   1      44.352  29.367  61.661  0.00  0.00     0.084 C 
BRANCH  18  19
ATOM     19  C   UNL d   1      44.866  29.050  62.234  0.00  0.00     0.019 C 
ATOM     20  C   UNL d   1      44.764  28.264  62.495  0.00  0.00     0.002 C 
ENDBRANCH  18  19
ENDBRANCH  13  18
ENDBRANCH  11  12
ENDBRANCH   1  11
TORSDOF 5
ENDMDL
MODEL 6
REMARK VINA RESULT:      -5.4     10.524     11.436
REMARK  5 active torsions:
REMARK  status: ('A' for Active; 'I' for Inactive)
REMARK    1  A    between atoms: C_14  and  N_1 
REMARK    2  A    between atoms: C_13  and  C_3 
REMARK    3  A    between atoms: C_4  and  S_11 
REMARK    4  A    between atoms: S_11  and  C_13 
REMARK    5  A    between atoms: C_15  and  C_14 
ROOT
ATOM      1  S   UNL d   1      44.698  30.039  59.201  0.00  0.00    -0.058 SA
ENDROOT
BRANCH   1   2
ATOM      2  C   UNL d   1      44.632  30.233  59.991  0.00  0.00     0.141 A 
ATOM      3  N   UNL d   1      44.723  29.704  60.622  0.00  0.00    -0.232 NA
ATOM      4  C   UNL d   1      44.612  30.126  61.315  0.00  0.00     0.088 A 
ATOM      5  C   UNL d   1      44.631  29.916  62.110  0.00  0.00     0.020 A 
ATOM      6  C   UNL d   1      44.453  30.911  61.110  0.00  0.00     0.049 A 
ATOM      7  C   UNL d   1      44.497  30.463  62.690  0.00  0.00     0.002 A 
ATOM      8  C   UNL d   1      44.338  31.248  62.484  0.00  0.00     0.001 A 
ATOM      9  C   UNL d   1      44.314  31.481  61.700  0.00  0.00     0.008 A 
ATOM     10  S   UNL d   1      44.468  30.963  60.293  0.00  0.00    -0.060 SA
ENDBRANCH   1   2
BRANCH   1  11
ATOM     11  C   UNL d   1      44.813  29.248  58.985  0.00  0.00     0.077 C 
BRANCH  11  12
ATOM     12  C   UNL d   1      44.898  29.056  58.191  0.00  0.00     0.178 A 
ATOM     13  N   UNL d   1      44.838  28.286  57.963  0.00  0.00    -0.264 N 
ATOM     14  C   UNL d   1      44.946  28.268  57.145  0.00  0.00     0.227 A 
ATOM     15  N   UNL d   1      45.067  29.019  56.906  0.00  0.00    -0.117 NA
ATOM     16  S   UNL d   1      44.936  27.578  56.617  0.00  0.00    -0.036 SA
ATOM     17  N   UNL d   1      45.040  29.504  57.528  0.00  0.00    -0.127 NA
BRANCH  13  18
ATOM     18  C   UNL d   1      44.691  27.592  58.443  0.00  0.00     0.084 C 
BRANCH  18  19
ATOM     19  C   UNL d   1      45.241  26.967  58.426  0.00  0.00     0.019 C 
ATOM     20  C   UNL d   1      45.128  26.299  58.913  0.00  0.00     0.002 C 
ENDBRANCH  18  19
ENDBRANCH  13  18
ENDBRANCH  11  12
ENDBRANCH   1  11
TORSDOF 5
ENDMDL
MODEL 7
REMARK VINA RESULT:      -5.3     10.503     11.077
REMARK  5 active torsions:
REMARK  status: ('A' for Active; 'I' for Inactive)
REMARK    1  A    between atoms: C_14  and  N_1 
REMARK    2  A    between atoms: C_13  and  C_3 
REMARK    3  A    between atoms: C_4  and  S_11 
REMARK    4  A    between atoms: S_11  and  C_13 
REMARK    5  A    between atoms: C_15  and  C_14 
ROOT
ATOM      1  S   UNL d   1      44.922  29.800  59.842  0.00  0.00    -0.058 SA
ENDROOT
BRANCH   1   2
ATOM      2  C   UNL d   1      44.783  30.155  60.563  0.00  0.00     0.141 A 
ATOM      3  N   UNL d   1      44.723  30.971  60.691  0.00  0.00    -0.232 NA
ATOM      4  C   UNL d   1      44.582  31.085  61.490  0.00  0.00     0.088 A 
ATOM      5  C   UNL d   1      44.473  31.757  61.950  0.00  0.00     0.020 A 
ATOM      6  C   UNL d   1      44.556  30.341  61.850  0.00  0.00     0.049 A 
ATOM      7  C   UNL d   1      44.340  31.703  62.745  0.00  0.00     0.002 A 
ATOM      8  C   UNL d   1      44.314  30.959  63.106  0.00  0.00     0.001 A 
ATOM      9  C   UNL d   1      44.420  30.275  62.669  0.00  0.00     0.008 A 
ATOM     10  S   UNL d   1      44.681  29.778  61.269  0.00  0.00    -0.060 SA
ENDBRANCH   1   2
BRANCH   1  11
ATOM     11  C   UNL d   1      44.765  30.220  59.145  0.00  0.00     0.077 C 
BRANCH  11  12
ATOM     12  C   UNL d   1      44.826  29.837  58.422  0.00  0.00     0.178 A 
ATOM     13  N   UNL d   1      44.613  30.226  57.750  0.00  0.00    -0.264 N 
ATOM     14  C   UNL d   1      44.734  29.705  57.121  0.00  0.00     0.227 A 
ATOM     15  N   UNL d   1      45.014  29.024  57.428  0.00  0.00    -0.117 NA
ATOM     16  S   UNL d   1      44.593  29.843  56.275  0.00  0.00    -0.036 SA
ATOM     17  N   UNL d   1      45.074  29.091  58.212  0.00  0.00    -0.127 NA
BRANCH  13  18
ATOM     18  C   UNL d   1      44.314  31.024  57.662  0.00  0.00     0.084 C 
BRANCH  18  19
ATOM     19  C   UNL d   1      44.654  31.520  57.086  0.00  0.00     0.019 C 
ATOM     20  C   UNL d   1      44.397  32.310  57.012  0.00  0.00     0.002 C 
ENDBRANCH  18  19
ENDBRANCH  13  18
ENDBRANCH  11  12
ENDBRANCH   1  11
TORSDOF 5
ENDMDL
MODEL 8
REMARK VINA RESULT:      -5.2      9.778     11.142
REMARK  5 active torsions:
REMARK  status: ('A' for Active; 'I' for Inactive)
REMARK    1  A    between atoms: C_14  and  N_1 
REMARK    2  A    between atoms: C_13  and  C_3 
REMARK    3  A    between atoms: C_4  and  S_11 
REMARK    4  A    between atoms: S_11  and  C_13 
REMARK    5  A    between atoms: C_15  and  C_14 
ROOT
ATOM      1  S   UNL d   1      45.087  28.135  58.120  0.00  0.00    -0.058 SA
ENDROOT
BRANCH   1   2
ATOM      2  C   UNL d   1      44.955  28.862  57.774  0.00  0.00     0.141 A 
ATOM      3  N   UNL d   1      44.762  28.985  56.978  0.00  0.00    -0.232 NA
ATOM      4  C   UNL d   1      44.679  29.792  56.867  0.00  0.00     0.088 A 
ATOM      5  C   UNL d   1      44.494  30.253  56.212  0.00  0.00     0.020 A 
ATOM      6  C   UNL d   1      44.820  30.163  57.592  0.00  0.00     0.049 A 
ATOM      7  C   UNL d   1      44.449  31.058  56.265  0.00  0.00     0.002 A 
ATOM      8  C   UNL d   1      44.591  31.429  56.990  0.00  0.00     0.001 A 
ATOM      9  C   UNL d   1      44.776  30.992  57.657  0.00  0.00     0.008 A 
ATOM     10  S   UNL d   1      44.989  29.580  58.141  0.00  0.00    -0.060 SA
ENDBRANCH   1   2
BRANCH   1  11
ATOM     11  C   UNL d   1      44.862  27.447  57.717  0.00  0.00     0.077 C 
BRANCH  11  12
ATOM     12  C   UNL d   1      44.865  26.729  58.115  0.00  0.00     0.178 A 
ATOM     13  N   UNL d   1      44.613  26.065  57.734  0.00  0.00    -0.264 N 
ATOM     14  C   UNL d   1      44.679  25.441  58.269  0.00  0.00     0.227 A 
ATOM     15  N   UNL d   1      44.966  25.741  58.950  0.00  0.00    -0.117 NA
ATOM     16  S   UNL d   1      44.483  24.604  58.144  0.00  0.00    -0.036 SA
ATOM     17  N   UNL d   1      45.082  26.518  58.870  0.00  0.00    -0.127 NA
BRANCH  13  18
ATOM     18  C   UNL d   1      44.325  25.982  56.931  0.00  0.00     0.084 C 
BRANCH  18  19
ATOM     19  C   UNL d   1      44.766  25.527  56.391  0.00  0.00     0.019 C 
ATOM     20  C   UNL d   1      44.477  25.402  55.619  0.00  0.00     0.002 C 
ENDBRANCH  18  19
ENDBRANCH  13  18
ENDBRANCH  11  12
ENDBRANCH   1  11
TORSDOF 5
ENDMDL
MODEL 9
REMARK VINA RESULT:      -4.8      9.996     11.545
REMARK  5 active torsions:
REMARK  status: ('A' for Active; 'I' for Inactive)
REMARK    1  A    between atoms: C_14  and  N_1 
REMARK    2  A    between atoms: C_13  and  C_3 
REMARK    3  A    between atoms: C_4  and  S_11 
REMARK    4  A    between atoms: S_11  and  C_13 
REMARK    5  A    between atoms: C_15  and  C_14 
ROOT
ATOM      1  S   UNL d   1      45.363  27.185  56.948  0.00  0.00    -0.058 SA
ENDROOT
BRANCH   1   2
ATOM      2  C   UNL d   1      45.223  27.903  57.308  0.00  0.00     0.141 A 
ATOM      3  N   UNL d   1      45.291  28.052  58.120  0.00  0.00    -0.232 NA
ATOM      4  C   UNL d   1      45.102  28.840  58.242  0.00  0.00     0.088 A 
ATOM      5  C   UNL d   1      45.067  29.311  58.914  0.00  0.00     0.020 A 
ATOM      6  C   UNL d   1      44.918  29.172  57.507  0.00  0.00     0.049 A 
ATOM      7  C   UNL d   1      44.858  30.091  58.869  0.00  0.00     0.002 A 
ATOM      8  C   UNL d   1      44.674  30.423  58.134  0.00  0.00     0.001 A 
ATOM      9  C   UNL d   1      44.701  29.974  57.450  0.00  0.00     0.008 A 
ATOM     10  S   UNL d   1      44.997  28.586  56.942  0.00  0.00    -0.060 SA
ENDBRANCH   1   2
BRANCH   1  11
ATOM     11  C   UNL d   1      44.867  26.543  57.116  0.00  0.00     0.077 C 
BRANCH  11  12
ATOM     12  C   UNL d   1      44.860  25.896  56.611  0.00  0.00     0.178 A 
ATOM     13  N   UNL d   1      44.601  25.184  56.884  0.00  0.00    -0.264 N 
ATOM     14  C   UNL d   1      44.659  24.650  56.257  0.00  0.00     0.227 A 
ATOM     15  N   UNL d   1      44.948  25.051  55.630  0.00  0.00    -0.117 NA
ATOM     16  S   UNL d   1      44.453  23.806  56.250  0.00  0.00    -0.036 SA
ATOM     17  N   UNL d   1      45.074  25.804  55.831  0.00  0.00    -0.127 NA
BRANCH  13  18
ATOM     18  C   UNL d   1      44.314  24.979  57.664  0.00  0.00     0.084 C 
BRANCH  18  19
ATOM     19  C   UNL d   1      44.727  24.408  58.108  0.00  0.00     0.019 C 
ATOM     20  C   UNL d   1      44.491  24.236  58.889  0.00  0.00     0.002 C 
ENDBRANCH  18  19
ENDBRANCH  13  18
ENDBRANCH  11  12
ENDBRANCH   1  11
TORSDOF 5
ENDMDL
