MODEL 1
REMARK VINA RESULT:      53.6      0.000      0.000
REMARK  5 active torsions:
REMARK  status: ('A' for Active; 'I' for Inactive)
REMARK    1  A    between atoms: C_3  and  C_1 
REMARK    2  A    between atoms: S_2  and  C_3 
REMARK    3  A    between atoms: C_8  and  S_2 
REMARK    4  A    between atoms: C_9  and  C_3 
REMARK    5  A    between atoms: N_7  and  C_4 
ROOT
ATOM      1  C   UNL d   1      13.817  13.342  -3.057  0.00  0.00     0.128 A 
ATOM      2  C   UNL d   1      13.833  12.532  -3.210  0.00  0.00     0.166 A 
ATOM      3  N   UNL d   1      14.079  13.630  -2.333  0.00  0.00    -0.240 NA
ATOM      4  N   UNL d   1      14.116  12.008  -2.633  0.00  0.00    -0.225 NA
ATOM      5  C   UNL d   1      14.356  13.110  -1.766  0.00  0.00     0.099 A 
ATOM      6  C   UNL d   1      14.375  12.302  -1.915  0.00  0.00     0.101 A 
ATOM      7  C   UNL d   1      14.657  11.781  -1.335  0.00  0.00     0.021 A 
ATOM      8  C   UNL d   1      14.619  13.401  -1.040  0.00  0.00     0.021 A 
ATOM      9  C   UNL d   1      14.917  12.076  -0.616  0.00  0.00     0.002 A 
ATOM     10  C   UNL d   1      14.898  12.883  -0.469  0.00  0.00     0.002 A 
ENDROOT
BRANCH   1  11
ATOM     11  C   UNL d   1      13.537  13.864  -3.628  0.00  0.00     0.129 C 
BRANCH  11  12
ATOM     12  S   UNL d   1      13.576  14.737  -3.446  0.00  0.00     0.213 S 
ATOM     13  O   UNL d   1      12.809  15.147  -3.253  0.00  0.00    -0.217 OA
ATOM     14  O   UNL d   1      12.776  14.524  -3.382  0.00  0.00    -0.217 OA
BRANCH  12  15
ATOM     15  C   UNL d   1      14.199  15.287  -3.414  0.00  0.00     0.088 A 
ATOM     16  C   UNL d   1      14.315  15.740  -2.736  0.00  0.00     0.011 A 
ATOM     17  C   UNL d   1      14.935  16.289  -2.701  0.00  0.00     0.001 A 
ATOM     18  C   UNL d   1      15.047  16.737  -2.029  0.00  0.00     0.000 C 
ATOM     19  C   UNL d   1      15.438  16.377  -3.354  0.00  0.00     0.000 A 
ATOM     20  C   UNL d   1      15.318  15.915  -4.039  0.00  0.00     0.001 A 
ATOM     21  C   UNL d   1      14.700  15.374  -4.064  0.00  0.00     0.011 A 
ENDBRANCH  12  15
ENDBRANCH  11  12
BRANCH  11  22
ATOM     22  C   UNL d   1      13.199  13.707  -4.405  0.00  0.00     0.135 C 
ATOM     23  N   UNL d   1      13.316  14.165  -5.156  0.00  0.00    -0.146 N 
ENDBRANCH  11  22
ENDBRANCH   1  11
BRANCH   2  24
ATOM     24  N   UNL d   1      13.566  12.249  -3.946  0.00  0.00    -0.288 N 
ATOM     25  C   UNL d   1      14.045  12.139  -4.623  0.00  0.00     0.082 A 
ATOM     26  C   UNL d   1      13.553  11.847  -5.235  0.00  0.00     0.021 A 
ATOM     27  C   UNL d   1      12.779  11.780  -4.931  0.00  0.00     0.021 A 
ATOM     28  C   UNL d   1      12.790  12.029  -4.131  0.00  0.00     0.082 A 
ENDBRANCH   2  24
TORSDOF 5
ENDMDL
MODEL 2
REMARK VINA RESULT:      54.9      1.289      3.067
REMARK  5 active torsions:
REMARK  status: ('A' for Active; 'I' for Inactive)
REMARK    1  A    between atoms: C_3  and  C_1 
REMARK    2  A    between atoms: S_2  and  C_3 
REMARK    3  A    between atoms: C_8  and  S_2 
REMARK    4  A    between atoms: C_9  and  C_3 
REMARK    5  A    between atoms: N_7  and  C_4 
ROOT
ATOM      1  C   UNL d   1      13.942  13.528  -3.111  0.00  0.00     0.128 A 
ATOM      2  C   UNL d   1      13.778  13.557  -3.919  0.00  0.00     0.166 A 
ATOM      3  N   UNL d   1      14.206  14.201  -2.720  0.00  0.00    -0.240 NA
ATOM      4  N   UNL d   1      13.879  14.267  -4.336  0.00  0.00    -0.225 NA
ATOM      5  C   UNL d   1      14.305  14.900  -3.136  0.00  0.00     0.099 A 
ATOM      6  C   UNL d   1      14.142  14.932  -3.940  0.00  0.00     0.101 A 
ATOM      7  C   UNL d   1      14.244  15.643  -4.354  0.00  0.00     0.021 A 
ATOM      8  C   UNL d   1      14.570  15.574  -2.741  0.00  0.00     0.021 A 
ATOM      9  C   UNL d   1      14.508  16.309  -3.957  0.00  0.00     0.002 A 
ATOM     10  C   UNL d   1      14.670  16.276  -3.153  0.00  0.00     0.002 A 
ENDROOT
BRANCH   1  11
ATOM     11  C   UNL d   1      13.843  12.826  -2.695  0.00  0.00     0.129 C 
BRANCH  11  12
ATOM     12  S   UNL d   1      14.407  12.658  -2.025  0.00  0.00     0.213 S 
ATOM     13  O   UNL d   1      14.832  11.874  -2.037  0.00  0.00    -0.217 OA
ATOM     14  O   UNL d   1      14.431  11.990  -2.517  0.00  0.00    -0.217 OA
BRANCH  12  15
ATOM     15  C   UNL d   1      14.641  13.089  -1.353  0.00  0.00     0.088 A 
ATOM     16  C   UNL d   1      15.434  13.286  -1.244  0.00  0.00     0.011 A 
ATOM     17  C   UNL d   1      15.671  13.715  -0.576  0.00  0.00     0.001 A 
ATOM     18  C   UNL d   1      16.456  13.909  -0.471  0.00  0.00     0.000 C 
ATOM     19  C   UNL d   1      15.103  13.945  -0.018  0.00  0.00     0.000 A 
ATOM     20  C   UNL d   1      14.300  13.744  -0.132  0.00  0.00     0.001 A 
ATOM     21  C   UNL d   1      14.075  13.317  -0.798  0.00  0.00     0.011 A 
ENDBRANCH  12  15
ENDBRANCH  11  12
BRANCH  11  22
ATOM     22  C   UNL d   1      13.263  12.197  -2.798  0.00  0.00     0.135 C 
ATOM     23  N   UNL d   1      12.786  11.784  -2.174  0.00  0.00    -0.146 N 
ENDBRANCH  11  22
ENDBRANCH   1  11
BRANCH   2  24
ATOM     24  N   UNL d   1      13.511  12.871  -4.307  0.00  0.00    -0.288 N 
ATOM     25  C   UNL d   1      12.847  12.416  -4.079  0.00  0.00     0.082 A 
ATOM     26  C   UNL d   1      12.781  11.779  -4.620  0.00  0.00     0.021 A 
ATOM     27  C   UNL d   1      13.402  11.847  -5.173  0.00  0.00     0.021 A 
ATOM     28  C   UNL d   1      13.853  12.525  -4.976  0.00  0.00     0.082 A 
ENDBRANCH   2  24
TORSDOF 5
ENDMDL
MODEL 3
REMARK VINA RESULT:      55.5      1.102      2.962
REMARK  5 active torsions:
REMARK  status: ('A' for Active; 'I' for Inactive)
REMARK    1  A    between atoms: C_3  and  C_1 
REMARK    2  A    between atoms: S_2  and  C_3 
REMARK    3  A    between atoms: C_8  and  S_2 
REMARK    4  A    between atoms: C_9  and  C_3 
REMARK    5  A    between atoms: N_7  and  C_4 
ROOT
ATOM      1  C   UNL d   1      14.219  13.406  -2.073  0.00  0.00     0.128 A 
ATOM      2  C   UNL d   1      14.214  12.589  -1.959  0.00  0.00     0.166 A 
ATOM      3  N   UNL d   1      13.903  13.728  -2.760  0.00  0.00    -0.240 NA
ATOM      4  N   UNL d   1      13.889  12.093  -2.540  0.00  0.00    -0.225 NA
ATOM      5  C   UNL d   1      13.584  13.235  -3.330  0.00  0.00     0.099 A 
ATOM      6  C   UNL d   1      13.577  12.421  -3.221  0.00  0.00     0.101 A 
ATOM      7  C   UNL d   1      13.253  11.929  -3.803  0.00  0.00     0.021 A 
ATOM      8  C   UNL d   1      13.268  13.561  -4.019  0.00  0.00     0.021 A 
ATOM      9  C   UNL d   1      12.940  12.258  -4.485  0.00  0.00     0.002 A 
ATOM     10  C   UNL d   1      12.948  13.071  -4.593  0.00  0.00     0.002 A 
ENDROOT
BRANCH   1  11
ATOM     11  C   UNL d   1      14.539  13.900  -1.499  0.00  0.00     0.129 C 
BRANCH  11  12
ATOM     12  S   UNL d   1      14.298  14.759  -1.510  0.00  0.00     0.213 S 
ATOM     13  O   UNL d   1      13.485  14.958  -1.204  0.00  0.00    -0.217 OA
ATOM     14  O   UNL d   1      13.652  14.344  -1.195  0.00  0.00    -0.217 OA
BRANCH  12  15
ATOM     15  C   UNL d   1      14.681  15.457  -1.753  0.00  0.00     0.088 A 
ATOM     16  C   UNL d   1      14.632  15.701  -2.539  0.00  0.00     0.011 A 
ATOM     17  C   UNL d   1      15.011  16.396  -2.785  0.00  0.00     0.001 A 
ATOM     18  C   UNL d   1      14.961  16.636  -3.562  0.00  0.00     0.000 C 
ATOM     19  C   UNL d   1      15.441  16.842  -2.234  0.00  0.00     0.000 A 
ATOM     20  C   UNL d   1      15.488  16.590  -1.439  0.00  0.00     0.001 A 
ATOM     21  C   UNL d   1      15.108  15.900  -1.204  0.00  0.00     0.011 A 
ENDBRANCH  12  15
ENDBRANCH  11  12
BRANCH  11  22
ATOM     22  C   UNL d   1      15.092  13.724  -0.861  0.00  0.00     0.135 C 
ATOM     23  N   UNL d   1      15.536  14.296  -0.348  0.00  0.00    -0.146 N 
ENDBRANCH  11  22
ENDBRANCH   1  11
BRANCH   2  24
ATOM     24  N   UNL d   1      14.535  12.271  -1.261  0.00  0.00    -0.288 N 
ATOM     25  C   UNL d   1      15.342  12.086  -1.143  0.00  0.00     0.082 A 
ATOM     26  C   UNL d   1      15.420  11.781  -0.366  0.00  0.00     0.021 A 
ATOM     27  C   UNL d   1      14.663  11.781  -0.014  0.00  0.00     0.021 A 
ATOM     28  C   UNL d   1      14.116  12.085  -0.572  0.00  0.00     0.082 A 
ENDBRANCH   2  24
TORSDOF 5
ENDMDL
