MODEL 1
REMARK VINA RESULT:      -3.5      0.000      0.000
REMARK  6 active torsions:
REMARK  status: ('A' for Active; 'I' for Inactive)
REMARK    1  A    between atoms: N_2  and  S_1 
REMARK    2  A    between atoms: C_3  and  S_1 
REMARK    3  A    between atoms: C_6  and  N_2 
REMARK    4  A    between atoms: C_12  and  C_6 
REMARK    5  A    between atoms: C_7  and  S_9 
REMARK    6  A    between atoms: S_9  and  C_12 
ROOT
ATOM      1  N   UNL d   1      57.959  -0.267  29.733  0.00  0.00    -0.188 NA
ENDROOT
BRANCH   1   2
ATOM      2  S   UNL d   1      58.590  -0.733  29.479  0.00  0.00     0.281 S 
ATOM      3  O   UNL d   1      58.068  -1.335  29.232  0.00  0.00    -0.199 OA
ATOM      4  O   UNL d   1      59.119  -0.147  29.719  0.00  0.00    -0.199 OA
BRANCH   2   5
ATOM      5  C   UNL d   1      59.239  -1.211  29.219  0.00  0.00     0.105 A 
ATOM      6  C   UNL d   1      59.939  -0.855  28.963  0.00  0.00     0.014 A 
ATOM      7  C   UNL d   1      60.557  -1.308  28.715  0.00  0.00     0.012 A 
ATOM      8  C   UNL d   1      60.502  -2.143  28.711  0.00  0.00     0.058 A 
ATOM      9  C   UNL d   1      59.795  -2.483  28.970  0.00  0.00     0.012 A 
ATOM     10 CL   UNL d   1      61.133  -2.627  28.457  0.00  0.00    -0.082 Cl
ATOM     11  C   UNL d   1      59.167  -2.015  29.223  0.00  0.00     0.014 A 
ENDBRANCH   2   5
ENDBRANCH   1   2
BRANCH   1  12
ATOM     12  C   UNL d   1      57.862  -0.108  30.536  0.00  0.00     0.107 C 
ATOM     13  C   UNL d   1      57.588  -0.874  30.659  0.00  0.00     0.026 C 
ATOM     14  C   UNL d   1      58.144   0.677  30.403  0.00  0.00     0.026 C 
BRANCH  12  15
ATOM     15  C   UNL d   1      57.768   0.058  31.336  0.00  0.00     0.087 C 
BRANCH  15  16
ATOM     16  S   UNL d   1      57.077   0.409  31.611  0.00  0.00    -0.093 SA
BRANCH  16  17
ATOM     17  C   UNL d   1      56.919   0.471  32.406  0.00  0.00     0.107 A 
ATOM     18  N   UNL d   1      57.522   0.619  32.940  0.00  0.00    -0.238 NA
ATOM     19  C   UNL d   1      57.372   0.682  33.735  0.00  0.00     0.100 A 
ATOM     20  C   UNL d   1      56.579   0.591  34.012  0.00  0.00     0.021 A 
ATOM     21  C   UNL d   1      55.976   0.443  33.478  0.00  0.00     0.004 A 
ATOM     22  C   UNL d   1      56.144   0.382  32.672  0.00  0.00     0.025 A 
ENDBRANCH  16  17
ENDBRANCH  15  16
ENDBRANCH  12  15
ENDBRANCH   1  12
TORSDOF 6
ENDMDL
MODEL 2
REMARK VINA RESULT:      -3.1      2.180      4.824
REMARK  6 active torsions:
REMARK  status: ('A' for Active; 'I' for Inactive)
REMARK    1  A    between atoms: N_2  and  S_1 
REMARK    2  A    between atoms: C_3  and  S_1 
REMARK    3  A    between atoms: C_6  and  N_2 
REMARK    4  A    between atoms: C_12  and  C_6 
REMARK    5  A    between atoms: C_7  and  S_9 
REMARK    6  A    between atoms: S_9  and  C_12 
ROOT
ATOM      1  N   UNL d   1      57.087  -0.158  30.589  0.00  0.00    -0.188 NA
ENDROOT
BRANCH   1   2
ATOM      2  S   UNL d   1      56.903  -0.096  31.391  0.00  0.00     0.281 S 
ATOM      3  O   UNL d   1      57.204   0.682  31.417  0.00  0.00    -0.199 OA
ATOM      4  O   UNL d   1      56.602  -0.864  31.381  0.00  0.00    -0.199 OA
BRANCH   2   5
ATOM      5  C   UNL d   1      56.713  -0.032  32.213  0.00  0.00     0.105 A 
ATOM      6  C   UNL d   1      56.986   0.612  32.652  0.00  0.00     0.014 A 
ATOM      7  C   UNL d   1      56.807   0.675  33.435  0.00  0.00     0.012 A 
ATOM      8  C   UNL d   1      56.344   0.092  33.816  0.00  0.00     0.058 A 
ATOM      9  C   UNL d   1      56.079  -0.546  33.363  0.00  0.00     0.012 A 
ATOM     10 CL   UNL d   1      56.149   0.142  34.627  0.00  0.00    -0.082 Cl
ATOM     11  C   UNL d   1      56.265  -0.605  32.564  0.00  0.00     0.014 A 
ENDBRANCH   2   5
ENDBRANCH   1   2
BRANCH   1  12
ATOM     12  C   UNL d   1      57.876  -0.196  30.351  0.00  0.00     0.107 C 
ATOM     13  C   UNL d   1      57.951  -0.936  30.703  0.00  0.00     0.026 C 
ATOM     14  C   UNL d   1      57.792   0.564  29.991  0.00  0.00     0.026 C 
BRANCH  12  15
ATOM     15  C   UNL d   1      58.661  -0.227  30.110  0.00  0.00     0.087 C 
BRANCH  15  16
ATOM     16  S   UNL d   1      58.858  -0.139  29.316  0.00  0.00    -0.093 SA
BRANCH  16  17
ATOM     17  C   UNL d   1      59.609  -0.293  29.045  0.00  0.00     0.107 A 
ATOM     18  N   UNL d   1      59.844  -1.060  28.882  0.00  0.00    -0.238 NA
ATOM     19  C   UNL d   1      60.592  -1.222  28.611  0.00  0.00     0.100 A 
ATOM     20  C   UNL d   1      61.133  -0.584  28.497  0.00  0.00     0.021 A 
ATOM     21  C   UNL d   1      60.899   0.184  28.661  0.00  0.00     0.004 A 
ATOM     22  C   UNL d   1      60.135   0.332  28.935  0.00  0.00     0.025 A 
ENDBRANCH  16  17
ENDBRANCH  15  16
ENDBRANCH  12  15
ENDBRANCH   1  12
TORSDOF 6
ENDMDL
MODEL 3
REMARK VINA RESULT:      -2.9      2.029      4.784
REMARK  6 active torsions:
REMARK  status: ('A' for Active; 'I' for Inactive)
REMARK    1  A    between atoms: N_2  and  S_1 
REMARK    2  A    between atoms: C_3  and  S_1 
REMARK    3  A    between atoms: C_6  and  N_2 
REMARK    4  A    between atoms: C_12  and  C_6 
REMARK    5  A    between atoms: C_7  and  S_9 
REMARK    6  A    between atoms: S_9  and  C_12 
ROOT
ATOM      1  N   UNL d   1      57.490   0.063  30.330  0.00  0.00    -0.188 NA
ENDROOT
BRANCH   1   2
ATOM      2  S   UNL d   1      57.306   0.149  31.130  0.00  0.00     0.281 S 
ATOM      3  O   UNL d   1      56.635  -0.339  31.045  0.00  0.00    -0.199 OA
ATOM      4  O   UNL d   1      57.966   0.634  31.230  0.00  0.00    -0.199 OA
BRANCH   2   5
ATOM      5  C   UNL d   1      57.116   0.238  31.950  0.00  0.00     0.105 A 
ATOM      6  C   UNL d   1      57.656   0.597  32.463  0.00  0.00     0.014 A 
ATOM      7  C   UNL d   1      57.477   0.682  33.243  0.00  0.00     0.012 A 
ATOM      8  C   UNL d   1      56.747   0.410  33.549  0.00  0.00     0.058 A 
ATOM      9  C   UNL d   1      56.220   0.054  33.023  0.00  0.00     0.012 A 
ATOM     10 CL   UNL d   1      56.547   0.491  34.355  0.00  0.00    -0.082 Cl
ATOM     11  C   UNL d   1      56.407  -0.031  32.226  0.00  0.00     0.014 A 
ENDBRANCH   2   5
ENDBRANCH   1   2
BRANCH   1  12
ATOM     12  C   UNL d   1      58.191  -0.312  30.108  0.00  0.00     0.107 C 
ATOM     13  C   UNL d   1      57.995  -0.962  30.573  0.00  0.00     0.026 C 
ATOM     14  C   UNL d   1      58.385   0.359  29.633  0.00  0.00     0.026 C 
BRANCH  12  15
ATOM     15  C   UNL d   1      58.890  -0.680  29.883  0.00  0.00     0.087 C 
BRANCH  15  16
ATOM     16  S   UNL d   1      58.993  -0.943  29.111  0.00  0.00    -0.093 SA
BRANCH  16  17
ATOM     17  C   UNL d   1      59.598  -1.447  28.911  0.00  0.00     0.107 A 
ATOM     18  N   UNL d   1      60.378  -1.201  28.957  0.00  0.00    -0.238 NA
ATOM     19  C   UNL d   1      60.988  -1.699  28.760  0.00  0.00     0.100 A 
ATOM     20  C   UNL d   1      60.810  -2.483  28.502  0.00  0.00     0.021 A 
ATOM     21  C   UNL d   1      60.031  -2.730  28.455  0.00  0.00     0.004 A 
ATOM     22  C   UNL d   1      59.421  -2.213  28.660  0.00  0.00     0.025 A 
ENDBRANCH  16  17
ENDBRANCH  15  16
ENDBRANCH  12  15
ENDBRANCH   1  12
TORSDOF 6
ENDMDL
MODEL 4
REMARK VINA RESULT:      -2.3      2.876      5.267
REMARK  6 active torsions:
REMARK  status: ('A' for Active; 'I' for Inactive)
REMARK    1  A    between atoms: N_2  and  S_1 
REMARK    2  A    between atoms: C_3  and  S_1 
REMARK    3  A    between atoms: C_6  and  N_2 
REMARK    4  A    between atoms: C_12  and  C_6 
REMARK    5  A    between atoms: C_7  and  S_9 
REMARK    6  A    between atoms: S_9  and  C_12 
ROOT
ATOM      1  N   UNL d   1      57.347  -0.285  32.685  0.00  0.00    -0.188 NA
ENDROOT
BRANCH   1   2
ATOM      2  S   UNL d   1      56.630  -0.092  33.043  0.00  0.00     0.281 S 
ATOM      3  O   UNL d   1      57.019   0.396  33.597  0.00  0.00    -0.199 OA
ATOM      4  O   UNL d   1      56.231  -0.571  32.503  0.00  0.00    -0.199 OA
BRANCH   2   5
ATOM      5  C   UNL d   1      55.893   0.106  33.412  0.00  0.00     0.105 A 
ATOM      6  C   UNL d   1      55.887   0.477  34.150  0.00  0.00     0.014 A 
ATOM      7  C   UNL d   1      55.187   0.666  34.502  0.00  0.00     0.012 A 
ATOM      8  C   UNL d   1      54.459   0.492  34.129  0.00  0.00     0.058 A 
ATOM      9  C   UNL d   1      54.484   0.121  33.391  0.00  0.00     0.012 A 
ATOM     10 CL   UNL d   1      53.726   0.681  34.480  0.00  0.00    -0.082 Cl
ATOM     11  C   UNL d   1      55.201  -0.070  33.036  0.00  0.00     0.014 A 
ENDBRANCH   2   5
ENDBRANCH   1   2
BRANCH   1  12
ATOM     12  C   UNL d   1      57.486  -0.069  31.901  0.00  0.00     0.107 C 
ATOM     13  C   UNL d   1      57.970   0.547  32.152  0.00  0.00     0.026 C 
ATOM     14  C   UNL d   1      56.987  -0.703  31.650  0.00  0.00     0.026 C 
BRANCH  12  15
ATOM     15  C   UNL d   1      57.620   0.140  31.117  0.00  0.00     0.087 C 
BRANCH  15  16
ATOM     16  S   UNL d   1      58.205  -0.236  30.679  0.00  0.00    -0.093 SA
BRANCH  16  17
ATOM     17  C   UNL d   1      58.432   0.040  29.949  0.00  0.00     0.107 A 
ATOM     18  N   UNL d   1      59.159   0.403  29.849  0.00  0.00    -0.238 NA
ATOM     19  C   UNL d   1      59.394   0.681  29.123  0.00  0.00     0.100 A 
ATOM     20  C   UNL d   1      58.875   0.591  28.462  0.00  0.00     0.021 A 
ATOM     21  C   UNL d   1      58.148   0.227  28.562  0.00  0.00     0.004 A 
ATOM     22  C   UNL d   1      57.923  -0.050  29.306  0.00  0.00     0.025 A 
ENDBRANCH  16  17
ENDBRANCH  15  16
ENDBRANCH  12  15
ENDBRANCH   1  12
TORSDOF 6
ENDMDL
