MODEL 1
REMARK VINA RESULT:      14.1      0.000      0.000
REMARK  5 active torsions:
REMARK  status: ('A' for Active; 'I' for Inactive)
REMARK    1  A    between atoms: C_12  and  N_3 
REMARK    2  A    between atoms: C_11  and  C_5 
REMARK       I    between atoms: N_16  and  C_11 
REMARK    3  A    between atoms: C_15  and  C_12 
REMARK    4  A    between atoms: C_26  and  N_16 
REMARK    5  A    between atoms: C_27  and  C_26 
ROOT
ATOM      1  C   UNL d   1     -41.353-121.082 -51.352  0.00  0.00     0.155 A 
ATOM      2  C   UNL d   1     -41.336-120.981 -52.171  0.00  0.00     0.091 A 
ATOM      3  N   UNL d   1     -41.414-121.827 -51.023  0.00  0.00    -0.272 N 
ATOM      4  N   UNL d   1     -41.308-120.415 -50.860  0.00  0.00    -0.210 NA
ATOM      5  C   UNL d   1     -41.443-122.400 -52.335  0.00  0.00     0.094 A 
ATOM      6  C   UNL d   1     -41.460-122.494 -51.515  0.00  0.00     0.175 A 
ATOM      7  C   UNL d   1     -41.275-120.229 -52.499  0.00  0.00     0.269 A 
ATOM      8  N   UNL d   1     -41.230-119.569 -52.008  0.00  0.00    -0.258 N 
ATOM      9  C   UNL d   1     -41.246-119.662 -51.189  0.00  0.00     0.152 A 
ATOM     10  C   UNL d   1     -41.381-121.640 -52.662  0.00  0.00     0.016 A 
ATOM     11  N   UNL d   1     -41.522-123.251 -51.179  0.00  0.00    -0.128 N 
ATOM     12  C   UNL d   1     -41.169-118.817 -52.336  0.00  0.00     0.084 A 
ATOM     13  O   UNL d   1     -41.259-120.135 -53.318  0.00  0.00    -0.266 OA
ATOM     14  C   UNL d   1     -41.201-119.004 -50.697  0.00  0.00     0.038 A 
ATOM     15  C   UNL d   1     -41.123-118.153 -51.845  0.00  0.00     0.019 A 
ATOM     16  C   UNL d   1     -41.140-118.247 -51.025  0.00  0.00     0.005 A 
ENDROOT
BRANCH   5  17
ATOM     17  C   UNL d   1     -41.489-123.064 -52.826  0.00  0.00     0.282 C 
ATOM     18  N   UNL d   1     -41.702-122.979 -53.617  0.00  0.00    -0.206 NA
ATOM     19  O   UNL d   1     -41.321-123.816 -52.531  0.00  0.00    -0.265 OA
BRANCH  18  20
ATOM     20  C   UNL d   1     -41.871-122.230 -53.920  0.00  0.00     0.102 C 
BRANCH  20  21
ATOM     21  C   UNL d   1     -42.136-122.142 -54.699  0.00  0.00     0.019 A 
ATOM     22  C   UNL d   1     -42.951-122.120 -54.843  0.00  0.00     0.002 A 
ATOM     23  C   UNL d   1     -43.228-122.032 -55.622  0.00  0.00     0.000 A 
ATOM     24  C   UNL d   1     -42.685-121.965 -56.249  0.00  0.00     0.000 A 
ATOM     25  C   UNL d   1     -41.869-121.988 -56.093  0.00  0.00     0.000 A 
ATOM     26  C   UNL d   1     -41.598-122.076 -55.321  0.00  0.00     0.002 A 
ENDBRANCH  20  21
ENDBRANCH  18  20
ENDBRANCH   5  17
BRANCH   3  27
ATOM     27  C   UNL d   1     -41.431-121.920 -50.203  0.00  0.00     0.107 C 
BRANCH  27  28
ATOM     28  C   UNL d   1     -42.067-122.298 -49.844  0.00  0.00     0.118 A 
ATOM     29  O   UNL d   1     -41.940-122.821 -49.212  0.00  0.00    -0.304 OA
ATOM     30  C   UNL d   1     -42.678-123.115 -48.966  0.00  0.00     0.123 A 
ATOM     31  C   UNL d   1     -43.247-122.774 -49.443  0.00  0.00     0.029 A 
ATOM     32  C   UNL d   1     -42.882-122.271 -49.985  0.00  0.00     0.028 A 
ENDBRANCH  27  28
ENDBRANCH   3  27
TORSDOF 5
ENDMDL
MODEL 2
REMARK VINA RESULT:      14.3      1.315      3.276
REMARK  5 active torsions:
REMARK  status: ('A' for Active; 'I' for Inactive)
REMARK    1  A    between atoms: C_12  and  N_3 
REMARK    2  A    between atoms: C_11  and  C_5 
REMARK       I    between atoms: N_16  and  C_11 
REMARK    3  A    between atoms: C_15  and  C_12 
REMARK    4  A    between atoms: C_26  and  N_16 
REMARK    5  A    between atoms: C_27  and  C_26 
ROOT
ATOM      1  C   UNL d   1     -42.144-122.073 -50.918  0.00  0.00     0.155 A 
ATOM      2  C   UNL d   1     -42.857-122.479 -51.007  0.00  0.00     0.091 A 
ATOM      3  N   UNL d   1     -41.838-121.625 -51.529  0.00  0.00    -0.272 N 
ATOM      4  N   UNL d   1     -41.735-122.123 -50.198  0.00  0.00    -0.210 NA
ATOM      5  C   UNL d   1     -42.960-121.977 -52.345  0.00  0.00     0.094 A 
ATOM      6  C   UNL d   1     -42.247-121.574 -52.249  0.00  0.00     0.175 A 
ATOM      7  C   UNL d   1     -43.162-122.929 -50.390  0.00  0.00     0.269 A 
ATOM      8  N   UNL d   1     -42.755-122.977 -49.676  0.00  0.00    -0.258 N 
ATOM      9  C   UNL d   1     -42.041-122.575 -49.580  0.00  0.00     0.152 A 
ATOM     10  C   UNL d   1     -43.265-122.430 -51.721  0.00  0.00     0.016 A 
ATOM     11  N   UNL d   1     -41.934-121.118 -52.870  0.00  0.00    -0.128 N 
ATOM     12  C   UNL d   1     -43.060-123.428 -49.059  0.00  0.00     0.084 A 
ATOM     13  O   UNL d   1     -43.876-123.332 -50.486  0.00  0.00    -0.266 OA
ATOM     14  C   UNL d   1     -41.633-122.622 -48.867  0.00  0.00     0.038 A 
ATOM     15  C   UNL d   1     -42.652-123.478 -48.341  0.00  0.00     0.019 A 
ATOM     16  C   UNL d   1     -41.938-123.075 -48.245  0.00  0.00     0.005 A 
ENDROOT
BRANCH   5  17
ATOM     17  C   UNL d   1     -43.368-121.927 -53.063  0.00  0.00     0.282 C 
ATOM     18  N   UNL d   1     -43.023-122.210 -53.755  0.00  0.00    -0.206 NA
ATOM     19  O   UNL d   1     -44.123-121.595 -53.093  0.00  0.00    -0.265 OA
BRANCH  18  20
ATOM     20  C   UNL d   1     -42.269-122.544 -53.733  0.00  0.00     0.102 C 
BRANCH  20  21
ATOM     21  C   UNL d   1     -41.906-122.811 -54.427  0.00  0.00     0.019 A 
ATOM     22  C   UNL d   1     -41.972-122.353 -55.114  0.00  0.00     0.002 A 
ATOM     23  C   UNL d   1     -41.612-122.612 -55.816  0.00  0.00     0.000 A 
ATOM     24  C   UNL d   1     -41.188-123.329 -55.824  0.00  0.00     0.000 A 
ATOM     25  C   UNL d   1     -41.128-123.780 -55.129  0.00  0.00     0.000 A 
ATOM     26  C   UNL d   1     -41.486-123.521 -54.435  0.00  0.00     0.002 A 
ENDBRANCH  20  21
ENDBRANCH  18  20
ENDBRANCH   5  17
BRANCH   3  27
ATOM     27  C   UNL d   1     -41.124-121.222 -51.433  0.00  0.00     0.107 C 
BRANCH  27  28
ATOM     28  C   UNL d   1     -41.124-120.411 -51.293  0.00  0.00     0.118 A 
ATOM     29  O   UNL d   1     -41.125-119.878 -51.930  0.00  0.00    -0.304 OA
ATOM     30  C   UNL d   1     -41.125-119.106 -51.621  0.00  0.00     0.123 A 
ATOM     31  C   UNL d   1     -41.124-119.169 -50.806  0.00  0.00     0.029 A 
ATOM     32  C   UNL d   1     -41.123-119.966 -50.595  0.00  0.00     0.028 A 
ENDBRANCH  27  28
ENDBRANCH   3  27
TORSDOF 5
ENDMDL
