MODEL 1
REMARK VINA RESULT:      -3.9      0.000      0.000
REMARK  4 active torsions:
REMARK  status: ('A' for Active; 'I' for Inactive)
REMARK    1  A    between atoms: C_6  and  N_1 
REMARK    2  A    between atoms: C_8  and  C_14 
REMARK    3  A    between atoms: O_20  and  C_8 
REMARK    4  A    between atoms: C_22  and  O_20 
ROOT
ATOM      1  N   UNL d   1      58.106   0.092  30.918  0.00  0.00    -0.242 N 
ATOM      2  C   UNL d   1      58.878   0.403  31.088  0.00  0.00     0.267 A 
ATOM      3  C   UNL d   1      58.026  -0.106  30.218  0.00  0.00     0.267 A 
ATOM      4  C   UNL d   1      59.265   0.362  30.360  0.00  0.00     0.061 A 
ATOM      5  C   UNL d   1      58.725   0.039  29.808  0.00  0.00     0.061 A 
ATOM      6  C   UNL d   1      58.939  -0.080  29.010  0.00  0.00     0.005 A 
ATOM      7  C   UNL d   1      60.014   0.562  30.108  0.00  0.00     0.005 A 
ATOM      8  O   UNL d   1      59.188   0.682  31.790  0.00  0.00    -0.267 OA
ATOM      9  O   UNL d   1      57.330  -0.428  29.892  0.00  0.00    -0.267 OA
ATOM     10  C   UNL d   1      59.703   0.134  28.796  0.00  0.00     0.000 A 
ATOM     11  C   UNL d   1      60.243   0.457  29.348  0.00  0.00     0.000 A 
ATOM     12  C   UNL d   1      60.991   0.657  29.096  0.00  0.00     0.000 C 
ENDROOT
BRANCH   1  13
ATOM     13  C   UNL d   1      57.489   0.008  31.459  0.00  0.00     0.070 A 
ATOM     14  C   UNL d   1      57.196  -0.741  31.657  0.00  0.00     0.018 A 
ATOM     15  C   UNL d   1      56.580  -0.825  32.197  0.00  0.00     0.007 A 
ATOM     16  C   UNL d   1      56.238  -0.169  32.555  0.00  0.00     0.064 A 
ATOM     17  C   UNL d   1      56.533   0.622  32.358  0.00  0.00     0.007 A 
ATOM     18  C   UNL d   1      57.180   0.682  31.789  0.00  0.00     0.018 A 
BRANCH  16  19
ATOM     19  C   UNL d   1      55.621  -0.302  33.092  0.00  0.00     0.300 C 
ATOM     20  O   UNL d   1      55.433  -1.099  33.313  0.00  0.00    -0.259 OA
BRANCH  19  21
ATOM     21  O   UNL d   1      55.229   0.317  33.378  0.00  0.00    -0.271 OA
BRANCH  21  22
ATOM     22  C   UNL d   1      54.742   0.213  33.999  0.00  0.00     0.126 C 
ATOM     23  C   UNL d   1      54.847   0.654  34.717  0.00  0.00     0.029 C 
ENDBRANCH  21  22
ENDBRANCH  19  21
ENDBRANCH  16  19
ENDBRANCH   1  13
TORSDOF 4
ENDMDL
