MODEL 1
REMARK VINA RESULT:      11.5      0.000      0.000
REMARK  1 active torsions:
REMARK  status: ('A' for Active; 'I' for Inactive)
REMARK    1  A    between atoms: C_9  and  C_3 
ROOT
ATOM      1  C   UNL d   1      23.542  12.531  -1.670  0.00  0.00     0.171 A 
ATOM      2  N   UNL d   1      24.153  12.164  -1.255  0.00  0.00    -0.212 N 
ATOM      3  C   UNL d   1      23.540  12.525  -2.497  0.00  0.00     0.121 A 
ATOM      4  N   UNL d   1      24.763  11.791  -1.667  0.00  0.00    -0.162 NA
ATOM      5  N   UNL d   1      22.932  12.904  -1.262  0.00  0.00    -0.226 NA
ATOM      6  C   UNL d   1      24.155  12.170  -0.432  0.00  0.00     0.086 A 
ATOM      7  C   UNL d   1      24.762  11.785  -2.494  0.00  0.00     0.130 A 
ATOM      8  C   UNL d   1      23.545  12.543  -0.021  0.00  0.00     0.038 A 
ATOM      9  C   UNL d   1      22.934  12.910  -0.435  0.00  0.00     0.085 A 
ATOM     10  C   UNL d   1      24.766  11.803  -0.018  0.00  0.00     0.021 C 
ATOM     11  C   UNL d   1      22.324  13.283  -0.024  0.00  0.00     0.021 C 
ENDROOT
BRANCH   3  12
ATOM     12  C   UNL d   1      23.036  12.826  -3.078  0.00  0.00     0.215 C 
ATOM     13  O   UNL d   1      22.255  13.014  -2.883  0.00  0.00    -0.644 OA
ATOM     14  O   UNL d   1      23.310  12.939  -3.849  0.00  0.00    -0.644 OA
ENDBRANCH   3  12
TORSDOF 1
ENDMDL
MODEL 2
REMARK VINA RESULT:      13.3      8.483      9.425
REMARK  1 active torsions:
REMARK  status: ('A' for Active; 'I' for Inactive)
REMARK    1  A    between atoms: C_9  and  C_3 
ROOT
ATOM      1  C   UNL d   1      14.148  12.149  -1.664  0.00  0.00     0.171 A 
ATOM      2  N   UNL d   1      14.840  12.327  -1.252  0.00  0.00    -0.212 N 
ATOM      3  C   UNL d   1      14.146  12.154  -2.491  0.00  0.00     0.121 A 
ATOM      4  N   UNL d   1      15.529  12.510  -1.665  0.00  0.00    -0.162 NA
ATOM      5  N   UNL d   1      13.458  11.967  -1.255  0.00  0.00    -0.226 NA
ATOM      6  C   UNL d   1      14.841  12.322  -0.429  0.00  0.00     0.086 A 
ATOM      7  C   UNL d   1      15.527  12.515  -2.492  0.00  0.00     0.130 A 
ATOM      8  C   UNL d   1      14.152  12.140  -0.015  0.00  0.00     0.038 A 
ATOM      9  C   UNL d   1      13.460  11.962  -0.428  0.00  0.00     0.085 A 
ATOM     10  C   UNL d   1      15.533  12.500  -0.017  0.00  0.00     0.021 C 
ATOM     11  C   UNL d   1      12.770  11.779  -0.014  0.00  0.00     0.021 C 
ENDROOT
BRANCH   3  12
ATOM     12  C   UNL d   1      13.574  12.009  -3.071  0.00  0.00     0.215 C 
ATOM     13  O   UNL d   1      12.814  11.779  -2.846  0.00  0.00    -0.644 OA
ATOM     14  O   UNL d   1      13.763  12.093  -3.871  0.00  0.00    -0.644 OA
ENDBRANCH   3  12
TORSDOF 1
ENDMDL
