MODEL 1
REMARK VINA RESULT:      -5.2      0.000      0.000
REMARK  2 active torsions:
REMARK  status: ('A' for Active; 'I' for Inactive)
REMARK    1  A    between atoms: C_7  and  C_1 
REMARK    2  A    between atoms: O_15  and  C_11 
ROOT
ATOM      1  C   UNL d   1      56.665   0.196  32.633  0.00  0.00     0.103 A 
ATOM      2  C   UNL d   1      57.134   0.358  33.293  0.00  0.00     0.067 A 
ATOM      3  O   UNL d   1      55.864   0.196  32.706  0.00  0.00    -0.307 OA
ATOM      4  C   UNL d   1      56.801   0.521  34.025  0.00  0.00     0.200 A 
ATOM      5  C   UNL d   1      55.961   0.518  34.087  0.00  0.00     0.062 A 
ATOM      6  C   UNL d   1      55.492   0.356  33.428  0.00  0.00     0.103 A 
ATOM      7  O   UNL d   1      57.291   0.680  34.669  0.00  0.00    -0.286 OA
ATOM      8  C   UNL d   1      55.624   0.682  34.822  0.00  0.00     0.005 A 
ATOM      9  C   UNL d   1      54.686   0.357  33.504  0.00  0.00     0.025 A 
ATOM     10  C   UNL d   1      54.806   0.677  34.870  0.00  0.00     0.000 A 
ATOM     11  C   UNL d   1      54.337   0.514  34.211  0.00  0.00     0.002 A 
ENDROOT
BRANCH   1  12
ATOM     12  C   UNL d   1      57.020   0.038  31.923  0.00  0.00     0.023 A 
ATOM     13  C   UNL d   1      57.054  -0.738  31.627  0.00  0.00     0.004 A 
ATOM     14  C   UNL d   1      57.409  -0.920  30.908  0.00  0.00     0.024 A 
ATOM     15  C   UNL d   1      57.746  -0.281  30.468  0.00  0.00     0.094 A 
ATOM     16  C   UNL d   1      57.712   0.495  30.764  0.00  0.00     0.024 A 
ATOM     17  C   UNL d   1      57.360   0.659  31.471  0.00  0.00     0.004 A 
BRANCH  15  18
ATOM     18  O   UNL d   1      58.124  -0.448  29.711  0.00  0.00    -0.328 OA
ATOM     19  C   UNL d   1      58.939  -0.278  29.630  0.00  0.00     0.181 C 
ENDBRANCH  15  18
ENDBRANCH   1  12
TORSDOF 2
ENDMDL
MODEL 2
REMARK VINA RESULT:      -5.1      1.029      1.550
REMARK  2 active torsions:
REMARK  status: ('A' for Active; 'I' for Inactive)
REMARK    1  A    between atoms: C_7  and  C_1 
REMARK    2  A    between atoms: O_15  and  C_11 
ROOT
ATOM      1  C   UNL d   1      56.927  -0.212  31.956  0.00  0.00     0.103 A 
ATOM      2  C   UNL d   1      56.703  -1.004  32.015  0.00  0.00     0.067 A 
ATOM      3  O   UNL d   1      56.572   0.337  32.424  0.00  0.00    -0.307 OA
ATOM      4  C   UNL d   1      56.123  -1.246  32.542  0.00  0.00     0.200 A 
ATOM      5  C   UNL d   1      55.759  -0.660  33.027  0.00  0.00     0.062 A 
ATOM      6  C   UNL d   1      55.983   0.131  32.968  0.00  0.00     0.103 A 
ATOM      7  O   UNL d   1      55.915  -2.044  32.583  0.00  0.00    -0.286 OA
ATOM      8  C   UNL d   1      55.175  -0.901  33.558  0.00  0.00     0.005 A 
ATOM      9  C   UNL d   1      55.625   0.682  33.440  0.00  0.00     0.025 A 
ATOM     10  C   UNL d   1      54.829  -0.322  34.023  0.00  0.00     0.000 A 
ATOM     11  C   UNL d   1      55.054   0.469  33.964  0.00  0.00     0.002 A 
ENDROOT
BRANCH   1  12
ATOM     12  C   UNL d   1      57.502  -0.001  31.427  0.00  0.00     0.023 A 
ATOM     13  C   UNL d   1      57.465  -0.250  30.635  0.00  0.00     0.004 A 
ATOM     14  C   UNL d   1      58.038  -0.047  30.082  0.00  0.00     0.024 A 
ATOM     15  C   UNL d   1      58.682   0.433  30.347  0.00  0.00     0.094 A 
ATOM     16  C   UNL d   1      58.719   0.682  31.139  0.00  0.00     0.024 A 
ATOM     17  C   UNL d   1      58.150   0.475  31.671  0.00  0.00     0.004 A 
BRANCH  15  18
ATOM     18  O   UNL d   1      59.295   0.658  29.783  0.00  0.00    -0.328 OA
ATOM     19  C   UNL d   1      59.862   0.083  29.566  0.00  0.00     0.181 C 
ENDBRANCH  15  18
ENDBRANCH   1  12
TORSDOF 2
ENDMDL
MODEL 3
REMARK VINA RESULT:      -5.1      1.120      4.280
REMARK  2 active torsions:
REMARK  status: ('A' for Active; 'I' for Inactive)
REMARK    1  A    between atoms: C_7  and  C_1 
REMARK    2  A    between atoms: O_15  and  C_11 
ROOT
ATOM      1  C   UNL d   1      57.618   0.150  31.206  0.00  0.00     0.103 A 
ATOM      2  C   UNL d   1      58.365   0.353  31.490  0.00  0.00     0.067 A 
ATOM      3  O   UNL d   1      57.501   0.073  30.413  0.00  0.00    -0.307 OA
ATOM      4  C   UNL d   1      58.996   0.480  30.981  0.00  0.00     0.200 A 
ATOM      5  C   UNL d   1      58.861   0.396  30.153  0.00  0.00     0.062 A 
ATOM      6  C   UNL d   1      58.113   0.193  29.869  0.00  0.00     0.103 A 
ATOM      7  O   UNL d   1      59.735   0.682  31.289  0.00  0.00    -0.286 OA
ATOM      8  C   UNL d   1      59.494   0.522  29.640  0.00  0.00     0.005 A 
ATOM      9  C   UNL d   1      57.998   0.116  29.072  0.00  0.00     0.025 A 
ATOM     10  C   UNL d   1      59.349   0.438  28.837  0.00  0.00     0.000 A 
ATOM     11  C   UNL d   1      58.601   0.235  28.554  0.00  0.00     0.002 A 
ENDROOT
BRANCH   1  12
ATOM     12  C   UNL d   1      57.013   0.032  31.730  0.00  0.00     0.023 A 
ATOM     13  C   UNL d   1      56.824  -0.733  31.997  0.00  0.00     0.004 A 
ATOM     14  C   UNL d   1      56.214  -0.876  32.529  0.00  0.00     0.024 A 
ATOM     15  C   UNL d   1      55.773  -0.208  32.804  0.00  0.00     0.094 A 
ATOM     16  C   UNL d   1      55.962   0.556  32.537  0.00  0.00     0.024 A 
ATOM     17  C   UNL d   1      56.563   0.682  32.015  0.00  0.00     0.004 A 
BRANCH  15  18
ATOM     18  O   UNL d   1      55.128  -0.334  33.363  0.00  0.00    -0.328 OA
ATOM     19  C   UNL d   1      55.014   0.232  33.967  0.00  0.00     0.181 C 
ENDBRANCH  15  18
ENDBRANCH   1  12
TORSDOF 2
ENDMDL
MODEL 4
REMARK VINA RESULT:      -4.9      1.095      4.475
REMARK  2 active torsions:
REMARK  status: ('A' for Active; 'I' for Inactive)
REMARK    1  A    between atoms: C_7  and  C_1 
REMARK    2  A    between atoms: O_15  and  C_11 
ROOT
ATOM      1  C   UNL d   1      57.632   0.162  31.161  0.00  0.00     0.103 A 
ATOM      2  C   UNL d   1      57.427   0.147  30.362  0.00  0.00     0.067 A 
ATOM      3  O   UNL d   1      58.397   0.297  31.373  0.00  0.00    -0.307 OA
ATOM      4  C   UNL d   1      57.987   0.268  29.775  0.00  0.00     0.200 A 
ATOM      5  C   UNL d   1      58.784   0.409  30.009  0.00  0.00     0.062 A 
ATOM      6  C   UNL d   1      58.989   0.424  30.808  0.00  0.00     0.103 A 
ATOM      7  O   UNL d   1      57.757   0.249  28.982  0.00  0.00    -0.286 OA
ATOM      8  C   UNL d   1      59.348   0.531  29.421  0.00  0.00     0.005 A 
ATOM      9  C   UNL d   1      59.758   0.560  31.019  0.00  0.00     0.025 A 
ATOM     10  C   UNL d   1      60.119   0.667  29.662  0.00  0.00     0.000 A 
ATOM     11  C   UNL d   1      60.324   0.682  30.461  0.00  0.00     0.002 A 
ENDROOT
BRANCH   1  12
ATOM     12  C   UNL d   1      57.060   0.039  31.720  0.00  0.00     0.023 A 
ATOM     13  C   UNL d   1      56.701   0.680  32.110  0.00  0.00     0.004 A 
ATOM     14  C   UNL d   1      56.118   0.577  32.681  0.00  0.00     0.024 A 
ATOM     15  C   UNL d   1      55.889  -0.216  32.865  0.00  0.00     0.094 A 
ATOM     16  C   UNL d   1      56.248  -0.856  32.475  0.00  0.00     0.024 A 
ATOM     17  C   UNL d   1      56.818  -0.741  31.917  0.00  0.00     0.004 A 
BRANCH  15  18
ATOM     18  O   UNL d   1      55.279  -0.347  33.461  0.00  0.00    -0.328 OA
ATOM     19  C   UNL d   1      54.882   0.320  33.772  0.00  0.00     0.181 C 
ENDBRANCH  15  18
ENDBRANCH   1  12
TORSDOF 2
ENDMDL
