MODEL 1
REMARK VINA RESULT:      60.6      0.000      0.000
REMARK  7 active torsions:
REMARK  status: ('A' for Active; 'I' for Inactive)
REMARK    1  A    between atoms: N_4  and  S_1 
REMARK    2  A    between atoms: C_8  and  S_1 
REMARK    3  A    between atoms: N_2  and  C_3 
REMARK    4  A    between atoms: C_3  and  C_6 
REMARK    5  A    between atoms: C_7  and  C_3 
REMARK    6  A    between atoms: C_6  and  N_4 
REMARK    7  A    between atoms: C_17  and  N_5 
ROOT
ATOM      1  C   UNL d   1      14.634  15.921  -2.863  0.00  0.00     0.107 C 
ENDROOT
BRANCH   1   2
ATOM      2  N   UNL d   1      14.323  15.229  -3.190  0.00  0.00    -0.298 N 
ATOM      3  C   UNL d   1      14.812  14.716  -3.612  0.00  0.00     0.100 A 
ATOM      4  C   UNL d   1      14.502  14.024  -3.938  0.00  0.00     0.100 A 
ATOM      5  N   UNL d   1      13.702  13.846  -3.843  0.00  0.00    -0.301 N 
ATOM      6  C   UNL d   1      13.217  14.361  -3.421  0.00  0.00     0.100 A 
ATOM      7  C   UNL d   1      13.523  15.052  -3.094  0.00  0.00     0.100 A 
BRANCH   5   8
ATOM      8  C   UNL d   1      13.395  13.160  -4.167  0.00  0.00     0.064 A 
ATOM      9  C   UNL d   1      13.139  12.552  -3.681  0.00  0.00     0.018 A 
ATOM     10  C   UNL d   1      12.830  11.861  -4.005  0.00  0.00     0.002 A 
ATOM     11  C   UNL d   1      12.778  11.781  -4.824  0.00  0.00     0.000 A 
ATOM     12  C   UNL d   1      13.035  12.393  -5.316  0.00  0.00     0.002 A 
ATOM     13  C   UNL d   1      13.343  13.080  -4.987  0.00  0.00     0.018 A 
ENDBRANCH   5   8
ENDBRANCH   1   2
BRANCH   1  14
ATOM     14  C   UNL d   1      14.648  16.040  -2.045  0.00  0.00     0.132 C 
BRANCH  14  15
ATOM     15  N   UNL d   1      14.865  15.403  -1.544  0.00  0.00    -0.155 NA
BRANCH  15  16
ATOM     16  S   UNL d   1      15.138  15.556  -0.785  0.00  0.00     0.285 S 
ATOM     17  O   UNL d   1      15.414  15.699  -0.017  0.00  0.00    -0.198 OA
ATOM     18  O   UNL d   1      15.101  16.372  -0.931  0.00  0.00    -0.198 OA
BRANCH  16  19
ATOM     19  C   UNL d   1      15.174  14.738  -0.643  0.00  0.00     0.105 A 
ATOM     20  C   UNL d   1      14.592  14.371  -0.187  0.00  0.00     0.015 A 
ATOM     21  C   UNL d   1      14.620  13.559  -0.041  0.00  0.00     0.030 A 
ATOM     22  C   UNL d   1      15.247  13.112  -0.362  0.00  0.00     0.140 A 
ATOM     23  C   UNL d   1      15.829  13.479  -0.818  0.00  0.00     0.030 A 
ATOM     24  F   UNL d   1      15.282  12.288  -0.218  0.00  0.00    -0.204 F 
ATOM     25  C   UNL d   1      15.792  14.292  -0.958  0.00  0.00     0.015 A 
ENDBRANCH  16  19
ENDBRANCH  15  16
ENDBRANCH  14  15
ENDBRANCH   1  14
BRANCH   1  26
ATOM     26  C   UNL d   1      14.941  16.517  -3.367  0.00  0.00     0.118 A 
ATOM     27  O   UNL d   1      14.706  17.300  -3.278  0.00  0.00    -0.304 OA
ATOM     28  C   UNL d   1      15.100  17.753  -3.850  0.00  0.00     0.123 A 
ATOM     29  C   UNL d   1      15.572  17.251  -4.285  0.00  0.00     0.029 A 
ATOM     30  C   UNL d   1      15.476  16.485  -3.989  0.00  0.00     0.028 A 
ENDBRANCH   1  26
TORSDOF 7
ENDMDL
MODEL 2
REMARK VINA RESULT:      61.7      2.540      4.425
REMARK  7 active torsions:
REMARK  status: ('A' for Active; 'I' for Inactive)
REMARK    1  A    between atoms: N_4  and  S_1 
REMARK    2  A    between atoms: C_8  and  S_1 
REMARK    3  A    between atoms: N_2  and  C_3 
REMARK    4  A    between atoms: C_3  and  C_6 
REMARK    5  A    between atoms: C_7  and  C_3 
REMARK    6  A    between atoms: C_6  and  N_4 
REMARK    7  A    between atoms: C_17  and  N_5 
ROOT
ATOM      1  C   UNL d   1      13.559  13.515  -4.574  0.00  0.00     0.107 C 
ENDROOT
BRANCH   1   2
ATOM      2  N   UNL d   1      13.697  13.227  -3.813  0.00  0.00    -0.298 N 
ATOM      3  C   UNL d   1      14.233  13.610  -3.317  0.00  0.00     0.100 A 
ATOM      4  C   UNL d   1      14.371  13.322  -2.556  0.00  0.00     0.100 A 
ATOM      5  N   UNL d   1      13.973  12.650  -2.291  0.00  0.00    -0.301 N 
ATOM      6  C   UNL d   1      13.438  12.270  -2.789  0.00  0.00     0.100 A 
ATOM      7  C   UNL d   1      13.298  12.555  -3.549  0.00  0.00     0.100 A 
BRANCH   5   8
ATOM      8  C   UNL d   1      14.110  12.364  -1.536  0.00  0.00     0.064 A 
ATOM      9  C   UNL d   1      14.871  12.357  -1.230  0.00  0.00     0.018 A 
ATOM     10  C   UNL d   1      15.011  12.071  -0.471  0.00  0.00     0.002 A 
ATOM     11  C   UNL d   1      14.383  11.789  -0.017  0.00  0.00     0.000 A 
ATOM     12  C   UNL d   1      13.616  11.796  -0.323  0.00  0.00     0.002 A 
ATOM     13  C   UNL d   1      13.482  12.083  -1.082  0.00  0.00     0.018 A 
ENDBRANCH   5   8
ENDBRANCH   1   2
BRANCH   1  14
ATOM     14  C   UNL d   1      13.296  14.289  -4.698  0.00  0.00     0.132 C 
BRANCH  14  15
ATOM     15  N   UNL d   1      13.809  14.839  -5.070  0.00  0.00    -0.155 NA
BRANCH  15  16
ATOM     16  S   UNL d   1      13.511  15.555  -5.341  0.00  0.00     0.285 S 
ATOM     17  O   UNL d   1      13.221  16.282  -5.611  0.00  0.00    -0.198 OA
ATOM     18  O   UNL d   1      12.789  15.191  -5.524  0.00  0.00    -0.198 OA
BRANCH  16  19
ATOM     19  C   UNL d   1      14.237  15.916  -5.155  0.00  0.00     0.105 A 
ATOM     20  C   UNL d   1      14.366  16.221  -4.400  0.00  0.00     0.015 A 
ATOM     21  C   UNL d   1      15.084  16.582  -4.207  0.00  0.00     0.030 A 
ATOM     22  C   UNL d   1      15.679  16.632  -4.790  0.00  0.00     0.140 A 
ATOM     23  C   UNL d   1      15.549  16.327  -5.546  0.00  0.00     0.030 A 
ATOM     24  F   UNL d   1      16.409  16.997  -4.602  0.00  0.00    -0.204 F 
ATOM     25  C   UNL d   1      14.828  15.969  -5.728  0.00  0.00     0.015 A 
ENDBRANCH  16  19
ENDBRANCH  15  16
ENDBRANCH  14  15
ENDBRANCH   1  14
BRANCH   1  26
ATOM     26  C   UNL d   1      13.687  13.017  -5.237  0.00  0.00     0.118 A 
ATOM     27  O   UNL d   1      13.123  12.459  -5.453  0.00  0.00    -0.304 OA
ATOM     28  C   UNL d   1      13.403  12.055  -6.121  0.00  0.00     0.123 A 
ATOM     29  C   UNL d   1      14.133  12.364  -6.312  0.00  0.00     0.029 A 
ATOM     30  C   UNL d   1      14.311  12.959  -5.766  0.00  0.00     0.028 A 
ENDBRANCH   1  26
TORSDOF 7
ENDMDL
