MODEL 1
REMARK VINA RESULT:      -2.5      0.000      0.000
REMARK  3 active torsions:
REMARK  status: ('A' for Active; 'I' for Inactive)
REMARK    1  A    between atoms: S_2  and  N_1 
REMARK    2  A    between atoms: C_6  and  S_2 
REMARK    3  A    between atoms: O_17  and  C_11 
ROOT
ATOM      1  S   UNL d   1      30.838  16.409 -24.216  0.00  0.00     0.273 S 
ATOM      2  O   UNL d   1      30.969  16.241 -25.012  0.00  0.00    -0.200 OA
ATOM      3  O   UNL d   1      30.706  16.579 -23.415  0.00  0.00    -0.200 OA
ENDROOT
BRANCH   1   4
ATOM      4  N   UNL d   1      31.624  16.645 -24.134  0.00  0.00    -0.214 N 
ATOM      5  C   UNL d   1      32.227  16.211 -23.767  0.00  0.00     0.157 A 
ATOM      6  N   UNL d   1      32.929  16.655 -23.809  0.00  0.00    -0.226 NA
ATOM      7  C   UNL d   1      32.146  15.473 -23.425  0.00  0.00     0.041 C 
ATOM      8  C   UNL d   1      32.751  17.366 -24.203  0.00  0.00     0.100 A 
ATOM      9  C   UNL d   1      31.954  17.360 -24.402  0.00  0.00     0.094 A 
ATOM     10  C   UNL d   1      33.224  18.011 -24.402  0.00  0.00     0.021 A 
ATOM     11  C   UNL d   1      31.623  18.007 -24.805  0.00  0.00     0.020 A 
ATOM     12  C   UNL d   1      32.093  18.650 -25.002  0.00  0.00     0.002 A 
ATOM     13  C   UNL d   1      32.893  18.658 -24.804  0.00  0.00     0.002 A 
ENDBRANCH   1   4
BRANCH   1  14
ATOM     14  C   UNL d   1      30.051  16.175 -24.295  0.00  0.00     0.106 A 
ATOM     15  C   UNL d   1      29.492  16.398 -23.722  0.00  0.00     0.039 A 
ATOM     16  C   UNL d   1      28.704  16.164 -23.800  0.00  0.00     0.122 A 
ATOM     17  C   UNL d   1      28.469  15.704 -24.450  0.00  0.00     0.162 A 
ATOM     18  C   UNL d   1      29.025  15.482 -25.019  0.00  0.00     0.032 A 
ATOM     19  F   UNL d   1      27.690  15.474 -24.523  0.00  0.00    -0.202 F 
ATOM     20  C   UNL d   1      29.812  15.716 -24.941  0.00  0.00     0.015 A 
BRANCH  16  21
ATOM     21  O   UNL d   1      28.157  16.385 -23.235  0.00  0.00    -0.326 OA
ATOM     22  C   UNL d   1      27.974  17.171 -23.133  0.00  0.00     0.181 C 
ENDBRANCH  16  21
ENDBRANCH   1  14
TORSDOF 3
ENDMDL
MODEL 2
REMARK VINA RESULT:      -1.2      2.454      3.404
REMARK  3 active torsions:
REMARK  status: ('A' for Active; 'I' for Inactive)
REMARK    1  A    between atoms: S_2  and  N_1 
REMARK    2  A    between atoms: C_6  and  S_2 
REMARK    3  A    between atoms: O_17  and  C_11 
ROOT
ATOM      1  S   UNL d   1      32.557  18.721 -23.944  0.00  0.00     0.273 S 
ATOM      2  O   UNL d   1      31.878  19.027 -24.297  0.00  0.00    -0.200 OA
ATOM      3  O   UNL d   1      33.241  18.412 -23.589  0.00  0.00    -0.200 OA
ENDROOT
BRANCH   1   4
ATOM      4  N   UNL d   1      32.804  19.483 -23.749  0.00  0.00    -0.214 N 
ATOM      5  C   UNL d   1      33.038  20.072 -24.283  0.00  0.00     0.157 A 
ATOM      6  N   UNL d   1      33.241  20.751 -23.849  0.00  0.00    -0.226 NA
ATOM      7  C   UNL d   1      33.065  19.996 -25.097  0.00  0.00     0.041 C 
ATOM      8  C   UNL d   1      33.129  20.575 -23.044  0.00  0.00     0.100 A 
ATOM      9  C   UNL d   1      32.862  19.800 -22.982  0.00  0.00     0.094 A 
ATOM     10  C   UNL d   1      33.240  21.031 -22.366  0.00  0.00     0.021 A 
ATOM     11  C   UNL d   1      32.703  19.475 -22.234  0.00  0.00     0.020 A 
ATOM     12  C   UNL d   1      32.814  19.929 -21.559  0.00  0.00     0.002 A 
ATOM     13  C   UNL d   1      33.081  20.706 -21.618  0.00  0.00     0.002 A 
ENDBRANCH   1   4
BRANCH   1  14
ATOM     14  C   UNL d   1      32.315  17.957 -24.138  0.00  0.00     0.106 A 
ATOM     15  C   UNL d   1      31.507  17.761 -24.123  0.00  0.00     0.039 A 
ATOM     16  C   UNL d   1      31.263  16.997 -24.316  0.00  0.00     0.122 A 
ATOM     17  C   UNL d   1      31.824  16.422 -24.526  0.00  0.00     0.162 A 
ATOM     18  C   UNL d   1      32.626  16.616 -24.541  0.00  0.00     0.032 A 
ATOM     19  F   UNL d   1      31.577  15.667 -24.716  0.00  0.00    -0.202 F 
ATOM     20  C   UNL d   1      32.870  17.379 -24.347  0.00  0.00     0.015 A 
BRANCH  16  21
ATOM     21  O   UNL d   1      30.468  16.808 -24.301  0.00  0.00    -0.326 OA
ATOM     22  C   UNL d   1      29.948  17.198 -24.790  0.00  0.00     0.181 C 
ENDBRANCH  16  21
ENDBRANCH   1  14
TORSDOF 3
ENDMDL
MODEL 3
REMARK VINA RESULT:      -1.1      2.897      4.361
REMARK  3 active torsions:
REMARK  status: ('A' for Active; 'I' for Inactive)
REMARK    1  A    between atoms: S_2  and  N_1 
REMARK    2  A    between atoms: C_6  and  S_2 
REMARK    3  A    between atoms: O_17  and  C_11 
ROOT
ATOM      1  S   UNL d   1      32.373  18.517 -23.702  0.00  0.00     0.273 S 
ATOM      2  O   UNL d   1      33.040  18.507 -24.185  0.00  0.00    -0.200 OA
ATOM      3  O   UNL d   1      31.701  18.527 -23.215  0.00  0.00    -0.200 OA
ENDROOT
BRANCH   1   4
ATOM      4  N   UNL d   1      32.151  17.775 -23.986  0.00  0.00    -0.214 N 
ATOM      5  C   UNL d   1      31.579  17.627 -24.567  0.00  0.00     0.157 A 
ATOM      6  N   UNL d   1      31.534  16.805 -24.684  0.00  0.00    -0.226 NA
ATOM      7  C   UNL d   1      31.136  18.192 -24.958  0.00  0.00     0.041 C 
ATOM      8  C   UNL d   1      32.084  16.450 -24.170  0.00  0.00     0.100 A 
ATOM      9  C   UNL d   1      32.461  17.042 -23.743  0.00  0.00     0.094 A 
ATOM     10  C   UNL d   1      32.280  15.659 -24.044  0.00  0.00     0.021 A 
ATOM     11  C   UNL d   1      33.042  16.844 -23.184  0.00  0.00     0.020 A 
ATOM     12  C   UNL d   1      33.238  16.057 -23.058  0.00  0.00     0.002 A 
ATOM     13  C   UNL d   1      32.861  15.461 -23.485  0.00  0.00     0.002 A 
ENDBRANCH   1   4
BRANCH   1  14
ATOM     14  C   UNL d   1      32.590  19.259 -23.414  0.00  0.00     0.106 A 
ATOM     15  C   UNL d   1      32.420  19.466 -22.628  0.00  0.00     0.039 A 
ATOM     16  C   UNL d   1      32.638  20.208 -22.339  0.00  0.00     0.122 A 
ATOM     17  C   UNL d   1      33.028  20.749 -22.835  0.00  0.00     0.162 A 
ATOM     18  C   UNL d   1      33.197  20.543 -23.616  0.00  0.00     0.032 A 
ATOM     19  F   UNL d   1      33.241  21.481 -22.545  0.00  0.00    -0.202 F 
ATOM     20  C   UNL d   1      32.979  19.802 -23.904  0.00  0.00     0.015 A 
BRANCH  16  21
ATOM     21  O   UNL d   1      32.469  20.409 -21.565  0.00  0.00    -0.326 OA
ATOM     22  C   UNL d   1      33.029  20.298 -20.986  0.00  0.00     0.181 C 
ENDBRANCH  16  21
ENDBRANCH   1  14
TORSDOF 3
ENDMDL
MODEL 4
REMARK VINA RESULT:       0.1      5.249      6.480
REMARK  3 active torsions:
REMARK  status: ('A' for Active; 'I' for Inactive)
REMARK    1  A    between atoms: S_2  and  N_1 
REMARK    2  A    between atoms: C_6  and  S_2 
REMARK    3  A    between atoms: O_17  and  C_11 
ROOT
ATOM      1  S   UNL d   1      32.818  21.498 -21.739  0.00  0.00     0.273 S 
ATOM      2  O   UNL d   1      33.237  21.850 -22.355  0.00  0.00    -0.200 OA
ATOM      3  O   UNL d   1      32.397  21.144 -21.119  0.00  0.00    -0.200 OA
ENDROOT
BRANCH   1   4
ATOM      4  N   UNL d   1      32.734  22.232 -21.372  0.00  0.00    -0.214 N 
ATOM      5  C   UNL d   1      32.487  22.934 -21.737  0.00  0.00     0.157 A 
ATOM      6  N   UNL d   1      32.481  23.536 -21.164  0.00  0.00    -0.226 NA
ATOM      7  C   UNL d   1      32.284  23.018 -22.525  0.00  0.00     0.041 C 
ATOM      8  C   UNL d   1      32.727  23.199 -20.445  0.00  0.00     0.100 A 
ATOM      9  C   UNL d   1      32.882  22.402 -20.571  0.00  0.00     0.094 A 
ATOM     10  C   UNL d   1      32.826  23.527 -19.695  0.00  0.00     0.021 A 
ATOM     11  C   UNL d   1      33.139  21.925 -19.942  0.00  0.00     0.020 A 
ATOM     12  C   UNL d   1      33.238  22.251 -19.195  0.00  0.00     0.002 A 
ATOM     13  C   UNL d   1      33.084  23.050 -19.066  0.00  0.00     0.002 A 
ENDBRANCH   1   4
BRANCH   1  14
ATOM     14  C   UNL d   1      32.900  20.762 -22.102  0.00  0.00     0.106 A 
ATOM     15  C   UNL d   1      33.031  20.716 -22.922  0.00  0.00     0.039 A 
ATOM     16  C   UNL d   1      33.113  19.980 -23.286  0.00  0.00     0.122 A 
ATOM     17  C   UNL d   1      33.066  19.285 -22.835  0.00  0.00     0.162 A 
ATOM     18  C   UNL d   1      32.936  19.330 -22.021  0.00  0.00     0.032 A 
ATOM     19  F   UNL d   1      33.148  18.560 -23.200  0.00  0.00    -0.202 F 
ATOM     20  C   UNL d   1      32.854  20.066 -21.657  0.00  0.00     0.015 A 
BRANCH  16  21
ATOM     21  O   UNL d   1      33.241  19.938 -24.092  0.00  0.00    -0.326 OA
ATOM     22  C   UNL d   1      32.757  20.347 -24.602  0.00  0.00     0.181 C 
ENDBRANCH  16  21
ENDBRANCH   1  14
TORSDOF 3
ENDMDL
