MODEL 1
REMARK VINA RESULT:       7.1      0.000      0.000
REMARK  3 active torsions:
REMARK  status: ('A' for Active; 'I' for Inactive)
REMARK    1  A    between atoms: C_5  and  N_1 
REMARK    2  A    between atoms: C_13  and  C_6 
REMARK    3  A    between atoms: O_24  and  C_19 
ROOT
ATOM      1  N   UNL d   1      58.873  -2.081  30.008  0.00  0.00    -0.256 N 
ATOM      2  C   UNL d   1      58.242  -1.194  30.793  0.00  0.00     0.083 A 
ATOM      3  C   UNL d   1      57.767  -1.863  30.728  0.00  0.00     0.161 A 
ATOM      4  C   UNL d   1      58.153  -2.415  30.242  0.00  0.00     0.289 A 
ATOM      5  C   UNL d   1      58.927  -1.325  30.349  0.00  0.00     0.075 A 
ATOM      6  C   UNL d   1      57.996  -0.550  31.246  0.00  0.00     0.201 A 
ATOM      7  O   UNL d   1      57.034  -1.888  31.121  0.00  0.00    -0.302 OA
ATOM      8  C   UNL d   1      57.270  -0.579  31.634  0.00  0.00     0.063 A 
ATOM      9  C   UNL d   1      56.792  -1.247  31.571  0.00  0.00     0.103 A 
ATOM     10  O   UNL d   1      57.875  -3.156  30.033  0.00  0.00    -0.264 OA
ATOM     11  O   UNL d   1      58.471   0.118  31.311  0.00  0.00    -0.286 OA
ATOM     12  C   UNL d   1      57.022   0.066  32.089  0.00  0.00     0.017 A 
ATOM     13  C   UNL d   1      56.059  -1.268  31.967  0.00  0.00     0.026 A 
ATOM     14  C   UNL d   1      56.300   0.044  32.478  0.00  0.00     0.058 A 
ATOM     15  C   UNL d   1      55.817  -0.625  32.417  0.00  0.00     0.013 A 
ATOM     16 CL   UNL d   1      56.054   0.682  32.929  0.00  0.00    -0.082 Cl
ENDROOT
BRANCH   5  17
ATOM     17  C   UNL d   1      59.405  -0.658  30.412  0.00  0.00     0.039 A 
ATOM     18  C   UNL d   1      59.420  -0.093  29.809  0.00  0.00     0.096 A 
ATOM     19  C   UNL d   1      59.898   0.573  29.875  0.00  0.00     0.024 A 
ATOM     20  C   UNL d   1      60.371   0.681  30.551  0.00  0.00     0.002 A 
ATOM     21  C   UNL d   1      60.357   0.117  31.155  0.00  0.00     0.000 A 
ATOM     22  C   UNL d   1      59.872  -0.554  31.083  0.00  0.00     0.003 A 
BRANCH  18  23
ATOM     23  O   UNL d   1      58.949  -0.205  29.141  0.00  0.00    -0.328 OA
ATOM     24  C   UNL d   1      58.843   0.414  28.608  0.00  0.00     0.181 C 
ENDBRANCH  18  23
ENDBRANCH   5  17
BRANCH   1  25
ATOM     25  C   UNL d   1      59.436  -2.433  29.522  0.00  0.00     0.179 A 
ATOM     26  N   UNL d   1      59.532  -2.304  28.719  0.00  0.00    -0.108 NA
ATOM     27  O   UNL d   1      60.159  -2.768  28.455  0.00  0.00    -0.210 OA
ATOM     28  C   UNL d   1      60.451  -3.187  29.101  0.00  0.00     0.128 A 
ATOM     29  C   UNL d   1      60.007  -2.983  29.763  0.00  0.00     0.067 A 
ATOM     30  C   UNL d   1      61.081  -3.720  29.090  0.00  0.00     0.029 C 
ENDBRANCH   1  25
TORSDOF 3
ENDMDL
