MODEL 1
REMARK VINA RESULT:      -5.1      0.000      0.000
REMARK  4 active torsions:
REMARK  status: ('A' for Active; 'I' for Inactive)
REMARK       I    between atoms: N_3  and  C_1 
REMARK       I    between atoms: N_7  and  C_1 
REMARK    1  A    between atoms: C_2  and  N_3 
REMARK    2  A    between atoms: C_4  and  C_5 
REMARK    3  A    between atoms: O_13  and  C_4 
REMARK    4  A    between atoms: C_15  and  N_7 
ROOT
ATOM      1  C   UNL d   1      58.613  -0.612  29.469  0.00  0.00     0.097 A 
ATOM      2  C   UNL d   1      59.287  -1.801  29.059  0.00  0.00     0.065 A 
ATOM      3  C   UNL d   1      58.621  -1.430  29.374  0.00  0.00     0.025 A 
ATOM      4  C   UNL d   1      59.271  -0.163  29.249  0.00  0.00     0.075 A 
ATOM      5  C   UNL d   1      59.952  -1.348  28.838  0.00  0.00     0.006 A 
ATOM      6  C   UNL d   1      59.937  -0.533  28.935  0.00  0.00     0.013 A 
ATOM      7 CL   UNL d   1      59.261   0.659  29.345  0.00  0.00    -0.081 Cl
ENDROOT
BRANCH   1   8
ATOM      8  N   UNL d   1      57.947  -0.241  29.783  0.00  0.00    -0.190 NA
ATOM      9  C   UNL d   1      57.741  -0.367  30.571  0.00  0.00     0.369 C 
ATOM     10  N   UNL d   1      57.072   0.006  30.883  0.00  0.00    -0.191 NA
ATOM     11  O   UNL d   1      58.200  -0.864  31.045  0.00  0.00    -0.242 OA
BRANCH  10  12
ATOM     12  C   UNL d   1      56.863  -0.119  31.674  0.00  0.00     0.086 A 
ATOM     13  C   UNL d   1      56.427  -0.794  31.879  0.00  0.00     0.019 A 
ATOM     14  C   UNL d   1      56.224  -0.909  32.670  0.00  0.00     0.002 A 
ATOM     15  C   UNL d   1      56.451  -0.364  33.248  0.00  0.00     0.000 A 
ATOM     16  C   UNL d   1      56.880   0.296  33.034  0.00  0.00     0.002 A 
ATOM     17  C   UNL d   1      57.090   0.426  32.252  0.00  0.00     0.019 A 
ENDBRANCH  10  12
ENDBRANCH   1   8
BRANCH   2  18
ATOM     18  C   UNL d   1      59.299  -2.627  28.962  0.00  0.00     0.296 C 
ATOM     19  O   UNL d   1      59.874  -3.077  29.349  0.00  0.00    -0.259 OA
BRANCH  18  20
ATOM     20  O   UNL d   1      58.740  -2.995  28.482  0.00  0.00    -0.296 OA
ATOM     21  C   UNL d   1      58.695  -3.820  28.457  0.00  0.00     0.185 C 
ENDBRANCH  18  20
ENDBRANCH   2  18
TORSDOF 4
ENDMDL
MODEL 2
REMARK VINA RESULT:      -4.3      1.118      4.164
REMARK  4 active torsions:
REMARK  status: ('A' for Active; 'I' for Inactive)
REMARK       I    between atoms: N_3  and  C_1 
REMARK       I    between atoms: N_7  and  C_1 
REMARK    1  A    between atoms: C_2  and  N_3 
REMARK    2  A    between atoms: C_4  and  C_5 
REMARK    3  A    between atoms: O_13  and  C_4 
REMARK    4  A    between atoms: C_15  and  N_7 
ROOT
ATOM      1  C   UNL d   1      57.974  -0.297  30.371  0.00  0.00     0.097 A 
ATOM      2  C   UNL d   1      57.228  -0.343  31.586  0.00  0.00     0.065 A 
ATOM      3  C   UNL d   1      57.383  -0.639  30.832  0.00  0.00     0.025 A 
ATOM      4  C   UNL d   1      58.411   0.340  30.663  0.00  0.00     0.075 A 
ATOM      5  C   UNL d   1      57.668   0.301  31.881  0.00  0.00     0.006 A 
ATOM      6  C   UNL d   1      58.256   0.636  31.416  0.00  0.00     0.013 A 
ATOM      7 CL   UNL d   1      59.005   0.682  30.198  0.00  0.00    -0.081 Cl
ENDROOT
BRANCH   1   8
ATOM      8  N   UNL d   1      58.130  -0.594  29.617  0.00  0.00    -0.190 NA
ATOM      9  C   UNL d   1      58.490  -1.330  29.532  0.00  0.00     0.369 C 
ATOM     10  N   UNL d   1      58.644  -1.624  28.774  0.00  0.00    -0.191 NA
ATOM     11  O   UNL d   1      58.694  -1.771  30.199  0.00  0.00    -0.242 OA
BRANCH  10  12
ATOM     12  C   UNL d   1      59.005  -2.363  28.687  0.00  0.00     0.086 A 
ATOM     13  C   UNL d   1      58.534  -3.040  28.600  0.00  0.00     0.019 A 
ATOM     14  C   UNL d   1      58.904  -3.772  28.513  0.00  0.00     0.002 A 
ATOM     15  C   UNL d   1      59.728  -3.831  28.512  0.00  0.00     0.000 A 
ATOM     16  C   UNL d   1      60.181  -3.158  28.598  0.00  0.00     0.002 A 
ATOM     17  C   UNL d   1      59.829  -2.422  28.686  0.00  0.00     0.019 A 
ENDBRANCH  10  12
ENDBRANCH   1   8
BRANCH   2  18
ATOM     18  C   UNL d   1      56.632  -0.685  32.055  0.00  0.00     0.296 C 
ATOM     19  O   UNL d   1      56.605  -1.505  32.151  0.00  0.00    -0.259 OA
BRANCH  18  20
ATOM     20  O   UNL d   1      56.070  -0.208  32.423  0.00  0.00    -0.296 OA
ATOM     21  C   UNL d   1      55.521  -0.540  32.944  0.00  0.00     0.185 C 
ENDBRANCH  18  20
ENDBRANCH   2  18
TORSDOF 4
ENDMDL
MODEL 3
REMARK VINA RESULT:      -3.2      1.719      2.212
REMARK  4 active torsions:
REMARK  status: ('A' for Active; 'I' for Inactive)
REMARK       I    between atoms: N_3  and  C_1 
REMARK       I    between atoms: N_7  and  C_1 
REMARK    1  A    between atoms: C_2  and  N_3 
REMARK    2  A    between atoms: C_4  and  C_5 
REMARK    3  A    between atoms: O_13  and  C_4 
REMARK    4  A    between atoms: C_15  and  N_7 
ROOT
ATOM      1  C   UNL d   1      58.334   0.434  29.810  0.00  0.00     0.097 A 
ATOM      2  C   UNL d   1      59.735   0.163  29.806  0.00  0.00     0.065 A 
ATOM      3  C   UNL d   1      59.043   0.339  30.219  0.00  0.00     0.025 A 
ATOM      4  C   UNL d   1      58.316   0.353  28.988  0.00  0.00     0.075 A 
ATOM      5  C   UNL d   1      59.717   0.081  28.976  0.00  0.00     0.006 A 
ATOM      6  C   UNL d   1      59.007   0.177  28.575  0.00  0.00     0.013 A 
ATOM      7 CL   UNL d   1      57.602   0.449  28.579  0.00  0.00    -0.081 Cl
ENDROOT
BRANCH   1   8
ATOM      8  N   UNL d   1      57.642   0.610  30.223  0.00  0.00    -0.190 NA
ATOM      9  C   UNL d   1      57.470   0.212  30.924  0.00  0.00     0.369 C 
ATOM     10  N   UNL d   1      56.775   0.390  31.335  0.00  0.00    -0.191 NA
ATOM     11  O   UNL d   1      57.989  -0.362  31.212  0.00  0.00    -0.242 OA
BRANCH  10  12
ATOM     12  C   UNL d   1      56.600  -0.008  32.039  0.00  0.00     0.086 A 
ATOM     13  C   UNL d   1      56.568   0.416  32.751  0.00  0.00     0.019 A 
ATOM     14  C   UNL d   1      56.393   0.009  33.447  0.00  0.00     0.002 A 
ATOM     15  C   UNL d   1      56.253  -0.805  33.436  0.00  0.00     0.000 A 
ATOM     16  C   UNL d   1      56.288  -1.212  32.729  0.00  0.00     0.002 A 
ATOM     17  C   UNL d   1      56.460  -0.822  32.028  0.00  0.00     0.019 A 
ENDBRANCH  10  12
ENDBRANCH   1   8
BRANCH   2  18
ATOM     18  C   UNL d   1      60.453   0.066  30.215  0.00  0.00     0.296 C 
ATOM     19  O   UNL d   1      60.862  -0.649  30.161  0.00  0.00    -0.259 OA
BRANCH  18  20
ATOM     20  O   UNL d   1      60.754   0.681  30.673  0.00  0.00    -0.296 OA
ATOM     21  C   UNL d   1      61.098   0.521  31.406  0.00  0.00     0.185 C 
ENDBRANCH  18  20
ENDBRANCH   2  18
TORSDOF 4
ENDMDL
