MODEL 1
REMARK VINA RESULT:      35.9      0.000      0.000
REMARK  3 active torsions:
REMARK  status: ('A' for Active; 'I' for Inactive)
REMARK    1  A    between atoms: C_8  and  C_1 
REMARK    2  A    between atoms: N_5  and  C_2 
REMARK       I    between atoms: C_7  and  N_5 
REMARK    3  A    between atoms: C_9  and  C_7 
ROOT
ATOM      1  C   UNL d   1      13.801  12.316  -3.304  0.00  0.00     0.229 A 
ATOM      2  C   UNL d   1      14.212  12.981  -2.224  0.00  0.00     0.297 A 
ATOM      3  O   UNL d   1      13.999  13.065  -3.014  0.00  0.00    -0.252 OA
ATOM      4  N   UNL d   1      13.895  11.781  -2.693  0.00  0.00    -0.117 NA
ATOM      5  N   UNL d   1      14.148  12.191  -2.026  0.00  0.00    -0.101 NA
ENDROOT
BRANCH   2   6
ATOM      6  N   UNL d   1      14.448  13.594  -1.727  0.00  0.00    -0.165 NA
ATOM      7  C   UNL d   1      14.599  14.335  -2.031  0.00  0.00     0.282 C 
ATOM      8  O   UNL d   1      14.519  14.485  -2.842  0.00  0.00    -0.265 OA
BRANCH   7   9
ATOM      9  C   UNL d   1      14.835  14.947  -1.534  0.00  0.00     0.058 A 
ATOM     10  C   UNL d   1      14.947  14.797  -0.732  0.00  0.00     0.005 A 
ATOM     11  C   UNL d   1      15.184  15.406  -0.224  0.00  0.00     0.000 A 
ATOM     12  C   UNL d   1      15.308  16.167  -0.526  0.00  0.00     0.000 A 
ATOM     13  C   UNL d   1      15.194  16.311  -1.332  0.00  0.00     0.000 A 
ATOM     14  C   UNL d   1      15.544  16.784  -0.037  0.00  0.00     0.000 C 
ATOM     15  C   UNL d   1      14.957  15.702  -1.838  0.00  0.00     0.005 A 
ENDBRANCH   7   9
ENDBRANCH   2   6
BRANCH   1  16
ATOM     16  C   UNL d   1      13.555  12.149  -4.076  0.00  0.00     0.143 A 
ATOM     17  O   UNL d   1      14.040  11.956  -4.709  0.00  0.00    -0.301 OA
ATOM     18  C   UNL d   1      13.563  11.835  -5.367  0.00  0.00     0.123 A 
ATOM     19  C   UNL d   1      12.776  11.954  -5.141  0.00  0.00     0.029 A 
ATOM     20  C   UNL d   1      12.769  12.148  -4.344  0.00  0.00     0.030 A 
ENDBRANCH   1  16
TORSDOF 3
ENDMDL
MODEL 2
REMARK VINA RESULT:      36.3      2.523      3.692
REMARK  3 active torsions:
REMARK  status: ('A' for Active; 'I' for Inactive)
REMARK    1  A    between atoms: C_8  and  C_1 
REMARK    2  A    between atoms: N_5  and  C_2 
REMARK       I    between atoms: C_7  and  N_5 
REMARK    3  A    between atoms: C_9  and  C_7 
ROOT
ATOM      1  C   UNL d   1      13.950  12.266  -2.122  0.00  0.00     0.229 A 
ATOM      2  C   UNL d   1      13.815  12.896  -3.289  0.00  0.00     0.297 A 
ATOM      3  O   UNL d   1      14.129  12.962  -2.531  0.00  0.00    -0.252 OA
ATOM      4  N   UNL d   1      13.529  11.781  -2.628  0.00  0.00    -0.117 NA
ATOM      5  N   UNL d   1      13.446  12.170  -3.349  0.00  0.00    -0.101 NA
ENDROOT
BRANCH   2   6
ATOM      6  N   UNL d   1      13.869  13.469  -3.878  0.00  0.00    -0.165 NA
ATOM      7  C   UNL d   1      13.367  14.111  -3.874  0.00  0.00     0.282 C 
ATOM      8  O   UNL d   1      12.795  14.199  -3.282  0.00  0.00    -0.265 OA
BRANCH   7   9
ATOM      9  C   UNL d   1      13.422  14.684  -4.463  0.00  0.00     0.058 A 
ATOM     10  C   UNL d   1      14.108  15.135  -4.526  0.00  0.00     0.005 A 
ATOM     11  C   UNL d   1      14.173  15.714  -5.115  0.00  0.00     0.000 A 
ATOM     12  C   UNL d   1      13.544  15.836  -5.640  0.00  0.00     0.000 A 
ATOM     13  C   UNL d   1      12.859  15.379  -5.572  0.00  0.00     0.000 A 
ATOM     14  C   UNL d   1      13.590  16.406  -6.231  0.00  0.00     0.000 C 
ATOM     15  C   UNL d   1      12.796  14.803  -4.984  0.00  0.00     0.005 A 
ENDBRANCH   7   9
ENDBRANCH   2   6
BRANCH   1  16
ATOM     16  C   UNL d   1      14.162  12.100  -1.339  0.00  0.00     0.143 A 
ATOM     17  O   UNL d   1      14.922  12.105  -1.032  0.00  0.00    -0.301 OA
ATOM     18  C   UNL d   1      14.876  11.909  -0.235  0.00  0.00     0.123 A 
ATOM     19  C   UNL d   1      14.081  11.781  -0.047  0.00  0.00     0.029 A 
ATOM     20  C   UNL d   1      13.638  11.898  -0.728  0.00  0.00     0.030 A 
ENDBRANCH   1  16
TORSDOF 3
ENDMDL
