MODEL 1
REMARK VINA RESULT:      -2.2      0.000      0.000
REMARK  6 active torsions:
REMARK  status: ('A' for Active; 'I' for Inactive)
REMARK    1  A    between atoms: C_2  and  S_1 
REMARK    2  A    between atoms: N_8  and  S_1 
REMARK    3  A    between atoms: O_15  and  C_3 
REMARK    4  A    between atoms: C_14  and  N_8 
REMARK    5  A    between atoms: N_10  and  C_17 
REMARK    6  A    between atoms: C_17  and  C_14 
ROOT
ATOM      1  S   UNL d   1      32.151  17.895 -23.896  0.00  0.00     0.287 S 
ATOM      2  O   UNL d   1      32.172  17.420 -23.215  0.00  0.00    -0.198 OA
ATOM      3  O   UNL d   1      32.127  18.365 -24.572  0.00  0.00    -0.198 OA
ENDROOT
BRANCH   1   4
ATOM      4  C   UNL d   1      31.532  17.440 -24.190  0.00  0.00     0.128 A 
ATOM      5  C   UNL d   1      31.680  16.683 -24.498  0.00  0.00     0.118 A 
ATOM      6  C   UNL d   1      31.061  16.227 -24.793  0.00  0.00     0.091 A 
ATOM      7 CL   UNL d   1      31.212  15.478 -25.097  0.00  0.00    -0.079 Cl
ATOM      8  C   UNL d   1      30.290  16.521 -24.782  0.00  0.00     0.070 A 
ATOM      9  C   UNL d   1      30.139  17.271 -24.477  0.00  0.00     0.013 A 
ATOM     10 CL   UNL d   1      29.671  16.066 -25.076  0.00  0.00    -0.081 Cl
ATOM     11  C   UNL d   1      30.761  17.734 -24.179  0.00  0.00     0.016 A 
BRANCH   5  12
ATOM     12  O   UNL d   1      32.451  16.389 -24.508  0.00  0.00    -0.327 OA
ATOM     13  C   UNL d   1      32.646  15.758 -25.001  0.00  0.00     0.181 C 
ENDBRANCH   5  12
ENDBRANCH   1   4
BRANCH   1  14
ATOM     14  N   UNL d   1      32.773  18.353 -23.598  0.00  0.00    -0.155 NA
BRANCH  14  15
ATOM     15  C   UNL d   1      32.617  18.972 -23.078  0.00  0.00     0.131 C 
BRANCH  15  16
ATOM     16  C   UNL d   1      33.240  19.398 -22.751  0.00  0.00     0.102 C 
BRANCH  16  17
ATOM     17  N   UNL d   1      33.084  20.011 -22.222  0.00  0.00    -0.298 N 
ATOM     18  C   UNL d   1      33.141  19.879 -21.402  0.00  0.00     0.107 A 
ATOM     19  C   UNL d   1      32.987  20.487 -20.874  0.00  0.00     0.142 A 
ATOM     20  O   UNL d   1      32.774  21.233 -21.154  0.00  0.00    -0.300 OA
ATOM     21  C   UNL d   1      32.717  21.365 -21.971  0.00  0.00     0.142 A 
ATOM     22  C   UNL d   1      32.872  20.753 -22.507  0.00  0.00     0.107 A 
ENDBRANCH  16  17
ENDBRANCH  15  16
ENDBRANCH  14  15
ENDBRANCH   1  14
TORSDOF 6
ENDMDL
MODEL 2
REMARK VINA RESULT:      -0.9      2.830      5.099
REMARK  6 active torsions:
REMARK  status: ('A' for Active; 'I' for Inactive)
REMARK    1  A    between atoms: C_2  and  S_1 
REMARK    2  A    between atoms: N_8  and  S_1 
REMARK    3  A    between atoms: O_15  and  C_3 
REMARK    4  A    between atoms: C_14  and  N_8 
REMARK    5  A    between atoms: N_10  and  C_17 
REMARK    6  A    between atoms: C_17  and  C_14 
ROOT
ATOM      1  S   UNL d   1      32.964  20.166 -22.473  0.00  0.00     0.287 S 
ATOM      2  O   UNL d   1      33.241  19.693 -21.849  0.00  0.00    -0.198 OA
ATOM      3  O   UNL d   1      32.688  20.637 -23.089  0.00  0.00    -0.198 OA
ENDROOT
BRANCH   1   4
ATOM      4  C   UNL d   1      32.772  20.757 -21.934  0.00  0.00     0.128 A 
ATOM      5  C   UNL d   1      32.908  21.554 -22.123  0.00  0.00     0.118 A 
ATOM      6  C   UNL d   1      32.716  22.147 -21.584  0.00  0.00     0.091 A 
ATOM      7 CL   UNL d   1      32.852  22.935 -21.775  0.00  0.00    -0.079 Cl
ATOM      8  C   UNL d   1      32.387  21.949 -20.853  0.00  0.00     0.070 A 
ATOM      9  C   UNL d   1      32.250  21.160 -20.662  0.00  0.00     0.013 A 
ATOM     10 CL   UNL d   1      32.194  22.540 -20.314  0.00  0.00    -0.081 Cl
ATOM     11  C   UNL d   1      32.443  20.560 -21.204  0.00  0.00     0.016 A 
BRANCH   5  12
ATOM     12  O   UNL d   1      33.236  21.752 -22.853  0.00  0.00    -0.327 OA
ATOM     13  C   UNL d   1      33.241  22.536 -23.106  0.00  0.00     0.181 C 
ENDBRANCH   5  12
ENDBRANCH   1   4
BRANCH   1  14
ATOM     14  N   UNL d   1      33.157  19.570 -23.014  0.00  0.00    -0.155 NA
BRANCH  14  15
ATOM     15  C   UNL d   1      32.828  18.819 -22.934  0.00  0.00     0.131 C 
BRANCH  15  16
ATOM     16  C   UNL d   1      32.951  18.254 -23.520  0.00  0.00     0.102 C 
BRANCH  16  17
ATOM     17  N   UNL d   1      32.557  17.532 -23.481  0.00  0.00    -0.298 N 
ATOM     18  C   UNL d   1      31.744  17.489 -23.657  0.00  0.00     0.107 A 
ATOM     19  C   UNL d   1      31.350  16.771 -23.619  0.00  0.00     0.142 A 
ATOM     20  O   UNL d   1      31.759  16.086 -23.406  0.00  0.00    -0.300 OA
ATOM     21  C   UNL d   1      32.568  16.129 -23.232  0.00  0.00     0.142 A 
ATOM     22  C   UNL d   1      32.970  16.852 -23.269  0.00  0.00     0.107 A 
ENDBRANCH  16  17
ENDBRANCH  15  16
ENDBRANCH  14  15
ENDBRANCH   1  14
TORSDOF 6
ENDMDL
MODEL 3
REMARK VINA RESULT:      -0.1      1.113      1.638
REMARK  6 active torsions:
REMARK  status: ('A' for Active; 'I' for Inactive)
REMARK    1  A    between atoms: C_2  and  S_1 
REMARK    2  A    between atoms: N_8  and  S_1 
REMARK    3  A    between atoms: O_15  and  C_3 
REMARK    4  A    between atoms: C_14  and  N_8 
REMARK    5  A    between atoms: N_10  and  C_17 
REMARK    6  A    between atoms: C_17  and  C_14 
ROOT
ATOM      1  S   UNL d   1      32.882  18.571 -23.376  0.00  0.00     0.287 S 
ATOM      2  O   UNL d   1      32.565  18.504 -22.611  0.00  0.00    -0.198 OA
ATOM      3  O   UNL d   1      33.196  18.635 -24.135  0.00  0.00    -0.198 OA
ENDROOT
BRANCH   1   4
ATOM      4  C   UNL d   1      32.569  17.835 -23.567  0.00  0.00     0.128 A 
ATOM      5  C   UNL d   1      31.933  17.777 -24.098  0.00  0.00     0.118 A 
ATOM      6  C   UNL d   1      31.618  17.040 -24.289  0.00  0.00     0.091 A 
ATOM      7 CL   UNL d   1      30.989  16.987 -24.816  0.00  0.00    -0.079 Cl
ATOM      8  C   UNL d   1      31.935  16.356 -23.953  0.00  0.00     0.070 A 
ATOM      9  C   UNL d   1      32.565  16.409 -23.426  0.00  0.00     0.013 A 
ATOM     10 CL   UNL d   1      31.621  15.619 -24.144  0.00  0.00    -0.081 Cl
ATOM     11  C   UNL d   1      32.885  17.151 -23.231  0.00  0.00     0.016 A 
BRANCH   5  12
ATOM     12  O   UNL d   1      31.617  18.461 -24.434  0.00  0.00    -0.327 OA
ATOM     13  C   UNL d   1      30.870  18.443 -24.782  0.00  0.00     0.181 C 
ENDBRANCH   5  12
ENDBRANCH   1   4
BRANCH   1  14
ATOM     14  N   UNL d   1      33.198  19.311 -23.182  0.00  0.00    -0.155 NA
BRANCH  14  15
ATOM     15  C   UNL d   1      32.781  19.818 -22.683  0.00  0.00     0.131 C 
BRANCH  15  16
ATOM     16  C   UNL d   1      33.018  20.603 -22.608  0.00  0.00     0.102 C 
BRANCH  16  17
ATOM     17  N   UNL d   1      32.749  21.052 -21.972  0.00  0.00    -0.298 N 
ATOM     18  C   UNL d   1      32.545  20.680 -21.255  0.00  0.00     0.107 A 
ATOM     19  C   UNL d   1      32.277  21.125 -20.620  0.00  0.00     0.142 A 
ATOM     20  O   UNL d   1      32.209  21.944 -20.690  0.00  0.00    -0.300 OA
ATOM     21  C   UNL d   1      32.413  22.315 -21.403  0.00  0.00     0.142 A 
ATOM     22  C   UNL d   1      32.684  21.869 -22.046  0.00  0.00     0.107 A 
ENDBRANCH  16  17
ENDBRANCH  15  16
ENDBRANCH  14  15
ENDBRANCH   1  14
TORSDOF 6
ENDMDL
MODEL 4
REMARK VINA RESULT:       0.3      2.353      4.574
REMARK  6 active torsions:
REMARK  status: ('A' for Active; 'I' for Inactive)
REMARK    1  A    between atoms: C_2  and  S_1 
REMARK    2  A    between atoms: N_8  and  S_1 
REMARK    3  A    between atoms: O_15  and  C_3 
REMARK    4  A    between atoms: C_14  and  N_8 
REMARK    5  A    between atoms: N_10  and  C_17 
REMARK    6  A    between atoms: C_17  and  C_14 
ROOT
ATOM      1  S   UNL d   1      32.509  18.121 -24.242  0.00  0.00     0.287 S 
ATOM      2  O   UNL d   1      33.207  18.038 -24.685  0.00  0.00    -0.198 OA
ATOM      3  O   UNL d   1      31.818  18.205 -23.803  0.00  0.00    -0.198 OA
ENDROOT
BRANCH   1   4
ATOM      4  C   UNL d   1      32.691  18.912 -24.109  0.00  0.00     0.128 A 
ATOM      5  C   UNL d   1      32.876  19.175 -23.343  0.00  0.00     0.118 A 
ATOM      6  C   UNL d   1      33.058  19.967 -23.210  0.00  0.00     0.091 A 
ATOM      7 CL   UNL d   1      33.240  20.223 -22.450  0.00  0.00    -0.079 Cl
ATOM      8  C   UNL d   1      33.058  20.502 -23.838  0.00  0.00     0.070 A 
ATOM      9  C   UNL d   1      32.876  20.245 -24.599  0.00  0.00     0.013 A 
ATOM     10 CL   UNL d   1      33.241  21.294 -23.705  0.00  0.00    -0.081 Cl
ATOM     11  C   UNL d   1      32.691  19.447 -24.737  0.00  0.00     0.016 A 
BRANCH   5  12
ATOM     12  O   UNL d   1      32.875  18.640 -22.716  0.00  0.00    -0.327 OA
ATOM     13  C   UNL d   1      33.205  18.853 -21.991  0.00  0.00     0.181 C 
ENDBRANCH   5  12
ENDBRANCH   1   4
BRANCH   1  14
ATOM     14  N   UNL d   1      32.327  17.325 -24.377  0.00  0.00    -0.155 NA
BRANCH  14  15
ATOM     15  C   UNL d   1      31.543  17.094 -24.482  0.00  0.00     0.131 C 
BRANCH  15  16
ATOM     16  C   UNL d   1      31.310  16.332 -24.276  0.00  0.00     0.102 C 
BRANCH  16  17
ATOM     17  N   UNL d   1      30.513  16.124 -24.309  0.00  0.00    -0.298 N 
ATOM     18  C   UNL d   1      30.174  15.880 -25.029  0.00  0.00     0.107 A 
ATOM     19  C   UNL d   1      29.382  15.674 -25.064  0.00  0.00     0.142 A 
ATOM     20  O   UNL d   1      28.916  15.706 -24.383  0.00  0.00    -0.300 OA
ATOM     21  C   UNL d   1      29.254  15.949 -23.666  0.00  0.00     0.142 A 
ATOM     22  C   UNL d   1      30.054  16.159 -23.627  0.00  0.00     0.107 A 
ENDBRANCH  16  17
ENDBRANCH  15  16
ENDBRANCH  14  15
ENDBRANCH   1  14
TORSDOF 6
ENDMDL
