MODEL 1
REMARK VINA RESULT:     101.9      0.000      0.000
REMARK  5 active torsions:
REMARK  status: ('A' for Active; 'I' for Inactive)
REMARK    1  A    between atoms: O_5  and  C_1 
REMARK    2  A    between atoms: C_10  and  C_2 
REMARK    3  A    between atoms: C_3  and  O_5 
REMARK    4  A    between atoms: C_6  and  C_3 
REMARK    5  A    between atoms: N_11  and  C_10 
ROOT
ATOM      1  C   UNL d   1     -55.944 -99.941 -43.413  0.00  0.00     0.122 A 
ATOM      2  C   UNL d   1     -55.553 -99.970 -44.139  0.00  0.00     0.043 A 
ATOM      3  C   UNL d   1     -56.664 -99.545 -43.349  0.00  0.00     0.105 A 
ATOM      4  C   UNL d   1     -56.993 -99.178 -44.009  0.00  0.00     0.030 A 
ATOM      5  C   UNL d   1     -56.599 -99.210 -44.727  0.00  0.00     0.059 A 
ATOM      6  C   UNL d   1     -55.882 -99.602 -44.799  0.00  0.00     0.015 A 
ATOM      7  N   UNL d   1     -57.048 -99.519 -42.627  0.00  0.00    -0.242 NA
ATOM      8 CL   UNL d   1     -56.952 -98.831 -45.382  0.00  0.00    -0.082 Cl
ATOM      9  C   UNL d   1     -57.704 -98.788 -43.941  0.00  0.00     0.004 A 
ATOM     10  C   UNL d   1     -57.769 -99.122 -42.563  0.00  0.00     0.099 A 
ATOM     11  C   UNL d   1     -58.098 -98.755 -43.223  0.00  0.00     0.021 A 
ENDROOT
BRANCH   1  12
ATOM     12  O   UNL d   1     -55.654-100.271 -42.809  0.00  0.00    -0.271 OA
BRANCH  12  13
ATOM     13  C   UNL d   1     -55.104-100.076 -42.042  0.00  0.00     0.301 C 
ATOM     14  O   UNL d   1     -54.720 -99.148 -42.038  0.00  0.00    -0.259 OA
BRANCH  13  15
ATOM     15  C   UNL d   1     -54.974-100.637 -41.453  0.00  0.00     0.074 A 
ATOM     16  C   UNL d   1     -54.845-101.432 -41.661  0.00  0.00     0.063 A 
ATOM     17 CL   UNL d   1     -54.836-101.731 -42.484  0.00  0.00    -0.082 Cl
ATOM     18  C   UNL d   1     -54.714-101.999 -41.063  0.00  0.00     0.012 A 
ATOM     19  C   UNL d   1     -54.711-101.772 -40.258  0.00  0.00     0.001 A 
ATOM     20  C   UNL d   1     -54.840-100.978 -40.056  0.00  0.00     0.000 A 
ATOM     21  C   UNL d   1     -54.971-100.413 -40.654  0.00  0.00     0.006 A 
ENDBRANCH  13  15
ENDBRANCH  12  13
ENDBRANCH   1  12
BRANCH   2  22
ATOM     22  C   UNL d   1     -54.769-100.350 -44.400  0.00  0.00     0.082 C 
BRANCH  22  23
ATOM     23  N   UNL d   1     -54.781-100.987 -44.917  0.00  0.00    -0.299 N 
ATOM     24  C   UNL d   1     -54.862-101.745 -44.624  0.00  0.00     0.107 A 
ATOM     25  C   UNL d   1     -54.876-102.397 -45.134  0.00  0.00     0.142 A 
ATOM     26  O   UNL d   1     -54.808-102.272 -45.937  0.00  0.00    -0.300 OA
ATOM     27  C   UNL d   1     -54.726-101.504 -46.238  0.00  0.00     0.142 A 
ATOM     28  C   UNL d   1     -54.714-100.870 -45.719  0.00  0.00     0.107 A 
ENDBRANCH  22  23
ENDBRANCH   2  22
TORSDOF 5
ENDMDL
MODEL 2
REMARK VINA RESULT:     102.8      1.724      2.063
REMARK  5 active torsions:
REMARK  status: ('A' for Active; 'I' for Inactive)
REMARK    1  A    between atoms: O_5  and  C_1 
REMARK    2  A    between atoms: C_10  and  C_2 
REMARK    3  A    between atoms: C_3  and  O_5 
REMARK    4  A    between atoms: C_6  and  C_3 
REMARK    5  A    between atoms: N_11  and  C_10 
ROOT
ATOM      1  C   UNL d   1     -54.859-101.246 -43.087  0.00  0.00     0.122 A 
ATOM      2  C   UNL d   1     -54.894-101.554 -43.851  0.00  0.00     0.043 A 
ATOM      3  C   UNL d   1     -54.818-100.430 -42.974  0.00  0.00     0.105 A 
ATOM      4  C   UNL d   1     -54.811 -99.923 -43.623  0.00  0.00     0.030 A 
ATOM      5  C   UNL d   1     -54.845-100.237 -44.380  0.00  0.00     0.059 A 
ATOM      6  C   UNL d   1     -54.887-101.047 -44.501  0.00  0.00     0.015 A 
ATOM      7  N   UNL d   1     -54.783-100.128 -42.214  0.00  0.00    -0.242 NA
ATOM      8 CL   UNL d   1     -54.837 -99.704 -45.023  0.00  0.00    -0.082 Cl
ATOM      9  C   UNL d   1     -54.770 -99.119 -43.507  0.00  0.00     0.004 A 
ATOM     10  C   UNL d   1     -54.742 -99.312 -42.101  0.00  0.00     0.099 A 
ATOM     11  C   UNL d   1     -54.735 -98.805 -42.751  0.00  0.00     0.021 A 
ENDROOT
BRANCH   1  12
ATOM     12  O   UNL d   1     -54.865-101.696 -42.491  0.00  0.00    -0.271 OA
BRANCH  12  13
ATOM     13  C   UNL d   1     -55.364-101.863 -41.684  0.00  0.00     0.301 C 
ATOM     14  O   UNL d   1     -56.146-102.481 -41.805  0.00  0.00    -0.259 OA
BRANCH  13  15
ATOM     15  C   UNL d   1     -55.149-101.517 -40.968  0.00  0.00     0.074 A 
ATOM     16  C   UNL d   1     -54.966-101.997 -40.314  0.00  0.00     0.063 A 
ATOM     17 CL   UNL d   1     -54.985-102.872 -40.326  0.00  0.00    -0.082 Cl
ATOM     18  C   UNL d   1     -54.749-101.643 -39.591  0.00  0.00     0.012 A 
ATOM     19  C   UNL d   1     -54.714-100.812 -39.520  0.00  0.00     0.001 A 
ATOM     20  C   UNL d   1     -54.897-100.336 -40.174  0.00  0.00     0.000 A 
ATOM     21  C   UNL d   1     -55.114-100.691 -40.897  0.00  0.00     0.006 A 
ENDBRANCH  13  15
ENDBRANCH  12  13
ENDBRANCH   1  12
BRANCH   2  22
ATOM     22  C   UNL d   1     -54.942-102.405 -44.169  0.00  0.00     0.082 C 
BRANCH  22  23
ATOM     23  N   UNL d   1     -55.260-102.541 -44.913  0.00  0.00    -0.299 N 
ATOM     24  C   UNL d   1     -54.784-102.481 -45.574  0.00  0.00     0.107 A 
ATOM     25  C   UNL d   1     -55.090-102.615 -46.331  0.00  0.00     0.142 A 
ATOM     26  O   UNL d   1     -55.879-102.809 -46.409  0.00  0.00    -0.300 OA
ATOM     27  C   UNL d   1     -56.365-102.871 -45.740  0.00  0.00     0.142 A 
ATOM     28  C   UNL d   1     -56.045-102.735 -44.998  0.00  0.00     0.107 A 
ENDBRANCH  22  23
ENDBRANCH   2  22
TORSDOF 5
ENDMDL
