MODEL 1
REMARK VINA RESULT:      47.0      0.000      0.000
REMARK  5 active torsions:
REMARK  status: ('A' for Active; 'I' for Inactive)
REMARK    1  A    between atoms: C_2  and  C_1 
REMARK    2  A    between atoms: C_8  and  C_2 
REMARK    3  A    between atoms: O_18  and  C_7 
REMARK    4  A    between atoms: C_13  and  C_8 
REMARK    5  A    between atoms: O_20  and  C_11 
ROOT
ATOM      1  C   UNL d   1     -55.333-101.455 -39.508  0.00  0.00     0.202 C 
ATOM      2  O   UNL d   1     -56.100-101.326 -39.233  0.00  0.00    -0.286 OA
ENDROOT
BRANCH   1   3
ATOM      3  C   UNL d   1     -55.191-101.528 -40.317  0.00  0.00     0.117 A 
ATOM      4  C   UNL d   1     -55.360-102.239 -40.702  0.00  0.00     0.205 A 
ATOM      5  C   UNL d   1     -55.220-102.315 -41.509  0.00  0.00     0.084 A 
ATOM      6  O   UNL d   1     -55.669-102.879 -40.282  0.00  0.00    -0.286 OA
ATOM      7  C   UNL d   1     -54.910-101.680 -41.936  0.00  0.00     0.202 A 
ATOM      8  C   UNL d   1     -54.741-100.970 -41.555  0.00  0.00     0.084 A 
ATOM      9  O   UNL d   1     -54.770-101.759 -42.751  0.00  0.00    -0.286 OA
ATOM     10  C   UNL d   1     -54.882-100.893 -40.743  0.00  0.00     0.205 A 
ATOM     11  O   UNL d   1     -54.713-100.183 -40.363  0.00  0.00    -0.286 OA
ENDBRANCH   1   3
BRANCH   1  12
ATOM     12  C   UNL d   1     -54.713-101.512 -38.974  0.00  0.00     0.042 C 
BRANCH  12  13
ATOM     13  C   UNL d   1     -54.846-101.790 -38.211  0.00  0.00     0.005 A 
ATOM     14  C   UNL d   1     -54.863-101.260 -37.580  0.00  0.00     0.026 A 
ATOM     15  C   UNL d   1     -54.996-101.537 -36.816  0.00  0.00     0.116 A 
ATOM     16  C   UNL d   1     -55.111-102.343 -36.683  0.00  0.00     0.116 A 
ATOM     17  C   UNL d   1     -55.094-102.873 -37.318  0.00  0.00     0.026 A 
ATOM     18  C   UNL d   1     -54.960-102.588 -38.083  0.00  0.00     0.002 A 
BRANCH  15  19
ATOM     19  O   UNL d   1     -55.014-101.006 -36.178  0.00  0.00    -0.326 OA
ATOM     20  C   UNL d   1     -54.879-101.277 -35.412  0.00  0.00     0.181 C 
ENDBRANCH  15  19
BRANCH  16  21
ATOM     21  O   UNL d   1     -55.246-102.632 -35.916  0.00  0.00    -0.326 OA
ATOM     22  C   UNL d   1     -55.957-102.500 -35.539  0.00  0.00     0.181 C 
ENDBRANCH  16  21
ENDBRANCH  12  13
ENDBRANCH   1  12
TORSDOF 5
ENDMDL
