MODEL 1
REMARK VINA RESULT:      -8.7      0.000      0.000
REMARK  4 active torsions:
REMARK  status: ('A' for Active; 'I' for Inactive)
REMARK    1  A    between atoms: N_3  and  C_1 
REMARK    2  A    between atoms: C_4  and  C_2 
REMARK       I    between atoms: C_6  and  N_3 
REMARK    3  A    between atoms: C_11  and  C_6 
REMARK    4  A    between atoms: C_13  and  C_11 
ROOT
ATOM      1  N   UNL d   1      53.603  33.625  53.332  0.00  0.00    -0.201 NA
ATOM      2  C   UNL d   1      53.681  32.810  53.325  0.00  0.00     0.280 C 
ATOM      3  O   UNL d   1      54.440  32.471  53.342  0.00  0.00    -0.265 OA
ENDROOT
BRANCH   2   4
ATOM      4  C   UNL d   1      53.025  32.320  53.303  0.00  0.00     0.062 C 
BRANCH   4   5
ATOM      5  C   UNL d   1      53.103  31.508  53.410  0.00  0.00     0.005 A 
ATOM      6  C   UNL d   1      53.384  31.208  54.130  0.00  0.00     0.003 A 
ATOM      7  C   UNL d   1      53.459  30.392  54.231  0.00  0.00     0.030 A 
ATOM      8  C   UNL d   1      53.257  29.874  53.623  0.00  0.00     0.140 A 
ATOM      9  C   UNL d   1      52.980  30.173  52.915  0.00  0.00     0.030 A 
ATOM     10  F   UNL d   1      53.336  29.068  53.737  0.00  0.00    -0.204 F 
ATOM     11  C   UNL d   1      52.898  30.985  52.796  0.00  0.00     0.003 A 
ENDBRANCH   4   5
ENDBRANCH   2   4
BRANCH   1  12
ATOM     12  C   UNL d   1      52.849  33.956  53.315  0.00  0.00     0.119 A 
ATOM     13  C   UNL d   1      52.605  34.603  53.757  0.00  0.00     0.084 A 
ATOM     14  C   UNL d   1      51.813  34.750  53.573  0.00  0.00     0.014 A 
ATOM     15  C   UNL d   1      51.572  34.186  53.011  0.00  0.00     0.037 A 
ATOM     16  S   UNL d   1      52.220  33.703  52.861  0.00  0.00    -0.067 SA
BRANCH  13  17
ATOM     17  C   UNL d   1      53.061  35.035  54.292  0.00  0.00     0.299 C 
ATOM     18  O   UNL d   1      53.568  35.625  54.026  0.00  0.00    -0.264 OA
ATOM     19  N   UNL d   1      53.006  34.870  55.102  0.00  0.00    -0.102 N 
ENDBRANCH  13  17
ENDBRANCH   1  12
TORSDOF 4
ENDMDL
MODEL 2
REMARK VINA RESULT:      -8.7      2.060      3.607
REMARK  4 active torsions:
REMARK  status: ('A' for Active; 'I' for Inactive)
REMARK    1  A    between atoms: N_3  and  C_1 
REMARK    2  A    between atoms: C_4  and  C_2 
REMARK       I    between atoms: C_6  and  N_3 
REMARK    3  A    between atoms: C_11  and  C_6 
REMARK    4  A    between atoms: C_13  and  C_11 
ROOT
ATOM      1  N   UNL d   1      53.495  33.841  53.554  0.00  0.00    -0.201 NA
ATOM      2  C   UNL d   1      52.787  34.117  53.252  0.00  0.00     0.280 C 
ATOM      3  O   UNL d   1      52.675  34.935  53.151  0.00  0.00    -0.265 OA
ENDROOT
BRANCH   2   4
ATOM      4  C   UNL d   1      52.183  33.603  53.046  0.00  0.00     0.062 C 
BRANCH   4   5
ATOM      5  C   UNL d   1      51.457  33.890  52.788  0.00  0.00     0.005 A 
ATOM      6  C   UNL d   1      51.332  34.042  51.982  0.00  0.00     0.003 A 
ATOM      7  C   UNL d   1      50.600  34.329  51.729  0.00  0.00     0.030 A 
ATOM      8  C   UNL d   1      49.994  34.466  52.270  0.00  0.00     0.140 A 
ATOM      9  C   UNL d   1      50.120  34.314  53.064  0.00  0.00     0.030 A 
ATOM     10  F   UNL d   1      49.274  34.750  52.006  0.00  0.00    -0.204 F 
ATOM     11  C   UNL d   1      50.845  34.027  53.334  0.00  0.00     0.003 A 
ENDBRANCH   4   5
ENDBRANCH   2   4
BRANCH   1  12
ATOM     12  C   UNL d   1      53.602  33.030  53.653  0.00  0.00     0.119 A 
ATOM     13  C   UNL d   1      54.058  32.678  54.237  0.00  0.00     0.084 A 
ATOM     14  C   UNL d   1      54.012  31.860  54.134  0.00  0.00     0.014 A 
ATOM     15  C   UNL d   1      53.521  31.711  53.480  0.00  0.00     0.037 A 
ATOM     16  S   UNL d   1      53.275  32.441  53.192  0.00  0.00    -0.067 SA
BRANCH  13  17
ATOM     17  C   UNL d   1      54.490  33.065  54.825  0.00  0.00     0.299 C 
ATOM     18  O   UNL d   1      55.187  33.459  54.639  0.00  0.00    -0.264 OA
ATOM     19  N   UNL d   1      54.215  33.053  55.606  0.00  0.00    -0.102 N 
ENDBRANCH  13  17
ENDBRANCH   1  12
TORSDOF 4
ENDMDL
MODEL 3
REMARK VINA RESULT:      -7.8      2.177      3.993
REMARK  4 active torsions:
REMARK  status: ('A' for Active; 'I' for Inactive)
REMARK    1  A    between atoms: N_3  and  C_1 
REMARK    2  A    between atoms: C_4  and  C_2 
REMARK       I    between atoms: C_6  and  N_3 
REMARK    3  A    between atoms: C_11  and  C_6 
REMARK    4  A    between atoms: C_13  and  C_11 
ROOT
ATOM      1  N   UNL d   1      53.987  31.707  53.658  0.00  0.00    -0.201 NA
ATOM      2  C   UNL d   1      53.927  32.502  53.842  0.00  0.00     0.280 C 
ATOM      3  O   UNL d   1      54.592  32.905  54.138  0.00  0.00    -0.265 OA
ENDROOT
BRANCH   2   4
ATOM      4  C   UNL d   1      53.225  32.911  53.742  0.00  0.00     0.062 C 
BRANCH   4   5
ATOM      5  C   UNL d   1      53.164  33.702  53.958  0.00  0.00     0.005 A 
ATOM      6  C   UNL d   1      53.230  33.924  54.754  0.00  0.00     0.003 A 
ATOM      7  C   UNL d   1      53.168  34.720  54.964  0.00  0.00     0.030 A 
ATOM      8  C   UNL d   1      53.041  35.296  54.388  0.00  0.00     0.140 A 
ATOM      9  C   UNL d   1      52.977  35.075  53.604  0.00  0.00     0.030 A 
ATOM     10  F   UNL d   1      52.982  36.081  54.610  0.00  0.00    -0.204 F 
ATOM     11  C   UNL d   1      53.036  34.284  53.376  0.00  0.00     0.003 A 
ENDBRANCH   4   5
ENDBRANCH   2   4
BRANCH   1  12
ATOM     12  C   UNL d   1      53.326  31.312  53.365  0.00  0.00     0.119 A 
ATOM     13  C   UNL d   1      53.178  30.509  53.446  0.00  0.00     0.084 A 
ATOM     14  C   UNL d   1      52.459  30.346  53.074  0.00  0.00     0.014 A 
ATOM     15  C   UNL d   1      52.165  31.059  52.761  0.00  0.00     0.037 A 
ATOM     16  S   UNL d   1      52.709  31.646  52.948  0.00  0.00    -0.067 SA
BRANCH  13  17
ATOM     17  C   UNL d   1      53.656  29.956  53.829  0.00  0.00     0.299 C 
ATOM     18  O   UNL d   1      54.391  29.756  53.521  0.00  0.00    -0.264 OA
ATOM     19  N   UNL d   1      53.389  29.602  54.530  0.00  0.00    -0.102 N 
ENDBRANCH  13  17
ENDBRANCH   1  12
TORSDOF 4
ENDMDL
