MODEL 1
REMARK VINA RESULT:      -2.7      0.000      0.000
REMARK  3 active torsions:
REMARK  status: ('A' for Active; 'I' for Inactive)
REMARK    1  A    between atoms: S_6  and  C_1 
REMARK    2  A    between atoms: C_9  and  S_6 
REMARK    3  A    between atoms: C_7  and  C_9 
ROOT
ATOM      1  C   UNL d   1      33.021  20.786 -21.737  0.00  0.00     0.137 A 
ATOM      2  N   UNL d   1      33.173  21.449 -22.197  0.00  0.00    -0.232 NA
ATOM      3  S   UNL d   1      32.624  21.022 -21.063  0.00  0.00    -0.060 SA
ATOM      4  C   UNL d   1      32.871  22.098 -21.814  0.00  0.00     0.088 A 
ATOM      5  C   UNL d   1      32.528  21.831 -21.104  0.00  0.00     0.049 A 
ATOM      6  C   UNL d   1      32.857  22.891 -22.001  0.00  0.00     0.020 A 
ATOM      7  C   UNL d   1      32.178  22.363 -20.599  0.00  0.00     0.008 A 
ATOM      8  C   UNL d   1      32.157  23.174 -20.779  0.00  0.00     0.001 A 
ATOM      9  C   UNL d   1      32.492  23.434 -21.472  0.00  0.00     0.002 A 
ENDROOT
BRANCH   1  10
ATOM     10  S   UNL d   1      33.241  20.026 -21.939  0.00  0.00    -0.077 SA
BRANCH  10  11
ATOM     11  C   UNL d   1      32.824  19.647 -22.550  0.00  0.00     0.161 C 
BRANCH  11  12
ATOM     12  C   UNL d   1      33.096  18.915 -22.838  0.00  0.00     0.197 C 
ATOM     13  O   UNL d   1      33.241  18.808 -23.654  0.00  0.00    -0.647 OA
ATOM     14  O   UNL d   1      33.221  18.299 -22.322  0.00  0.00    -0.647 OA
ENDBRANCH  11  12
ENDBRANCH  10  11
ENDBRANCH   1  10
TORSDOF 3
ENDMDL
MODEL 2
REMARK VINA RESULT:      -2.6      2.000      3.904
REMARK  3 active torsions:
REMARK  status: ('A' for Active; 'I' for Inactive)
REMARK    1  A    between atoms: S_6  and  C_1 
REMARK    2  A    between atoms: C_9  and  S_6 
REMARK    3  A    between atoms: C_7  and  C_9 
ROOT
ATOM      1  C   UNL d   1      33.205  19.972 -22.277  0.00  0.00     0.137 A 
ATOM      2  N   UNL d   1      33.198  19.185 -22.042  0.00  0.00    -0.232 NA
ATOM      3  S   UNL d   1      33.223  20.000 -23.093  0.00  0.00    -0.060 SA
ATOM      4  C   UNL d   1      33.210  18.721 -22.709  0.00  0.00     0.088 A 
ATOM      5  C   UNL d   1      33.226  19.231 -23.366  0.00  0.00     0.049 A 
ATOM      6  C   UNL d   1      33.210  17.914 -22.819  0.00  0.00     0.020 A 
ATOM      7  C   UNL d   1      33.241  18.922 -24.118  0.00  0.00     0.008 A 
ATOM      8  C   UNL d   1      33.241  18.101 -24.242  0.00  0.00     0.001 A 
ATOM      9  C   UNL d   1      33.226  17.603 -23.600  0.00  0.00     0.002 A 
ENDROOT
BRANCH   1  10
ATOM     10  S   UNL d   1      33.196  20.605 -21.762  0.00  0.00    -0.077 SA
BRANCH  10  11
ATOM     11  C   UNL d   1      32.527  20.708 -21.279  0.00  0.00     0.161 C 
BRANCH  11  12
ATOM     12  C   UNL d   1      32.457  21.398 -20.819  0.00  0.00     0.197 C 
ATOM     13  O   UNL d   1      31.771  21.873 -20.870  0.00  0.00    -0.647 OA
ATOM     14  O   UNL d   1      33.059  21.612 -20.316  0.00  0.00    -0.647 OA
ENDBRANCH  11  12
ENDBRANCH  10  11
ENDBRANCH   1  10
TORSDOF 3
ENDMDL
MODEL 3
REMARK VINA RESULT:      -2.5      4.868      5.636
REMARK  3 active torsions:
REMARK  status: ('A' for Active; 'I' for Inactive)
REMARK    1  A    between atoms: S_6  and  C_1 
REMARK    2  A    between atoms: C_9  and  S_6 
REMARK    3  A    between atoms: C_7  and  C_9 
ROOT
ATOM      1  C   UNL d   1      30.673  16.593 -24.048  0.00  0.00     0.137 A 
ATOM      2  N   UNL d   1      30.923  17.350 -24.242  0.00  0.00    -0.232 NA
ATOM      3  S   UNL d   1      31.285  16.206 -23.670  0.00  0.00    -0.060 SA
ATOM      4  C   UNL d   1      31.689  17.438 -23.987  0.00  0.00     0.088 A 
ATOM      5  C   UNL d   1      31.915  16.722 -23.629  0.00  0.00     0.049 A 
ATOM      6  C   UNL d   1      32.214  18.059 -24.026  0.00  0.00     0.020 A 
ATOM      7  C   UNL d   1      32.663  16.643 -23.318  0.00  0.00     0.008 A 
ATOM      8  C   UNL d   1      33.207  17.269 -23.352  0.00  0.00     0.001 A 
ATOM      9  C   UNL d   1      32.985  17.969 -23.702  0.00  0.00     0.002 A 
ENDROOT
BRANCH   1  10
ATOM     10  S   UNL d   1      29.930  16.297 -24.214  0.00  0.00    -0.077 SA
BRANCH  10  11
ATOM     11  C   UNL d   1      29.393  16.210 -23.585  0.00  0.00     0.161 C 
BRANCH  11  12
ATOM     12  C   UNL d   1      28.590  16.069 -23.750  0.00  0.00     0.197 C 
ATOM     13  O   UNL d   1      27.996  16.541 -23.398  0.00  0.00    -0.647 OA
ATOM     14  O   UNL d   1      28.379  15.469 -24.257  0.00  0.00    -0.647 OA
ENDBRANCH  11  12
ENDBRANCH  10  11
ENDBRANCH   1  10
TORSDOF 3
ENDMDL
MODEL 4
REMARK VINA RESULT:      -2.5      4.482      5.923
REMARK  3 active torsions:
REMARK  status: ('A' for Active; 'I' for Inactive)
REMARK    1  A    between atoms: S_6  and  C_1 
REMARK    2  A    between atoms: C_9  and  S_6 
REMARK    3  A    between atoms: C_7  and  C_9 
ROOT
ATOM      1  C   UNL d   1      30.888  16.839 -24.216  0.00  0.00     0.137 A 
ATOM      2  N   UNL d   1      30.139  17.130 -24.382  0.00  0.00    -0.232 NA
ATOM      3  S   UNL d   1      30.810  16.163 -23.763  0.00  0.00    -0.060 SA
ATOM      4  C   UNL d   1      29.593  16.638 -24.036  0.00  0.00     0.088 A 
ATOM      5  C   UNL d   1      30.013  16.033 -23.648  0.00  0.00     0.049 A 
ATOM      6  C   UNL d   1      28.778  16.649 -24.013  0.00  0.00     0.020 A 
ATOM      7  C   UNL d   1      29.609  15.453 -23.248  0.00  0.00     0.008 A 
ATOM      8  C   UNL d   1      28.779  15.453 -23.218  0.00  0.00     0.001 A 
ATOM      9  C   UNL d   1      28.368  16.044 -23.596  0.00  0.00     0.002 A 
ENDROOT
BRANCH   1  10
ATOM     10  S   UNL d   1      31.582  17.184 -24.470  0.00  0.00    -0.077 SA
BRANCH  10  11
ATOM     11  C   UNL d   1      32.006  17.655 -23.932  0.00  0.00     0.161 C 
BRANCH  11  12
ATOM     12  C   UNL d   1      32.671  18.080 -24.195  0.00  0.00     0.197 C 
ATOM     13  O   UNL d   1      33.237  17.716 -24.692  0.00  0.00    -0.647 OA
ATOM     14  O   UNL d   1      32.773  18.854 -23.969  0.00  0.00    -0.647 OA
ENDBRANCH  11  12
ENDBRANCH  10  11
ENDBRANCH   1  10
TORSDOF 3
ENDMDL
MODEL 5
REMARK VINA RESULT:      -2.5      4.874      5.601
REMARK  3 active torsions:
REMARK  status: ('A' for Active; 'I' for Inactive)
REMARK    1  A    between atoms: S_6  and  C_1 
REMARK    2  A    between atoms: C_9  and  S_6 
REMARK    3  A    between atoms: C_7  and  C_9 
ROOT
ATOM      1  C   UNL d   1      30.626  16.676 -24.171  0.00  0.00     0.137 A 
ATOM      2  N   UNL d   1      31.197  16.626 -23.583  0.00  0.00    -0.232 NA
ATOM      3  S   UNL d   1      30.850  17.256 -24.702  0.00  0.00    -0.060 SA
ATOM      4  C   UNL d   1      31.777  17.171 -23.745  0.00  0.00     0.088 A 
ATOM      5  C   UNL d   1      31.560  17.565 -24.445  0.00  0.00     0.049 A 
ATOM      6  C   UNL d   1      32.469  17.368 -23.363  0.00  0.00     0.020 A 
ATOM      7  C   UNL d   1      32.040  18.148 -24.747  0.00  0.00     0.008 A 
ATOM      8  C   UNL d   1      32.747  18.358 -24.366  0.00  0.00     0.001 A 
ATOM      9  C   UNL d   1      32.960  17.973 -23.683  0.00  0.00     0.002 A 
ENDROOT
BRANCH   1  10
ATOM     10  S   UNL d   1      29.954  16.215 -24.200  0.00  0.00    -0.077 SA
BRANCH  10  11
ATOM     11  C   UNL d   1      29.222  16.579 -24.049  0.00  0.00     0.161 C 
BRANCH  11  12
ATOM     12  C   UNL d   1      28.541  16.109 -23.962  0.00  0.00     0.197 C 
ATOM     13  O   UNL d   1      28.412  15.453 -24.465  0.00  0.00    -0.647 OA
ATOM     14  O   UNL d   1      27.997  16.287 -23.385  0.00  0.00    -0.647 OA
ENDBRANCH  11  12
ENDBRANCH  10  11
ENDBRANCH   1  10
TORSDOF 3
ENDMDL
MODEL 6
REMARK VINA RESULT:      -2.4      2.239      3.578
REMARK  3 active torsions:
REMARK  status: ('A' for Active; 'I' for Inactive)
REMARK    1  A    between atoms: S_6  and  C_1 
REMARK    2  A    between atoms: C_9  and  S_6 
REMARK    3  A    between atoms: C_7  and  C_9 
ROOT
ATOM      1  C   UNL d   1      33.048  21.413 -21.642  0.00  0.00     0.137 A 
ATOM      2  N   UNL d   1      33.043  21.255 -22.447  0.00  0.00    -0.232 NA
ATOM      3  S   UNL d   1      33.113  20.706 -21.237  0.00  0.00    -0.060 SA
ATOM      4  C   UNL d   1      33.106  20.452 -22.548  0.00  0.00     0.088 A 
ATOM      5  C   UNL d   1      33.149  20.108 -21.791  0.00  0.00     0.049 A 
ATOM      6  C   UNL d   1      33.129  19.980 -23.212  0.00  0.00     0.020 A 
ATOM      7  C   UNL d   1      33.216  19.301 -21.716  0.00  0.00     0.008 A 
ATOM      8  C   UNL d   1      33.241  18.811 -22.385  0.00  0.00     0.001 A 
ATOM      9  C   UNL d   1      33.198  19.146 -23.125  0.00  0.00     0.002 A 
ENDROOT
BRANCH   1  10
ATOM     10  S   UNL d   1      32.995  22.162 -21.320  0.00  0.00    -0.077 SA
BRANCH  10  11
ATOM     11  C   UNL d   1      32.255  22.416 -21.038  0.00  0.00     0.161 C 
BRANCH  11  12
ATOM     12  C   UNL d   1      32.119  23.228 -20.919  0.00  0.00     0.197 C 
ATOM     13  O   UNL d   1      32.613  23.670 -20.410  0.00  0.00    -0.647 OA
ATOM     14  O   UNL d   1      31.501  23.595 -21.300  0.00  0.00    -0.647 OA
ENDBRANCH  11  12
ENDBRANCH  10  11
ENDBRANCH   1  10
TORSDOF 3
ENDMDL
MODEL 7
REMARK VINA RESULT:      -2.4      3.612      4.507
REMARK  3 active torsions:
REMARK  status: ('A' for Active; 'I' for Inactive)
REMARK    1  A    between atoms: S_6  and  C_1 
REMARK    2  A    between atoms: C_9  and  S_6 
REMARK    3  A    between atoms: C_7  and  C_9 
ROOT
ATOM      1  C   UNL d   1      33.019  23.188 -19.078  0.00  0.00     0.137 A 
ATOM      2  N   UNL d   1      33.224  22.515 -19.499  0.00  0.00    -0.232 NA
ATOM      3  S   UNL d   1      32.631  23.702 -19.582  0.00  0.00    -0.060 SA
ATOM      4  C   UNL d   1      32.966  22.605 -20.264  0.00  0.00     0.088 A 
ATOM      5  C   UNL d   1      32.596  23.348 -20.316  0.00  0.00     0.049 A 
ATOM      6  C   UNL d   1      33.013  22.125 -20.921  0.00  0.00     0.020 A 
ATOM      7  C   UNL d   1      32.280  23.595 -21.023  0.00  0.00     0.008 A 
ATOM      8  C   UNL d   1      32.321  23.115 -21.699  0.00  0.00     0.001 A 
ATOM      9  C   UNL d   1      32.683  22.388 -21.649  0.00  0.00     0.002 A 
ENDROOT
BRANCH   1  10
ATOM     10  S   UNL d   1      33.184  23.305 -18.287  0.00  0.00    -0.077 SA
BRANCH  10  11
ATOM     11  C   UNL d   1      32.545  23.388 -17.761  0.00  0.00     0.161 C 
BRANCH  11  12
ATOM     12  C   UNL d   1      32.662  23.244 -16.950  0.00  0.00     0.197 C 
ATOM     13  O   UNL d   1      33.209  23.702 -16.513  0.00  0.00    -0.647 OA
ATOM     14  O   UNL d   1      32.243  22.655 -16.578  0.00  0.00    -0.647 OA
ENDBRANCH  11  12
ENDBRANCH  10  11
ENDBRANCH   1  10
TORSDOF 3
ENDMDL
MODEL 8
REMARK VINA RESULT:      -2.3      1.269      1.836
REMARK  3 active torsions:
REMARK  status: ('A' for Active; 'I' for Inactive)
REMARK    1  A    between atoms: S_6  and  C_1 
REMARK    2  A    between atoms: C_9  and  S_6 
REMARK    3  A    between atoms: C_7  and  C_9 
ROOT
ATOM      1  C   UNL d   1      33.190  19.563 -22.549  0.00  0.00     0.137 A 
ATOM      2  N   UNL d   1      33.077  19.593 -21.737  0.00  0.00    -0.232 NA
ATOM      3  S   UNL d   1      33.241  20.327 -22.833  0.00  0.00    -0.060 SA
ATOM      4  C   UNL d   1      33.057  20.373 -21.512  0.00  0.00     0.088 A 
ATOM      5  C   UNL d   1      33.160  20.832 -22.198  0.00  0.00     0.049 A 
ATOM      6  C   UNL d   1      32.962  20.735 -20.788  0.00  0.00     0.020 A 
ATOM      7  C   UNL d   1      33.165  21.644 -22.145  0.00  0.00     0.008 A 
ATOM      8  C   UNL d   1      33.069  22.024 -21.413  0.00  0.00     0.001 A 
ATOM      9  C   UNL d   1      32.969  21.575 -20.742  0.00  0.00     0.002 A 
ENDROOT
BRANCH   1  10
ATOM     10  S   UNL d   1      33.239  18.872 -22.981  0.00  0.00    -0.077 SA
BRANCH  10  11
ATOM     11  C   UNL d   1      32.539  18.445 -23.119  0.00  0.00     0.161 C 
BRANCH  11  12
ATOM     12  C   UNL d   1      32.568  17.747 -23.571  0.00  0.00     0.197 C 
ATOM     13  O   UNL d   1      32.997  17.082 -23.299  0.00  0.00    -0.647 OA
ATOM     14  O   UNL d   1      32.177  17.710 -24.283  0.00  0.00    -0.647 OA
ENDBRANCH  11  12
ENDBRANCH  10  11
ENDBRANCH   1  10
TORSDOF 3
ENDMDL
MODEL 9
REMARK VINA RESULT:      -1.6      5.999      6.321
REMARK  3 active torsions:
REMARK  status: ('A' for Active; 'I' for Inactive)
REMARK    1  A    between atoms: S_6  and  C_1 
REMARK    2  A    between atoms: C_9  and  S_6 
REMARK    3  A    between atoms: C_7  and  C_9 
ROOT
ATOM      1  C   UNL d   1      30.558  15.881 -23.947  0.00  0.00     0.137 A 
ATOM      2  N   UNL d   1      30.159  16.446 -24.388  0.00  0.00    -0.232 NA
ATOM      3  S   UNL d   1      30.027  15.528 -23.435  0.00  0.00    -0.060 SA
ATOM      4  C   UNL d   1      29.381  16.448 -24.155  0.00  0.00     0.088 A 
ATOM      5  C   UNL d   1      29.299  15.874 -23.558  0.00  0.00     0.049 A 
ATOM      6  C   UNL d   1      28.736  16.884 -24.393  0.00  0.00     0.020 A 
ATOM      7  C   UNL d   1      28.573  15.749 -23.213  0.00  0.00     0.008 A 
ATOM      8  C   UNL d   1      27.908  16.187 -23.448  0.00  0.00     0.001 A 
ATOM      9  C   UNL d   1      27.988  16.748 -24.031  0.00  0.00     0.002 A 
ENDROOT
BRANCH   1  10
ATOM     10  S   UNL d   1      31.354  15.715 -24.023  0.00  0.00    -0.077 SA
BRANCH  10  11
ATOM     11  C   UNL d   1      31.805  15.634 -23.330  0.00  0.00     0.161 C 
BRANCH  11  12
ATOM     12  C   UNL d   1      32.636  15.621 -23.382  0.00  0.00     0.197 C 
ATOM     13  O   UNL d   1      33.014  15.598 -24.127  0.00  0.00    -0.647 OA
ATOM     14  O   UNL d   1      33.084  15.630 -22.703  0.00  0.00    -0.647 OA
ENDBRANCH  11  12
ENDBRANCH  10  11
ENDBRANCH   1  10
TORSDOF 3
ENDMDL
