MODEL 1
REMARK VINA RESULT:      -5.8      0.000      0.000
REMARK  5 active torsions:
REMARK  status: ('A' for Active; 'I' for Inactive)
REMARK    1  A    between atoms: C_2  and  C_1 
REMARK       I    between atoms: N_3  and  C_1 
REMARK       I    between atoms: N_4  and  C_2 
REMARK    2  A    between atoms: C_5  and  N_3 
REMARK    3  A    between atoms: C_10  and  N_4 
REMARK    4  A    between atoms: C_12  and  C_10 
REMARK    5  A    between atoms: O_13  and  C_11 
ROOT
ATOM      1  C   UNL d   1     -41.596-122.570 -52.021  0.00  0.00     0.337 C 
ATOM      2  N   UNL d   1     -41.424-122.079 -52.651  0.00  0.00    -0.204 NA
ATOM      3  O   UNL d   1     -41.877-123.333 -52.162  0.00  0.00    -0.260 OA
ENDROOT
BRANCH   1   4
ATOM      4  C   UNL d   1     -41.490-122.307 -51.247  0.00  0.00     0.337 C 
ATOM      5  N   UNL d   1     -41.748-122.765 -50.617  0.00  0.00    -0.202 NA
ATOM      6  O   UNL d   1     -41.123-121.581 -51.106  0.00  0.00    -0.260 OA
BRANCH   5   7
ATOM      7  C   UNL d   1     -41.642-122.503 -49.847  0.00  0.00     0.102 C 
BRANCH   7   8
ATOM      8  C   UNL d   1     -41.943-122.942 -49.216  0.00  0.00     0.022 A 
ATOM      9  C   UNL d   1     -41.429-123.308 -48.697  0.00  0.00     0.022 A 
ATOM     10  C   UNL d   1     -41.730-123.748 -48.066  0.00  0.00     0.099 A 
ATOM     11  N   UNL d   1     -42.545-123.815 -47.963  0.00  0.00    -0.242 NA
ATOM     12  C   UNL d   1     -43.060-123.443 -48.489  0.00  0.00     0.099 A 
ATOM     13  C   UNL d   1     -42.758-123.010 -49.112  0.00  0.00     0.022 A 
ENDBRANCH   7   8
ENDBRANCH   5   7
ENDBRANCH   1   4
BRANCH   2  14
ATOM     14  C   UNL d   1     -41.530-122.342 -53.426  0.00  0.00     0.087 A 
ATOM     15  C   UNL d   1     -42.044-121.941 -53.932  0.00  0.00     0.043 A 
ATOM     16  C   UNL d   1     -42.150-122.204 -54.706  0.00  0.00     0.096 A 
ATOM     17  C   UNL d   1     -41.743-122.870 -54.975  0.00  0.00     0.024 A 
ATOM     18  C   UNL d   1     -41.229-123.272 -54.469  0.00  0.00     0.004 A 
ATOM     19  C   UNL d   1     -41.123-123.008 -53.695  0.00  0.00     0.019 A 
BRANCH  16  20
ATOM     20  O   UNL d   1     -42.665-121.807 -55.224  0.00  0.00    -0.328 OA
ATOM     21  C   UNL d   1     -42.531-121.845 -56.045  0.00  0.00     0.181 C 
ENDBRANCH  16  20
ENDBRANCH   2  14
TORSDOF 5
ENDMDL
MODEL 2
REMARK VINA RESULT:      -5.4      1.281      5.295
REMARK  5 active torsions:
REMARK  status: ('A' for Active; 'I' for Inactive)
REMARK    1  A    between atoms: C_2  and  C_1 
REMARK       I    between atoms: N_3  and  C_1 
REMARK       I    between atoms: N_4  and  C_2 
REMARK    2  A    between atoms: C_5  and  N_3 
REMARK    3  A    between atoms: C_10  and  N_4 
REMARK    4  A    between atoms: C_12  and  C_10 
REMARK    5  A    between atoms: O_13  and  C_11 
ROOT
ATOM      1  C   UNL d   1     -41.821-122.919 -51.532  0.00  0.00     0.337 C 
ATOM      2  N   UNL d   1     -41.988-123.492 -50.972  0.00  0.00    -0.204 NA
ATOM      3  O   UNL d   1     -41.896-122.121 -51.336  0.00  0.00    -0.260 OA
ENDROOT
BRANCH   1   4
ATOM      4  C   UNL d   1     -41.577-123.137 -52.289  0.00  0.00     0.337 C 
ATOM      5  N   UNL d   1     -41.786-122.677 -52.937  0.00  0.00    -0.202 NA
ATOM      6  O   UNL d   1     -41.123-123.817 -52.397  0.00  0.00    -0.260 OA
BRANCH   5   7
ATOM      7  C   UNL d   1     -41.544-122.894 -53.690  0.00  0.00     0.102 C 
BRANCH   7   8
ATOM      8  C   UNL d   1     -41.782-122.449 -54.344  0.00  0.00     0.022 A 
ATOM      9  C   UNL d   1     -41.322-122.446 -55.019  0.00  0.00     0.022 A 
ATOM     10  C   UNL d   1     -41.560-122.001 -55.673  0.00  0.00     0.099 A 
ATOM     11  N   UNL d   1     -42.258-121.564 -55.642  0.00  0.00    -0.242 NA
ATOM     12  C   UNL d   1     -42.719-121.570 -54.957  0.00  0.00     0.099 A 
ATOM     13  C   UNL d   1     -42.479-122.011 -54.312  0.00  0.00     0.022 A 
ENDBRANCH   7   8
ENDBRANCH   5   7
ENDBRANCH   1   4
BRANCH   2  14
ATOM     14  C   UNL d   1     -42.231-123.274 -50.215  0.00  0.00     0.087 A 
ATOM     15  C   UNL d   1     -41.729-123.392 -49.570  0.00  0.00     0.043 A 
ATOM     16  C   UNL d   1     -41.972-123.175 -48.813  0.00  0.00     0.096 A 
ATOM     17  C   UNL d   1     -42.718-122.839 -48.699  0.00  0.00     0.024 A 
ATOM     18  C   UNL d   1     -43.220-122.721 -49.344  0.00  0.00     0.004 A 
ATOM     19  C   UNL d   1     -42.977-122.938 -50.101  0.00  0.00     0.019 A 
BRANCH  16  20
ATOM     20  O   UNL d   1     -41.475-123.290 -48.157  0.00  0.00    -0.328 OA
ATOM     21  C   UNL d   1     -41.747-123.088 -47.395  0.00  0.00     0.181 C 
ENDBRANCH  16  20
ENDBRANCH   2  14
TORSDOF 5
ENDMDL
MODEL 3
REMARK VINA RESULT:      -3.4      1.354      4.977
REMARK  5 active torsions:
REMARK  status: ('A' for Active; 'I' for Inactive)
REMARK    1  A    between atoms: C_2  and  C_1 
REMARK       I    between atoms: N_3  and  C_1 
REMARK       I    between atoms: N_4  and  C_2 
REMARK    2  A    between atoms: C_5  and  N_3 
REMARK    3  A    between atoms: C_10  and  N_4 
REMARK    4  A    between atoms: C_12  and  C_10 
REMARK    5  A    between atoms: O_13  and  C_11 
ROOT
ATOM      1  C   UNL d   1     -41.482-121.860 -51.380  0.00  0.00     0.337 C 
ATOM      2  N   UNL d   1     -41.574-122.665 -51.267  0.00  0.00    -0.204 NA
ATOM      3  O   UNL d   1     -41.485-121.352 -50.729  0.00  0.00    -0.260 OA
ENDROOT
BRANCH   1   4
ATOM      4  C   UNL d   1     -41.388-121.555 -52.140  0.00  0.00     0.337 C 
ATOM      5  N   UNL d   1     -41.554-122.021 -52.795  0.00  0.00    -0.202 NA
ATOM      6  O   UNL d   1     -41.125-120.780 -52.244  0.00  0.00    -0.260 OA
BRANCH   5   7
ATOM      7  C   UNL d   1     -41.460-121.718 -53.551  0.00  0.00     0.102 C 
BRANCH   7   8
ATOM      8  C   UNL d   1     -41.751-122.134 -54.202  0.00  0.00     0.022 A 
ATOM      9  C   UNL d   1     -42.121-121.730 -54.808  0.00  0.00     0.022 A 
ATOM     10  C   UNL d   1     -42.412-122.146 -55.459  0.00  0.00     0.099 A 
ATOM     11  N   UNL d   1     -42.328-122.965 -55.496  0.00  0.00    -0.242 NA
ATOM     12  C   UNL d   1     -41.954-123.369 -54.881  0.00  0.00     0.099 A 
ATOM     13  C   UNL d   1     -41.667-122.953 -54.239  0.00  0.00     0.022 A 
ENDBRANCH   7   8
ENDBRANCH   5   7
ENDBRANCH   1   4
BRANCH   2  14
ATOM     14  C   UNL d   1     -41.669-122.970 -50.506  0.00  0.00     0.087 A 
ATOM     15  C   UNL d   1     -42.310-122.732 -50.043  0.00  0.00     0.043 A 
ATOM     16  C   UNL d   1     -42.404-123.037 -49.283  0.00  0.00     0.096 A 
ATOM     17  C   UNL d   1     -41.858-123.580 -48.985  0.00  0.00     0.024 A 
ATOM     18  C   UNL d   1     -41.217-123.817 -49.449  0.00  0.00     0.004 A 
ATOM     19  C   UNL d   1     -41.123-123.513 -50.208  0.00  0.00     0.019 A 
BRANCH  16  20
ATOM     20  O   UNL d   1     -43.046-122.805 -48.808  0.00  0.00    -0.328 OA
ATOM     21  C   UNL d   1     -43.185-123.197 -48.086  0.00  0.00     0.181 C 
ENDBRANCH  16  20
ENDBRANCH   2  14
TORSDOF 5
ENDMDL
