MODEL 1
REMARK VINA RESULT:      -7.8      0.000      0.000
REMARK  6 active torsions:
REMARK  status: ('A' for Active; 'I' for Inactive)
REMARK    1  A    between atoms: N_2  and  C_1 
REMARK    2  A    between atoms: C_8  and  C_5 
REMARK    3  A    between atoms: C_6  and  C_9 
REMARK       I    between atoms: N_13  and  C_6 
REMARK    4  A    between atoms: C_9  and  C_8 
REMARK    5  A    between atoms: C_14  and  C_11 
REMARK    6  A    between atoms: C_16  and  N_13 
ROOT
ATOM      1  C   UNL d   1      51.639  33.721  53.079  0.00  0.00     0.279 C 
ATOM      2  N   UNL d   1      51.856  33.118  53.588  0.00  0.00    -0.208 NA
ATOM      3  O   UNL d   1      52.231  34.086  52.621  0.00  0.00    -0.265 OA
ENDROOT
BRANCH   1   4
ATOM      4  C   UNL d   1      50.866  33.956  53.021  0.00  0.00     0.063 C 
BRANCH   4   5
ATOM      5  C   UNL d   1      50.595  34.314  52.319  0.00  0.00     0.011 C 
BRANCH   5   6
ATOM      6  C   UNL d   1      49.817  34.642  52.283  0.00  0.00     0.031 A 
ATOM      7  S   UNL d   1      49.390  35.118  52.806  0.00  0.00    -0.064 SA
ATOM      8  C   UNL d   1      48.669  35.257  52.468  0.00  0.00     0.156 A 
ATOM      9  C   UNL d   1      48.633  34.877  51.741  0.00  0.00     0.031 A 
ATOM     10  C   UNL d   1      49.360  34.491  51.629  0.00  0.00     0.009 A 
BRANCH   8  11
ATOM     11  N   UNL d   1      48.040  35.716  52.796  0.00  0.00    -0.107 N 
ATOM     12  O   UNL d   1      47.430  35.992  52.296  0.00  0.00    -0.531 OA
ATOM     13  O   UNL d   1      48.020  35.896  53.601  0.00  0.00    -0.531 OA
ENDBRANCH   8  11
ENDBRANCH   5   6
ENDBRANCH   4   5
ENDBRANCH   1   4
BRANCH   2  14
ATOM     14  C   UNL d   1      52.636  32.870  53.656  0.00  0.00     0.085 A 
ATOM     15  C   UNL d   1      53.098  33.111  54.271  0.00  0.00     0.022 A 
ATOM     16  C   UNL d   1      53.890  32.857  54.337  0.00  0.00     0.041 A 
ATOM     17  C   UNL d   1      54.205  32.352  53.768  0.00  0.00     0.003 A 
ATOM     18  C   UNL d   1      53.720  32.110  53.138  0.00  0.00     0.002 A 
ATOM     19  C   UNL d   1      52.946  32.364  53.081  0.00  0.00     0.019 A 
BRANCH  16  20
ATOM     20  C   UNL d   1      54.363  33.103  54.966  0.00  0.00     0.196 C 
ATOM     21  O   UNL d   1      54.291  32.743  55.689  0.00  0.00    -0.287 OA
ATOM     22  C   UNL d   1      54.921  33.724  54.874  0.00  0.00     0.045 C 
ENDBRANCH  16  20
ENDBRANCH   2  14
TORSDOF 6
ENDMDL
MODEL 2
REMARK VINA RESULT:      -7.6      1.327      1.782
REMARK  6 active torsions:
REMARK  status: ('A' for Active; 'I' for Inactive)
REMARK    1  A    between atoms: N_2  and  C_1 
REMARK    2  A    between atoms: C_8  and  C_5 
REMARK    3  A    between atoms: C_6  and  C_9 
REMARK       I    between atoms: N_13  and  C_6 
REMARK    4  A    between atoms: C_9  and  C_8 
REMARK    5  A    between atoms: C_14  and  C_11 
REMARK    6  A    between atoms: C_16  and  N_13 
ROOT
ATOM      1  C   UNL d   1      50.836  34.107  52.519  0.00  0.00     0.279 C 
ATOM      2  N   UNL d   1      51.007  33.658  53.181  0.00  0.00    -0.208 NA
ATOM      3  O   UNL d   1      51.457  34.302  52.000  0.00  0.00    -0.265 OA
ENDROOT
BRANCH   1   4
ATOM      4  C   UNL d   1      50.079  34.356  52.372  0.00  0.00     0.063 C 
BRANCH   4   5
ATOM      5  C   UNL d   1      49.828  34.468  51.586  0.00  0.00     0.011 C 
BRANCH   5   6
ATOM      6  C   UNL d   1      49.036  34.719  51.425  0.00  0.00     0.031 A 
ATOM      7  S   UNL d   1      48.490  35.151  51.868  0.00  0.00    -0.064 SA
ATOM      8  C   UNL d   1      47.820  35.219  51.421  0.00  0.00     0.156 A 
ATOM      9  C   UNL d   1      47.934  34.837  50.702  0.00  0.00     0.031 A 
ATOM     10  C   UNL d   1      48.704  34.524  50.710  0.00  0.00     0.009 A 
BRANCH   8  11
ATOM     11  N   UNL d   1      47.106  35.615  51.640  0.00  0.00    -0.107 N 
ATOM     12  O   UNL d   1      47.148  36.381  51.970  0.00  0.00    -0.531 OA
ATOM     13  O   UNL d   1      46.371  35.256  51.531  0.00  0.00    -0.531 OA
ENDBRANCH   8  11
ENDBRANCH   5   6
ENDBRANCH   4   5
ENDBRANCH   1   4
BRANCH   2  14
ATOM     14  C   UNL d   1      51.770  33.399  53.343  0.00  0.00     0.085 A 
ATOM     15  C   UNL d   1      52.009  32.656  53.141  0.00  0.00     0.022 A 
ATOM     16  C   UNL d   1      52.784  32.397  53.306  0.00  0.00     0.041 A 
ATOM     17  C   UNL d   1      53.313  32.904  53.681  0.00  0.00     0.003 A 
ATOM     18  C   UNL d   1      53.056  33.668  53.885  0.00  0.00     0.002 A 
ATOM     19  C   UNL d   1      52.295  33.914  53.719  0.00  0.00     0.019 A 
BRANCH  16  20
ATOM     20  C   UNL d   1      53.030  31.637  53.100  0.00  0.00     0.196 C 
ATOM     21  O   UNL d   1      52.762  31.301  52.412  0.00  0.00    -0.287 OA
ATOM     22  C   UNL d   1      53.554  31.200  53.589  0.00  0.00     0.045 C 
ENDBRANCH  16  20
ENDBRANCH   2  14
TORSDOF 6
ENDMDL
MODEL 3
REMARK VINA RESULT:      -7.4      2.737      5.536
REMARK  6 active torsions:
REMARK  status: ('A' for Active; 'I' for Inactive)
REMARK    1  A    between atoms: N_2  and  C_1 
REMARK    2  A    between atoms: C_8  and  C_5 
REMARK    3  A    between atoms: C_6  and  C_9 
REMARK       I    between atoms: N_13  and  C_6 
REMARK    4  A    between atoms: C_9  and  C_8 
REMARK    5  A    between atoms: C_14  and  C_11 
REMARK    6  A    between atoms: C_16  and  N_13 
ROOT
ATOM      1  C   UNL d   1      53.404  32.395  53.523  0.00  0.00     0.279 C 
ATOM      2  N   UNL d   1      52.811  32.790  53.925  0.00  0.00    -0.208 NA
ATOM      3  O   UNL d   1      53.734  32.755  52.848  0.00  0.00    -0.265 OA
ENDROOT
BRANCH   1   4
ATOM      4  C   UNL d   1      53.664  31.671  53.776  0.00  0.00     0.063 C 
BRANCH   4   5
ATOM      5  C   UNL d   1      53.596  31.010  53.273  0.00  0.00     0.011 C 
BRANCH   5   6
ATOM      6  C   UNL d   1      53.409  30.250  53.594  0.00  0.00     0.031 A 
ATOM      7  S   UNL d   1      53.669  29.852  54.268  0.00  0.00    -0.064 SA
ATOM      8  C   UNL d   1      53.292  29.137  54.285  0.00  0.00     0.156 A 
ATOM      9  C   UNL d   1      52.797  29.078  53.633  0.00  0.00     0.031 A 
ATOM     10  C   UNL d   1      52.874  29.783  53.200  0.00  0.00     0.009 A 
BRANCH   8  11
ATOM     11  N   UNL d   1      53.379  28.536  54.872  0.00  0.00    -0.107 N 
ATOM     12  O   UNL d   1      53.694  27.794  54.654  0.00  0.00    -0.531 OA
ATOM     13  O   UNL d   1      53.158  28.671  55.656  0.00  0.00    -0.531 OA
ENDBRANCH   8  11
ENDBRANCH   5   6
ENDBRANCH   4   5
ENDBRANCH   1   4
BRANCH   2  14
ATOM     14  C   UNL d   1      52.538  33.525  53.679  0.00  0.00     0.085 A 
ATOM     15  C   UNL d   1      51.892  33.591  53.201  0.00  0.00     0.022 A 
ATOM     16  C   UNL d   1      51.617  34.339  52.954  0.00  0.00     0.041 A 
ATOM     17  C   UNL d   1      52.010  35.020  53.200  0.00  0.00     0.003 A 
ATOM     18  C   UNL d   1      52.674  34.940  53.693  0.00  0.00     0.002 A 
ATOM     19  C   UNL d   1      52.936  34.203  53.930  0.00  0.00     0.019 A 
BRANCH  16  20
ATOM     20  C   UNL d   1      50.957  34.407  52.465  0.00  0.00     0.196 C 
ATOM     21  O   UNL d   1      51.046  34.365  51.660  0.00  0.00    -0.287 OA
ATOM     22  C   UNL d   1      50.188  34.521  52.784  0.00  0.00     0.045 C 
ENDBRANCH  16  20
ENDBRANCH   2  14
TORSDOF 6
ENDMDL
MODEL 4
REMARK VINA RESULT:      -7.4      1.428      5.439
REMARK  6 active torsions:
REMARK  status: ('A' for Active; 'I' for Inactive)
REMARK    1  A    between atoms: N_2  and  C_1 
REMARK    2  A    between atoms: C_8  and  C_5 
REMARK    3  A    between atoms: C_6  and  C_9 
REMARK       I    between atoms: N_13  and  C_6 
REMARK    4  A    between atoms: C_9  and  C_8 
REMARK    5  A    between atoms: C_14  and  C_11 
REMARK    6  A    between atoms: C_16  and  N_13 
ROOT
ATOM      1  C   UNL d   1      51.145  34.151  52.785  0.00  0.00     0.279 C 
ATOM      2  N   UNL d   1      50.365  34.091  53.026  0.00  0.00    -0.208 NA
ATOM      3  O   UNL d   1      51.319  34.623  52.121  0.00  0.00    -0.265 OA
ENDROOT
BRANCH   1   4
ATOM      4  C   UNL d   1      51.733  33.761  53.183  0.00  0.00     0.063 C 
BRANCH   4   5
ATOM      5  C   UNL d   1      52.527  33.981  53.062  0.00  0.00     0.011 C 
BRANCH   5   6
ATOM      6  C   UNL d   1      53.140  33.628  53.526  0.00  0.00     0.031 A 
ATOM      7  S   UNL d   1      53.438  33.800  54.277  0.00  0.00    -0.064 SA
ATOM      8  C   UNL d   1      54.027  33.268  54.428  0.00  0.00     0.156 A 
ATOM      9  C   UNL d   1      54.107  32.764  53.785  0.00  0.00     0.031 A 
ATOM     10  C   UNL d   1      53.545  32.995  53.219  0.00  0.00     0.009 A 
BRANCH   8  11
ATOM     11  N   UNL d   1      54.497  33.223  55.129  0.00  0.00    -0.107 N 
ATOM     12  O   UNL d   1      54.307  32.659  55.714  0.00  0.00    -0.531 OA
ATOM     13  O   UNL d   1      55.140  33.729  55.242  0.00  0.00    -0.531 OA
ENDBRANCH   8  11
ENDBRANCH   5   6
ENDBRANCH   4   5
ENDBRANCH   1   4
BRANCH   2  14
ATOM     14  C   UNL d   1      49.759  34.480  52.632  0.00  0.00     0.085 A 
ATOM     15  C   UNL d   1      49.315  35.042  53.003  0.00  0.00     0.022 A 
ATOM     16  C   UNL d   1      48.700  35.436  52.600  0.00  0.00     0.041 A 
ATOM     17  C   UNL d   1      48.543  35.250  51.813  0.00  0.00     0.003 A 
ATOM     18  C   UNL d   1      49.007  34.670  51.441  0.00  0.00     0.002 A 
ATOM     19  C   UNL d   1      49.607  34.289  51.843  0.00  0.00     0.019 A 
BRANCH  16  20
ATOM     20  C   UNL d   1      48.245  36.010  52.978  0.00  0.00     0.196 C 
ATOM     21  O   UNL d   1      48.569  36.448  53.579  0.00  0.00    -0.287 OA
ATOM     22  C   UNL d   1      47.449  36.154  52.753  0.00  0.00     0.045 C 
ENDBRANCH  16  20
ENDBRANCH   2  14
TORSDOF 6
ENDMDL
MODEL 5
REMARK VINA RESULT:      -7.2      3.103      3.828
REMARK  6 active torsions:
REMARK  status: ('A' for Active; 'I' for Inactive)
REMARK    1  A    between atoms: N_2  and  C_1 
REMARK    2  A    between atoms: C_8  and  C_5 
REMARK    3  A    between atoms: C_6  and  C_9 
REMARK       I    between atoms: N_13  and  C_6 
REMARK    4  A    between atoms: C_9  and  C_8 
REMARK    5  A    between atoms: C_14  and  C_11 
REMARK    6  A    between atoms: C_16  and  N_13 
ROOT
ATOM      1  C   UNL d   1      52.759  31.928  53.103  0.00  0.00     0.279 C 
ATOM      2  N   UNL d   1      53.346  31.397  53.311  0.00  0.00    -0.208 NA
ATOM      3  O   UNL d   1      51.999  31.631  52.930  0.00  0.00    -0.265 OA
ENDROOT
BRANCH   1   4
ATOM      4  C   UNL d   1      52.912  32.722  53.065  0.00  0.00     0.063 C 
BRANCH   4   5
ATOM      5  C   UNL d   1      52.317  33.267  53.271  0.00  0.00     0.011 C 
BRANCH   5   6
ATOM      6  C   UNL d   1      52.524  34.041  53.541  0.00  0.00     0.031 A 
ATOM      7  S   UNL d   1      52.718  34.337  54.287  0.00  0.00    -0.064 SA
ATOM      8  C   UNL d   1      52.866  35.126  54.201  0.00  0.00     0.156 A 
ATOM      9  C   UNL d   1      52.769  35.335  53.412  0.00  0.00     0.031 A 
ATOM     10  C   UNL d   1      52.554  34.646  53.000  0.00  0.00     0.009 A 
BRANCH   8  11
ATOM     11  N   UNL d   1      53.086  35.667  54.812  0.00  0.00    -0.107 N 
ATOM     12  O   UNL d   1      53.174  35.387  55.594  0.00  0.00    -0.531 OA
ATOM     13  O   UNL d   1      53.214  36.466  54.646  0.00  0.00    -0.531 OA
ENDBRANCH   8  11
ENDBRANCH   5   6
ENDBRANCH   4   5
ENDBRANCH   1   4
BRANCH   2  14
ATOM     14  C   UNL d   1      53.204  30.589  53.353  0.00  0.00     0.085 A 
ATOM     15  C   UNL d   1      53.334  30.178  54.035  0.00  0.00     0.022 A 
ATOM     16  C   UNL d   1      53.189  29.358  54.074  0.00  0.00     0.041 A 
ATOM     17  C   UNL d   1      52.909  28.961  53.408  0.00  0.00     0.003 A 
ATOM     18  C   UNL d   1      52.779  29.394  52.712  0.00  0.00     0.002 A 
ATOM     19  C   UNL d   1      52.924  30.198  52.682  0.00  0.00     0.019 A 
BRANCH  16  20
ATOM     20  C   UNL d   1      53.321  28.937  54.770  0.00  0.00     0.196 C 
ATOM     21  O   UNL d   1      53.622  28.184  54.734  0.00  0.00    -0.287 OA
ATOM     22  C   UNL d   1      53.150  29.272  55.521  0.00  0.00     0.045 C 
ENDBRANCH  16  20
ENDBRANCH   2  14
TORSDOF 6
ENDMDL
