MODEL 1
REMARK VINA RESULT:      -3.3      0.000      0.000
REMARK  4 active torsions:
REMARK  status: ('A' for Active; 'I' for Inactive)
REMARK    1  A    between atoms: C_5  and  C_3 
REMARK    2  A    between atoms: S_6  and  C_4 
REMARK    3  A    between atoms: C_10  and  S_6 
REMARK    4  A    between atoms: C_12  and  C_10 
ROOT
ATOM      1  N   UNL d   1      32.734  20.918 -20.852  0.00  0.00    -0.148 NA
ATOM      2  N   UNL d   1      32.860  20.236 -21.298  0.00  0.00    -0.141 NA
ATOM      3  C   UNL d   1      32.859  21.664 -21.190  0.00  0.00     0.104 A 
ATOM      4  C   UNL d   1      33.110  20.286 -22.076  0.00  0.00     0.132 A 
ATOM      5  C   UNL d   1      33.111  21.719 -21.976  0.00  0.00     0.023 A 
ATOM      6  C   UNL d   1      33.237  21.036 -22.418  0.00  0.00     0.029 A 
ENDROOT
BRANCH   4   7
ATOM      7  S   UNL d   1      33.237  19.604 -22.522  0.00  0.00    -0.066 SA
BRANCH   7   8
ATOM      8  C   UNL d   1      32.606  19.123 -22.733  0.00  0.00     0.037 C 
BRANCH   8   9
ATOM      9  C   UNL d   1      32.738  18.467 -23.219  0.00  0.00     0.006 A 
ATOM     10  C   UNL d   1      32.693  18.548 -24.036  0.00  0.00     0.001 A 
ATOM     11  C   UNL d   1      32.823  17.903 -24.523  0.00  0.00     0.000 A 
ATOM     12  C   UNL d   1      33.000  17.165 -24.183  0.00  0.00     0.000 A 
ATOM     13  C   UNL d   1      33.042  17.093 -23.370  0.00  0.00     0.000 A 
ATOM     14  C   UNL d   1      32.910  17.750 -22.888  0.00  0.00     0.001 A 
ENDBRANCH   8   9
ENDBRANCH   7   8
ENDBRANCH   4   7
BRANCH   3  15
ATOM     15  C   UNL d   1      32.732  22.347 -20.744  0.00  0.00     0.039 A 
ATOM     16  C   UNL d   1      32.159  22.877 -20.973  0.00  0.00     0.101 A 
ATOM     17  N   UNL d   1      32.029  23.555 -20.534  0.00  0.00    -0.242 NA
ATOM     18  C   UNL d   1      32.486  23.701 -19.853  0.00  0.00     0.099 A 
ATOM     19  C   UNL d   1      33.062  23.165 -19.628  0.00  0.00     0.021 A 
ATOM     20  C   UNL d   1      33.196  22.479 -20.068  0.00  0.00     0.005 A 
ENDBRANCH   3  15
TORSDOF 4
ENDMDL
MODEL 2
REMARK VINA RESULT:      -3.0      1.251      5.114
REMARK  4 active torsions:
REMARK  status: ('A' for Active; 'I' for Inactive)
REMARK    1  A    between atoms: C_5  and  C_3 
REMARK    2  A    between atoms: S_6  and  C_4 
REMARK    3  A    between atoms: C_10  and  S_6 
REMARK    4  A    between atoms: C_12  and  C_10 
ROOT
ATOM      1  N   UNL d   1      33.053  19.781 -23.291  0.00  0.00    -0.148 NA
ATOM      2  N   UNL d   1      33.075  20.448 -22.807  0.00  0.00    -0.141 NA
ATOM      3  C   UNL d   1      33.125  19.024 -22.961  0.00  0.00     0.104 A 
ATOM      4  C   UNL d   1      33.167  20.371 -21.996  0.00  0.00     0.132 A 
ATOM      5  C   UNL d   1      33.218  18.944 -22.143  0.00  0.00     0.023 A 
ATOM      6  C   UNL d   1      33.239  19.611 -21.662  0.00  0.00     0.029 A 
ENDROOT
BRANCH   4   7
ATOM      7  S   UNL d   1      33.189  21.038 -21.511  0.00  0.00    -0.066 SA
BRANCH   7   8
ATOM      8  C   UNL d   1      32.495  21.350 -21.203  0.00  0.00     0.037 C 
BRANCH   8   9
ATOM      9  C   UNL d   1      32.513  22.080 -20.815  0.00  0.00     0.006 A 
ATOM     10  C   UNL d   1      32.110  22.723 -21.135  0.00  0.00     0.001 A 
ATOM     11  C   UNL d   1      32.123  23.448 -20.757  0.00  0.00     0.000 A 
ATOM     12  C   UNL d   1      32.548  23.529 -20.046  0.00  0.00     0.000 A 
ATOM     13  C   UNL d   1      32.945  22.886 -19.735  0.00  0.00     0.000 A 
ATOM     14  C   UNL d   1      32.925  22.158 -20.125  0.00  0.00     0.001 A 
ENDBRANCH   8   9
ENDBRANCH   7   8
ENDBRANCH   4   7
BRANCH   3  15
ATOM     15  C   UNL d   1      33.103  18.357 -23.446  0.00  0.00     0.039 A 
ATOM     16  C   UNL d   1      33.241  18.434 -24.244  0.00  0.00     0.101 A 
ATOM     17  N   UNL d   1      33.220  17.775 -24.729  0.00  0.00    -0.242 NA
ATOM     18  C   UNL d   1      33.059  17.027 -24.403  0.00  0.00     0.099 A 
ATOM     19  C   UNL d   1      32.921  16.954 -23.600  0.00  0.00     0.021 A 
ATOM     20  C   UNL d   1      32.941  17.616 -23.107  0.00  0.00     0.005 A 
ENDBRANCH   3  15
TORSDOF 4
ENDMDL
MODEL 3
REMARK VINA RESULT:      -2.9      0.837      1.046
REMARK  4 active torsions:
REMARK  status: ('A' for Active; 'I' for Inactive)
REMARK    1  A    between atoms: C_5  and  C_3 
REMARK    2  A    between atoms: S_6  and  C_4 
REMARK    3  A    between atoms: C_10  and  S_6 
REMARK    4  A    between atoms: C_12  and  C_10 
ROOT
ATOM      1  N   UNL d   1      32.889  21.156 -22.477  0.00  0.00    -0.148 NA
ATOM      2  N   UNL d   1      32.992  20.424 -22.843  0.00  0.00    -0.141 NA
ATOM      3  C   UNL d   1      32.933  21.217 -21.651  0.00  0.00     0.104 A 
ATOM      4  C   UNL d   1      33.138  19.752 -22.399  0.00  0.00     0.132 A 
ATOM      5  C   UNL d   1      33.080  20.540 -21.199  0.00  0.00     0.023 A 
ATOM      6  C   UNL d   1      33.182  19.811 -21.568  0.00  0.00     0.029 A 
ENDROOT
BRANCH   4   7
ATOM      7  S   UNL d   1      33.241  19.020 -22.765  0.00  0.00    -0.066 SA
BRANCH   7   8
ATOM      8  C   UNL d   1      32.647  18.703 -23.234  0.00  0.00     0.037 C 
BRANCH   8   9
ATOM      9  C   UNL d   1      32.755  17.963 -23.586  0.00  0.00     0.006 A 
ATOM     10  C   UNL d   1      33.130  17.909 -24.317  0.00  0.00     0.001 A 
ATOM     11  C   UNL d   1      33.241  17.180 -24.672  0.00  0.00     0.000 A 
ATOM     12  C   UNL d   1      32.972  16.494 -24.285  0.00  0.00     0.000 A 
ATOM     13  C   UNL d   1      32.601  16.557 -23.559  0.00  0.00     0.000 A 
ATOM     14  C   UNL d   1      32.494  17.298 -23.211  0.00  0.00     0.001 A 
ENDBRANCH   8   9
ENDBRANCH   7   8
ENDBRANCH   4   7
BRANCH   3  15
ATOM     15  C   UNL d   1      32.830  21.949 -21.284  0.00  0.00     0.039 A 
ATOM     16  C   UNL d   1      32.339  22.011 -20.638  0.00  0.00     0.101 A 
ATOM     17  N   UNL d   1      32.234  22.735 -20.272  0.00  0.00    -0.242 NA
ATOM     18  C   UNL d   1      32.631  23.406 -20.561  0.00  0.00     0.099 A 
ATOM     19  C   UNL d   1      33.123  23.339 -21.211  0.00  0.00     0.021 A 
ATOM     20  C   UNL d   1      33.232  22.611 -21.584  0.00  0.00     0.005 A 
ENDBRANCH   3  15
TORSDOF 4
ENDMDL
MODEL 4
REMARK VINA RESULT:      -0.6      2.755      5.473
REMARK  4 active torsions:
REMARK  status: ('A' for Active; 'I' for Inactive)
REMARK    1  A    between atoms: C_5  and  C_3 
REMARK    2  A    between atoms: S_6  and  C_4 
REMARK    3  A    between atoms: C_10  and  S_6 
REMARK    4  A    between atoms: C_12  and  C_10 
ROOT
ATOM      1  N   UNL d   1      33.026  22.106 -21.183  0.00  0.00    -0.148 NA
ATOM      2  N   UNL d   1      33.036  22.279 -20.377  0.00  0.00    -0.141 NA
ATOM      3  C   UNL d   1      33.124  22.712 -21.740  0.00  0.00     0.104 A 
ATOM      4  C   UNL d   1      33.142  23.048 -20.117  0.00  0.00     0.132 A 
ATOM      5  C   UNL d   1      33.231  23.490 -21.480  0.00  0.00     0.023 A 
ATOM      6  C   UNL d   1      33.241  23.660 -20.675  0.00  0.00     0.029 A 
ENDROOT
BRANCH   4   7
ATOM      7  S   UNL d   1      33.153  23.222 -19.310  0.00  0.00    -0.066 SA
BRANCH   7   8
ATOM      8  C   UNL d   1      32.536  22.980 -18.826  0.00  0.00     0.037 C 
BRANCH   8   9
ATOM      9  C   UNL d   1      32.579  23.118 -18.012  0.00  0.00     0.006 A 
ATOM     10  C   UNL d   1      31.994  23.562 -17.641  0.00  0.00     0.001 A 
ATOM     11  C   UNL d   1      32.029  23.702 -16.836  0.00  0.00     0.000 A 
ATOM     12  C   UNL d   1      32.663  23.391 -16.396  0.00  0.00     0.000 A 
ATOM     13  C   UNL d   1      33.241  22.951 -16.772  0.00  0.00     0.000 A 
ATOM     14  C   UNL d   1      33.195  22.815 -17.585  0.00  0.00     0.001 A 
ENDBRANCH   8   9
ENDBRANCH   7   8
ENDBRANCH   4   7
BRANCH   3  15
ATOM     15  C   UNL d   1      33.114  22.539 -22.546  0.00  0.00     0.039 A 
ATOM     16  C   UNL d   1      33.230  21.773 -22.795  0.00  0.00     0.101 A 
ATOM     17  N   UNL d   1      33.221  21.596 -23.594  0.00  0.00    -0.242 NA
ATOM     18  C   UNL d   1      33.092  22.202 -24.150  0.00  0.00     0.099 A 
ATOM     19  C   UNL d   1      32.975  22.970 -23.895  0.00  0.00     0.021 A 
ATOM     20  C   UNL d   1      32.984  23.153 -23.090  0.00  0.00     0.005 A 
ENDBRANCH   3  15
TORSDOF 4
ENDMDL
