MODEL 1
REMARK VINA RESULT:      -9.7      0.000      0.000
REMARK  2 active torsions:
REMARK  status: ('A' for Active; 'I' for Inactive)
REMARK    1  A    between atoms: C_10  and  N_1 
REMARK    2  A    between atoms: N_11  and  C_10 
ROOT
ATOM      1  N   UNL d   1     -48.252  14.652  22.667  0.00  0.00    -0.175 N 
ATOM      2  N   UNL d   1     -48.528  13.608  23.002  0.00  0.00    -0.161 NA
ATOM      3  C   UNL d   1     -47.848  13.149  23.060  0.00  0.00     0.102 A 
ATOM      4  C   UNL d   1     -47.113  13.472  22.885  0.00  0.00     0.024 A 
ATOM      5  C   UNL d   1     -47.458  14.809  22.533  0.00  0.00     0.282 A 
ATOM      6  C   UNL d   1     -46.890  14.222  22.642  0.00  0.00     0.059 A 
ATOM      7  C   UNL d   1     -46.539  12.879  22.995  0.00  0.00     0.002 A 
ATOM      8  C   UNL d   1     -47.731  12.364  23.277  0.00  0.00     0.019 A 
ATOM      9  C   UNL d   1     -46.926  12.196  23.236  0.00  0.00     0.002 A 
ATOM     10  O   UNL d   1     -47.234  15.576  22.285  0.00  0.00    -0.265 OA
ATOM     11  C   UNL d   1     -46.089  14.391  22.504  0.00  0.00     0.005 A 
ATOM     12  C   UNL d   1     -45.751  13.043  22.859  0.00  0.00     0.000 A 
ATOM     13  C   UNL d   1     -48.259  11.772  23.508  0.00  0.00     0.002 A 
ATOM     14  C   UNL d   1     -46.655  11.442  23.426  0.00  0.00     0.000 A 
ATOM     15  C   UNL d   1     -45.516  13.797  22.613  0.00  0.00     0.000 A 
ATOM     16  C   UNL d   1     -47.982  11.013  23.698  0.00  0.00     0.000 A 
ATOM     17  C   UNL d   1     -47.183  10.850  23.657  0.00  0.00     0.000 A 
ENDROOT
BRANCH   1  18
ATOM     18  C   UNL d   1     -48.672  15.350  22.510  0.00  0.00     0.188 C 
BRANCH  18  19
ATOM     19  N   UNL d   1     -49.471  15.406  22.724  0.00  0.00    -0.283 N 
ATOM     20  C   UNL d   1     -49.678  15.739  23.446  0.00  0.00     0.108 A 
ATOM     21  C   UNL d   1     -50.475  15.795  23.662  0.00  0.00     0.142 A 
ATOM     22  O   UNL d   1     -51.060  15.514  23.145  0.00  0.00    -0.300 OA
ATOM     23  C   UNL d   1     -50.849  15.180  22.421  0.00  0.00     0.142 A 
ATOM     24  C   UNL d   1     -50.041  15.124  22.207  0.00  0.00     0.108 A 
ENDBRANCH  18  19
ENDBRANCH   1  18
TORSDOF 2
ENDMDL
MODEL 2
REMARK VINA RESULT:      -9.6      1.130      2.486
REMARK  2 active torsions:
REMARK  status: ('A' for Active; 'I' for Inactive)
REMARK    1  A    between atoms: C_10  and  N_1 
REMARK    2  A    between atoms: N_11  and  C_10 
ROOT
ATOM      1  N   UNL d   1     -49.408  13.079  23.263  0.00  0.00    -0.175 N 
ATOM      2  N   UNL d   1     -48.490  13.671  22.974  0.00  0.00    -0.161 NA
ATOM      3  C   UNL d   1     -47.825  13.190  23.027  0.00  0.00     0.102 A 
ATOM      4  C   UNL d   1     -47.897  12.406  23.263  0.00  0.00     0.024 A 
ATOM      5  C   UNL d   1     -49.301  12.294  23.476  0.00  0.00     0.282 A 
ATOM      6  C   UNL d   1     -48.549  11.958  23.476  0.00  0.00     0.059 A 
ATOM      7  C   UNL d   1     -47.136  12.067  23.262  0.00  0.00     0.002 A 
ATOM      8  C   UNL d   1     -47.027  13.336  22.882  0.00  0.00     0.019 A 
ATOM      9  C   UNL d   1     -46.603  12.646  23.026  0.00  0.00     0.002 A 
ATOM     10  O   UNL d   1     -49.969  11.839  23.693  0.00  0.00    -0.265 OA
ATOM     11  C   UNL d   1     -48.451  11.163  23.693  0.00  0.00     0.005 A 
ATOM     12  C   UNL d   1     -47.038  11.285  23.475  0.00  0.00     0.000 A 
ATOM     13  C   UNL d   1     -46.628  14.015  22.635  0.00  0.00     0.002 A 
ATOM     14  C   UNL d   1     -45.786  12.638  22.923  0.00  0.00     0.000 A 
ATOM     15  C   UNL d   1     -47.690  10.824  23.692  0.00  0.00     0.000 A 
ATOM     16  C   UNL d   1     -45.804  14.003  22.532  0.00  0.00     0.000 A 
ATOM     17  C   UNL d   1     -45.386  13.317  22.676  0.00  0.00     0.000 A 
ENDROOT
BRANCH   1  18
ATOM     18  C   UNL d   1     -50.220  13.242  23.321  0.00  0.00     0.188 C 
BRANCH  18  19
ATOM     19  N   UNL d   1     -50.503  13.994  23.117  0.00  0.00    -0.283 N 
ATOM     20  C   UNL d   1     -50.755  14.141  22.350  0.00  0.00     0.108 A 
ATOM     21  C   UNL d   1     -51.038  14.892  22.144  0.00  0.00     0.142 A 
ATOM     22  O   UNL d   1     -51.064  15.490  22.718  0.00  0.00    -0.300 OA
ATOM     23  C   UNL d   1     -50.811  15.340  23.488  0.00  0.00     0.142 A 
ATOM     24  C   UNL d   1     -50.525  14.579  23.691  0.00  0.00     0.108 A 
ENDBRANCH  18  19
ENDBRANCH   1  18
TORSDOF 2
ENDMDL
MODEL 3
REMARK VINA RESULT:      -7.9      1.742      4.379
REMARK  2 active torsions:
REMARK  status: ('A' for Active; 'I' for Inactive)
REMARK    1  A    between atoms: C_10  and  N_1 
REMARK    2  A    between atoms: N_11  and  C_10 
ROOT
ATOM      1  N   UNL d   1     -48.186  12.675  22.961  0.00  0.00    -0.175 N 
ATOM      2  N   UNL d   1     -48.448  13.773  23.023  0.00  0.00    -0.161 NA
ATOM      3  C   UNL d   1     -49.241  13.855  23.226  0.00  0.00     0.102 A 
ATOM      4  C   UNL d   1     -49.709  13.191  23.349  0.00  0.00     0.024 A 
ATOM      5  C   UNL d   1     -48.783  12.133  23.117  0.00  0.00     0.282 A 
ATOM      6  C   UNL d   1     -49.542  12.390  23.310  0.00  0.00     0.059 A 
ATOM      7  C   UNL d   1     -50.476  13.451  23.544  0.00  0.00     0.002 A 
ATOM      8  C   UNL d   1     -49.712  14.520  23.343  0.00  0.00     0.019 A 
ATOM      9  C   UNL d   1     -50.473  14.272  23.540  0.00  0.00     0.002 A 
ATOM     10  O   UNL d   1     -48.608  11.317  23.076  0.00  0.00    -0.265 OA
ATOM     11  C   UNL d   1     -50.138  11.835  23.466  0.00  0.00     0.005 A 
ATOM     12  C   UNL d   1     -51.064  12.906  23.698  0.00  0.00     0.000 A 
ATOM     13  C   UNL d   1     -49.547  15.327  23.297  0.00  0.00     0.002 A 
ATOM     14  C   UNL d   1     -51.060  14.830  23.687  0.00  0.00     0.000 A 
ATOM     15  C   UNL d   1     -50.905  12.095  23.661  0.00  0.00     0.000 A 
ATOM     16  C   UNL d   1     -50.142  15.886  23.447  0.00  0.00     0.000 A 
ATOM     17  C   UNL d   1     -50.895  15.637  23.641  0.00  0.00     0.000 A 
ENDROOT
BRANCH   1  18
ATOM     18  C   UNL d   1     -47.499  12.243  22.788  0.00  0.00     0.188 C 
BRANCH  18  19
ATOM     19  N   UNL d   1     -46.779  12.640  22.685  0.00  0.00    -0.283 N 
ATOM     20  C   UNL d   1     -46.569  12.918  21.942  0.00  0.00     0.108 A 
ATOM     21  C   UNL d   1     -45.849  13.315  21.837  0.00  0.00     0.142 A 
ATOM     22  O   UNL d   1     -45.346  13.428  22.487  0.00  0.00    -0.300 OA
ATOM     23  C   UNL d   1     -45.560  13.148  23.232  0.00  0.00     0.142 A 
ATOM     24  C   UNL d   1     -46.289  12.747  23.334  0.00  0.00     0.108 A 
ENDBRANCH  18  19
ENDBRANCH   1  18
TORSDOF 2
ENDMDL
MODEL 4
REMARK VINA RESULT:      -7.6      1.162      1.399
REMARK  2 active torsions:
REMARK  status: ('A' for Active; 'I' for Inactive)
REMARK    1  A    between atoms: C_10  and  N_1 
REMARK    2  A    between atoms: N_11  and  C_10 
ROOT
ATOM      1  N   UNL d   1     -48.281  13.704  22.980  0.00  0.00    -0.175 N 
ATOM      2  N   UNL d   1     -48.046  12.634  23.261  0.00  0.00    -0.161 NA
ATOM      3  C   UNL d   1     -47.234  12.510  23.214  0.00  0.00     0.102 A 
ATOM      4  C   UNL d   1     -46.733  13.122  22.990  0.00  0.00     0.024 A 
ATOM      5  C   UNL d   1     -47.651  14.190  22.779  0.00  0.00     0.282 A 
ATOM      6  C   UNL d   1     -46.880  13.900  22.783  0.00  0.00     0.059 A 
ATOM      7  C   UNL d   1     -45.953  12.829  22.994  0.00  0.00     0.002 A 
ATOM      8  C   UNL d   1     -46.770  11.845  23.356  0.00  0.00     0.019 A 
ATOM      9  C   UNL d   1     -45.982  12.040  23.222  0.00  0.00     0.002 A 
ATOM     10  O   UNL d   1     -47.806  14.985  22.568  0.00  0.00    -0.265 OA
ATOM     11  C   UNL d   1     -46.250  14.400  22.578  0.00  0.00     0.005 A 
ATOM     12  C   UNL d   1     -45.332  13.318  22.793  0.00  0.00     0.000 A 
ATOM     13  C   UNL d   1     -46.965  11.078  23.594  0.00  0.00     0.002 A 
ATOM     14  C   UNL d   1     -45.396  11.471  23.324  0.00  0.00     0.000 A 
ATOM     15  C   UNL d   1     -45.470  14.107  22.583  0.00  0.00     0.000 A 
ATOM     16  C   UNL d   1     -46.371  10.508  23.696  0.00  0.00     0.000 A 
ATOM     17  C   UNL d   1     -45.590  10.704  23.562  0.00  0.00     0.000 A 
ENDROOT
BRANCH   1  18
ATOM     18  C   UNL d   1     -48.973  14.158  22.921  0.00  0.00     0.188 C 
BRANCH  18  19
ATOM     19  N   UNL d   1     -49.674  13.806  22.652  0.00  0.00    -0.283 N 
ATOM     20  C   UNL d   1     -50.200  13.481  23.192  0.00  0.00     0.108 A 
ATOM     21  C   UNL d   1     -50.900  13.128  22.926  0.00  0.00     0.142 A 
ATOM     22  O   UNL d   1     -51.064  13.108  22.112  0.00  0.00    -0.300 OA
ATOM     23  C   UNL d   1     -50.534  13.436  21.573  0.00  0.00     0.142 A 
ATOM     24  C   UNL d   1     -49.826  13.791  21.847  0.00  0.00     0.108 A 
ENDBRANCH  18  19
ENDBRANCH   1  18
TORSDOF 2
ENDMDL
MODEL 5
REMARK VINA RESULT:      -7.5      1.954      4.566
REMARK  2 active torsions:
REMARK  status: ('A' for Active; 'I' for Inactive)
REMARK    1  A    between atoms: C_10  and  N_1 
REMARK    2  A    between atoms: N_11  and  C_10 
ROOT
ATOM      1  N   UNL d   1     -48.228  12.029  23.332  0.00  0.00    -0.175 N 
ATOM      2  N   UNL d   1     -48.215  13.131  23.084  0.00  0.00    -0.161 NA
ATOM      3  C   UNL d   1     -48.980  13.431  23.126  0.00  0.00     0.102 A 
ATOM      4  C   UNL d   1     -49.608  12.940  23.325  0.00  0.00     0.024 A 
ATOM      5  C   UNL d   1     -48.953  11.688  23.512  0.00  0.00     0.282 A 
ATOM      6  C   UNL d   1     -49.640  12.142  23.508  0.00  0.00     0.059 A 
ATOM      7  C   UNL d   1     -50.303  13.399  23.321  0.00  0.00     0.002 A 
ATOM      8  C   UNL d   1     -49.282  14.186  23.000  0.00  0.00     0.019 A 
ATOM      9  C   UNL d   1     -50.097  14.168  23.119  0.00  0.00     0.002 A 
ATOM     10  O   UNL d   1     -48.982  10.874  23.698  0.00  0.00    -0.265 OA
ATOM     11  C   UNL d   1     -50.369  11.789  23.690  0.00  0.00     0.005 A 
ATOM     12  C   UNL d   1     -51.021  13.053  23.500  0.00  0.00     0.000 A 
ATOM     13  C   UNL d   1     -48.919  14.897  22.789  0.00  0.00     0.002 A 
ATOM     14  C   UNL d   1     -50.540  14.855  23.029  0.00  0.00     0.000 A 
ATOM     15  C   UNL d   1     -51.064  12.248  23.686  0.00  0.00     0.000 A 
ATOM     16  C   UNL d   1     -49.369  15.588  22.698  0.00  0.00     0.000 A 
ATOM     17  C   UNL d   1     -50.176  15.566  22.818  0.00  0.00     0.000 A 
ENDROOT
BRANCH   1  18
ATOM     18  C   UNL d   1     -47.655  11.431  23.385  0.00  0.00     0.188 C 
BRANCH  18  19
ATOM     19  N   UNL d   1     -46.850  11.629  23.358  0.00  0.00    -0.283 N 
ATOM     20  C   UNL d   1     -46.291  11.108  23.660  0.00  0.00     0.108 A 
ATOM     21  C   UNL d   1     -45.487  11.304  23.634  0.00  0.00     0.142 A 
ATOM     22  O   UNL d   1     -45.253  12.028  23.303  0.00  0.00    -0.300 OA
ATOM     23  C   UNL d   1     -45.817  12.549  23.001  0.00  0.00     0.142 A 
ATOM     24  C   UNL d   1     -46.629  12.346  23.029  0.00  0.00     0.108 A 
ENDBRANCH  18  19
ENDBRANCH   1  18
TORSDOF 2
ENDMDL
MODEL 6
REMARK VINA RESULT:      -7.1      8.487      9.853
REMARK  2 active torsions:
REMARK  status: ('A' for Active; 'I' for Inactive)
REMARK    1  A    between atoms: C_10  and  N_1 
REMARK    2  A    between atoms: N_11  and  C_10 
ROOT
ATOM      1  N   UNL d   1     -39.930  14.762  19.909  0.00  0.00    -0.175 N 
ATOM      2  N   UNL d   1     -39.185  14.054  19.439  0.00  0.00    -0.161 NA
ATOM      3  C   UNL d   1     -39.253  14.087  18.620  0.00  0.00     0.102 A 
ATOM      4  C   UNL d   1     -39.804  14.586  18.269  0.00  0.00     0.024 A 
ATOM      5  C   UNL d   1     -40.414  15.193  19.405  0.00  0.00     0.282 A 
ATOM      6  C   UNL d   1     -40.352  15.105  18.588  0.00  0.00     0.059 A 
ATOM      7  C   UNL d   1     -39.741  14.497  17.443  0.00  0.00     0.002 A 
ATOM      8  C   UNL d   1     -38.852  13.693  18.019  0.00  0.00     0.019 A 
ATOM      9  C   UNL d   1     -39.151  13.944  17.294  0.00  0.00     0.002 A 
ATOM     10  O   UNL d   1     -40.972  15.722  19.734  0.00  0.00    -0.265 OA
ATOM     11  C   UNL d   1     -40.845  15.544  18.086  0.00  0.00     0.005 A 
ATOM     12  C   UNL d   1     -40.226  14.928  16.948  0.00  0.00     0.000 A 
ATOM     13  C   UNL d   1     -38.247  13.132  18.036  0.00  0.00     0.002 A 
ATOM     14  C   UNL d   1     -38.845  13.635  16.595  0.00  0.00     0.000 A 
ATOM     15  C   UNL d   1     -40.782  15.456  17.260  0.00  0.00     0.000 A 
ATOM     16  C   UNL d   1     -37.941  12.823  17.329  0.00  0.00     0.000 A 
ATOM     17  C   UNL d   1     -38.240  13.074  16.612  0.00  0.00     0.000 A 
ENDROOT
BRANCH   1  18
ATOM     18  C   UNL d   1     -40.131  14.976  20.686  0.00  0.00     0.188 C 
BRANCH  18  19
ATOM     19  N   UNL d   1     -39.658  14.721  21.317  0.00  0.00    -0.283 N 
ATOM     20  C   UNL d   1     -39.782  13.978  21.645  0.00  0.00     0.108 A 
ATOM     21  C   UNL d   1     -39.311  13.720  22.275  0.00  0.00     0.142 A 
ATOM     22  O   UNL d   1     -38.716  14.218  22.571  0.00  0.00    -0.300 OA
ATOM     23  C   UNL d   1     -38.594  14.963  22.239  0.00  0.00     0.142 A 
ATOM     24  C   UNL d   1     -39.073  15.219  21.601  0.00  0.00     0.108 A 
ENDBRANCH  18  19
ENDBRANCH   1  18
TORSDOF 2
ENDMDL
