MODEL 1
REMARK VINA RESULT:       5.7      0.000      0.000
REMARK  1 active torsions:
REMARK  status: ('A' for Active; 'I' for Inactive)
REMARK    1  A    between atoms: C_6  and  C_3 
ROOT
ATOM      1  O   UNL d   1     -51.569  26.052  33.330  0.00  0.00    -0.260 OA
ATOM      2  N   UNL d   1     -50.446  25.292  33.324  0.00  0.00    -0.120 NA
ATOM      3  C   UNL d   1     -51.296  25.293  33.332  0.00  0.00     0.205 A 
ATOM      4  N   UNL d   1     -50.212  26.048  33.319  0.00  0.00    -0.109 NA
ATOM      5  C   UNL d   1     -50.843  26.550  33.321  0.00  0.00     0.262 A 
ATOM      6  S   UNL d   1     -50.766  27.354  33.316  0.00  0.00    -0.029 SA
ENDROOT
BRANCH   3   7
ATOM      7  C   UNL d   1     -51.773  24.644  33.339  0.00  0.00     0.043 A 
ATOM      8  C   UNL d   1     -51.425  23.882  33.331  0.00  0.00     0.004 A 
ATOM      9  C   UNL d   1     -51.905  23.212  33.339  0.00  0.00     0.000 A 
ATOM     10  C   UNL d   1     -52.739  23.300  33.354  0.00  0.00     0.000 A 
ATOM     11  C   UNL d   1     -53.060  24.060  33.361  0.00  0.00     0.000 A 
ATOM     12  C   UNL d   1     -52.600  24.738  33.354  0.00  0.00     0.004 A 
ENDBRANCH   3   7
TORSDOF 1
ENDMDL
MODEL 2
REMARK VINA RESULT:       6.1      1.872      2.849
REMARK  1 active torsions:
REMARK  status: ('A' for Active; 'I' for Inactive)
REMARK    1  A    between atoms: C_6  and  C_3 
ROOT
ATOM      1  O   UNL d   1     -52.216  24.536  33.312  0.00  0.00    -0.260 OA
ATOM      2  N   UNL d   1     -51.267  23.567  33.346  0.00  0.00    -0.120 NA
ATOM      3  C   UNL d   1     -51.420  24.403  33.326  0.00  0.00     0.205 A 
ATOM      4  N   UNL d   1     -51.969  23.202  33.344  0.00  0.00    -0.109 NA
ATOM      5  C   UNL d   1     -52.576  23.733  33.325  0.00  0.00     0.262 A 
ATOM      6  S   UNL d   1     -53.353  23.513  33.319  0.00  0.00    -0.029 SA
ENDROOT
BRANCH   3   7
ATOM      7  C   UNL d   1     -50.866  24.988  33.321  0.00  0.00     0.043 A 
ATOM      8  C   UNL d   1     -50.054  24.782  33.322  0.00  0.00     0.004 A 
ATOM      9  C   UNL d   1     -49.481  25.374  33.317  0.00  0.00     0.000 A 
ATOM     10  C   UNL d   1     -49.717  26.179  33.311  0.00  0.00     0.000 A 
ATOM     11  C   UNL d   1     -50.522  26.359  33.311  0.00  0.00     0.000 A 
ATOM     12  C   UNL d   1     -51.107  25.786  33.316  0.00  0.00     0.004 A 
ENDBRANCH   3   7
TORSDOF 1
ENDMDL
