MODEL 1
REMARK VINA RESULT:      78.1      0.000      0.000
REMARK  3 active torsions:
REMARK  status: ('A' for Active; 'I' for Inactive)
REMARK    1  A    between atoms: C_6  and  C_1 
REMARK    2  A    between atoms: N_7  and  C_2 
REMARK    3  A    between atoms: C_9  and  C_5 
REMARK       I    between atoms: N_8  and  C_6 
ROOT
ATOM      1  C   UNL d   1     -57.841 -99.091 -44.409  0.00  0.00     0.106 A 
ATOM      2  C   UNL d   1     -58.414 -99.007 -45.706  0.00  0.00     0.180 A 
ATOM      3  N   UNL d   1     -57.701 -99.381 -45.779  0.00  0.00    -0.222 NA
ATOM      4  S   UNL d   1     -58.515 -98.831 -44.918  0.00  0.00    -0.044 SA
ATOM      5  C   UNL d   1     -57.362 -99.436 -45.051  0.00  0.00     0.094 A 
ENDROOT
BRANCH   1   6
ATOM      6  C   UNL d   1     -57.845 -98.959 -43.592  0.00  0.00     0.272 C 
ATOM      7  N   UNL d   1     -58.561 -98.997 -43.165  0.00  0.00    -0.272 N 
ATOM      8  C   UNL d   1     -59.387 -99.118 -43.148  0.00  0.00     0.083 A 
ATOM      9  C   UNL d   1     -58.150 -98.822 -42.472  0.00  0.00     0.083 A 
ATOM     10  C   UNL d   1     -59.797 -99.063 -42.434  0.00  0.00     0.019 A 
ATOM     11  C   UNL d   1     -59.387 -98.886 -41.729  0.00  0.00     0.003 A 
ATOM     12  C   UNL d   1     -58.566 -98.767 -41.749  0.00  0.00     0.019 A 
ATOM     13  O   UNL d   1     -57.144 -98.788 -43.190  0.00  0.00    -0.266 OA
ENDBRANCH   1   6
BRANCH   5  14
ATOM     14  C   UNL d   1     -56.659 -99.748 -44.774  0.00  0.00     0.018 A 
ATOM     15  C   UNL d   1     -56.653-100.405 -44.318  0.00  0.00     0.002 A 
ATOM     16  C   UNL d   1     -55.971-100.705 -44.051  0.00  0.00     0.000 A 
ATOM     17  C   UNL d   1     -55.277-100.352 -44.235  0.00  0.00     0.000 A 
ATOM     18  C   UNL d   1     -55.264 -99.690 -44.693  0.00  0.00     0.000 A 
ATOM     19  C   UNL d   1     -55.961 -99.395 -44.959  0.00  0.00     0.002 A 
ENDBRANCH   5  14
BRANCH   2  20
ATOM     20  N   UNL d   1     -58.765 -98.943 -46.415  0.00  0.00    -0.280 N 
ATOM     21  C   UNL d   1     -58.308 -98.822 -47.097  0.00  0.00     0.109 A 
ATOM     22  C   UNL d   1     -58.670 -98.755 -47.831  0.00  0.00     0.142 A 
ATOM     23  O   UNL d   1     -59.493 -98.809 -47.892  0.00  0.00    -0.300 OA
ATOM     24  C   UNL d   1     -59.958 -98.931 -47.212  0.00  0.00     0.142 A 
ATOM     25  C   UNL d   1     -59.593 -98.998 -46.473  0.00  0.00     0.109 A 
ENDBRANCH   2  20
TORSDOF 3
ENDMDL
