MODEL 1
REMARK VINA RESULT:     -10.6      0.000      0.000
REMARK  4 active torsions:
REMARK  status: ('A' for Active; 'I' for Inactive)
REMARK    1  A    between atoms: S_3  and  N_1 
REMARK    2  A    between atoms: C_9  and  S_3 
REMARK    3  A    between atoms: C_10  and  N_5 
REMARK    4  A    between atoms: C_15  and  C_10 
ROOT
ATOM      1  N   UNL d   1      52.366  32.226  53.120  0.00  0.00    -0.195 N 
ATOM      2  C   UNL d   1      52.850  32.692  53.594  0.00  0.00     0.193 A 
ATOM      3  C   UNL d   1      52.448  33.381  53.783  0.00  0.00     0.185 A 
ATOM      4  N   UNL d   1      51.702  33.352  53.427  0.00  0.00    -0.269 N 
ATOM      5  C   UNL d   1      51.658  32.633  53.017  0.00  0.00     0.179 A 
ATOM      6  N   UNL d   1      53.612  32.578  53.880  0.00  0.00    -0.223 NA
ATOM      7  N   UNL d   1      52.800  33.959  54.257  0.00  0.00    -0.224 NA
ATOM      8  C   UNL d   1      53.967  33.144  54.349  0.00  0.00     0.101 A 
ATOM      9  C   UNL d   1      53.564  33.840  54.542  0.00  0.00     0.101 A 
ATOM     10  C   UNL d   1      53.924  34.406  55.013  0.00  0.00     0.021 A 
ATOM     11  C   UNL d   1      54.728  33.027  54.633  0.00  0.00     0.021 A 
ATOM     12  C   UNL d   1      54.689  34.279  55.293  0.00  0.00     0.002 A 
ATOM     13  C   UNL d   1      55.089  33.593  55.104  0.00  0.00     0.002 A 
ENDROOT
BRANCH   1  14
ATOM     14  S   UNL d   1      52.837  31.486  52.935  0.00  0.00     0.274 S 
ATOM     15  O   UNL d   1      53.346  31.507  52.211  0.00  0.00    -0.200 OA
ATOM     16  O   UNL d   1      53.021  32.032  52.329  0.00  0.00    -0.200 OA
BRANCH  14  17
ATOM     17  C   UNL d   1      52.907  30.753  53.306  0.00  0.00     0.104 A 
ATOM     18  C   UNL d   1      53.654  30.431  53.445  0.00  0.00     0.015 A 
ATOM     19  C   UNL d   1      53.726  29.691  53.820  0.00  0.00     0.030 A 
ATOM     20  C   UNL d   1      53.048  29.284  54.049  0.00  0.00     0.140 A 
ATOM     21  C   UNL d   1      52.292  29.611  53.907  0.00  0.00     0.030 A 
ATOM     22  F   UNL d   1      53.185  28.553  54.417  0.00  0.00    -0.204 F 
ATOM     23  C   UNL d   1      52.227  30.341  53.538  0.00  0.00     0.015 A 
ENDBRANCH  14  17
ENDBRANCH   1  14
BRANCH   4  24
ATOM     24  C   UNL d   1      51.114  33.930  53.472  0.00  0.00     0.108 C 
BRANCH  24  25
ATOM     25  C   UNL d   1      50.670  34.125  52.798  0.00  0.00     0.118 A 
ATOM     26  O   UNL d   1      50.979  34.333  52.058  0.00  0.00    -0.304 OA
ATOM     27  C   UNL d   1      50.337  34.487  51.539  0.00  0.00     0.123 A 
ATOM     28  C   UNL d   1      49.636  34.371  51.968  0.00  0.00     0.029 A 
ATOM     29  C   UNL d   1      49.846  34.149  52.744  0.00  0.00     0.028 A 
ENDBRANCH  24  25
ENDBRANCH   4  24
TORSDOF 4
ENDMDL
MODEL 2
REMARK VINA RESULT:      -9.6      1.713      4.103
REMARK  4 active torsions:
REMARK  status: ('A' for Active; 'I' for Inactive)
REMARK    1  A    between atoms: S_3  and  N_1 
REMARK    2  A    between atoms: C_9  and  S_3 
REMARK    3  A    between atoms: C_10  and  N_5 
REMARK    4  A    between atoms: C_15  and  C_10 
ROOT
ATOM      1  N   UNL d   1      53.835  32.141  53.527  0.00  0.00    -0.195 N 
ATOM      2  C   UNL d   1      53.119  32.507  53.355  0.00  0.00     0.193 A 
ATOM      3  C   UNL d   1      52.557  31.928  53.207  0.00  0.00     0.185 A 
ATOM      4  N   UNL d   1      52.919  31.189  53.286  0.00  0.00    -0.269 N 
ATOM      5  C   UNL d   1      53.712  31.328  53.484  0.00  0.00     0.179 A 
ATOM      6  N   UNL d   1      52.903  33.299  53.314  0.00  0.00    -0.223 NA
ATOM      7  N   UNL d   1      51.780  32.134  53.018  0.00  0.00    -0.224 NA
ATOM      8  C   UNL d   1      52.138  33.510  53.127  0.00  0.00     0.101 A 
ATOM      9  C   UNL d   1      51.568  32.929  52.977  0.00  0.00     0.101 A 
ATOM     10  C   UNL d   1      50.800  33.145  52.790  0.00  0.00     0.021 A 
ATOM     11  C   UNL d   1      51.926  34.302  53.087  0.00  0.00     0.021 A 
ATOM     12  C   UNL d   1      50.597  33.944  52.752  0.00  0.00     0.002 A 
ATOM     13  C   UNL d   1      51.157  34.518  52.900  0.00  0.00     0.002 A 
ENDROOT
BRANCH   1  14
ATOM     14  S   UNL d   1      54.421  32.801  53.682  0.00  0.00     0.274 S 
ATOM     15  O   UNL d   1      54.824  33.153  52.977  0.00  0.00    -0.200 OA
ATOM     16  O   UNL d   1      54.416  32.691  52.854  0.00  0.00    -0.200 OA
BRANCH  14  17
ATOM     17  C   UNL d   1      54.683  33.175  54.370  0.00  0.00     0.104 A 
ATOM     18  C   UNL d   1      54.416  32.917  55.106  0.00  0.00     0.015 A 
ATOM     19  C   UNL d   1      54.679  33.293  55.801  0.00  0.00     0.030 A 
ATOM     20  C   UNL d   1      55.206  33.923  55.747  0.00  0.00     0.140 A 
ATOM     21  C   UNL d   1      55.477  34.184  55.000  0.00  0.00     0.030 A 
ATOM     22  F   UNL d   1      55.432  34.256  56.473  0.00  0.00    -0.204 F 
ATOM     23  C   UNL d   1      55.213  33.809  54.319  0.00  0.00     0.015 A 
ENDBRANCH  14  17
ENDBRANCH   1  14
BRANCH   4  24
ATOM     24  C   UNL d   1      52.559  30.453  53.185  0.00  0.00     0.108 C 
BRANCH  24  25
ATOM     25  C   UNL d   1      52.802  29.804  53.642  0.00  0.00     0.118 A 
ATOM     26  O   UNL d   1      52.533  29.619  54.403  0.00  0.00    -0.304 OA
ATOM     27  C   UNL d   1      52.922  28.920  54.658  0.00  0.00     0.123 A 
ATOM     28  C   UNL d   1      53.431  28.681  54.046  0.00  0.00     0.029 A 
ATOM     29  C   UNL d   1      53.354  29.229  53.422  0.00  0.00     0.028 A 
ENDBRANCH  24  25
ENDBRANCH   4  24
TORSDOF 4
ENDMDL
MODEL 3
REMARK VINA RESULT:      -9.5      1.491      3.200
REMARK  4 active torsions:
REMARK  status: ('A' for Active; 'I' for Inactive)
REMARK    1  A    between atoms: S_3  and  N_1 
REMARK    2  A    between atoms: C_9  and  S_3 
REMARK    3  A    between atoms: C_10  and  N_5 
REMARK    4  A    between atoms: C_15  and  C_10 
ROOT
ATOM      1  N   UNL d   1      53.272  32.968  53.266  0.00  0.00    -0.195 N 
ATOM      2  C   UNL d   1      53.142  32.158  53.312  0.00  0.00     0.193 A 
ATOM      3  C   UNL d   1      52.379  31.999  53.055  0.00  0.00     0.185 A 
ATOM      4  N   UNL d   1      52.023  32.714  52.845  0.00  0.00    -0.269 N 
ATOM      5  C   UNL d   1      52.582  33.312  52.978  0.00  0.00     0.179 A 
ATOM      6  N   UNL d   1      53.623  31.537  53.556  0.00  0.00    -0.223 NA
ATOM      7  N   UNL d   1      52.092  31.225  53.041  0.00  0.00    -0.224 NA
ATOM      8  C   UNL d   1      53.346  30.770  53.545  0.00  0.00     0.101 A 
ATOM      9  C   UNL d   1      52.577  30.606  53.287  0.00  0.00     0.101 A 
ATOM     10  C   UNL d   1      52.303  29.834  53.277  0.00  0.00     0.021 A 
ATOM     11  C   UNL d   1      53.829  30.153  53.789  0.00  0.00     0.021 A 
ATOM     12  C   UNL d   1      52.796  29.221  53.525  0.00  0.00     0.002 A 
ATOM     13  C   UNL d   1      53.554  29.380  53.779  0.00  0.00     0.002 A 
ENDROOT
BRANCH   1  14
ATOM     14  S   UNL d   1      54.111  33.102  53.552  0.00  0.00     0.274 S 
ATOM     15  O   UNL d   1      54.761  32.963  52.968  0.00  0.00    -0.200 OA
ATOM     16  O   UNL d   1      54.178  32.866  52.754  0.00  0.00    -0.200 OA
BRANCH  14  17
ATOM     17  C   UNL d   1      54.431  33.337  54.276  0.00  0.00     0.104 A 
ATOM     18  C   UNL d   1      55.246  33.427  54.356  0.00  0.00     0.015 A 
ATOM     19  C   UNL d   1      55.570  33.665  55.085  0.00  0.00     0.030 A 
ATOM     20  C   UNL d   1      55.071  33.809  55.724  0.00  0.00     0.140 A 
ATOM     21  C   UNL d   1      54.244  33.717  55.642  0.00  0.00     0.030 A 
ATOM     22  F   UNL d   1      55.452  34.042  56.423  0.00  0.00    -0.204 F 
ATOM     23  C   UNL d   1      53.931  33.483  54.920  0.00  0.00     0.015 A 
ENDBRANCH  14  17
ENDBRANCH   1  14
BRANCH   4  24
ATOM     24  C   UNL d   1      51.256  32.814  52.557  0.00  0.00     0.108 C 
BRANCH  24  25
ATOM     25  C   UNL d   1      50.844  33.520  52.703  0.00  0.00     0.118 A 
ATOM     26  O   UNL d   1      50.504  33.743  53.425  0.00  0.00    -0.304 OA
ATOM     27  C   UNL d   1      50.145  34.495  53.327  0.00  0.00     0.123 A 
ATOM     28  C   UNL d   1      50.268  34.729  52.540  0.00  0.00     0.029 A 
ATOM     29  C   UNL d   1      50.699  34.125  52.159  0.00  0.00     0.028 A 
ENDBRANCH  24  25
ENDBRANCH   4  24
TORSDOF 4
ENDMDL
MODEL 4
REMARK VINA RESULT:      -9.2      1.641      3.682
REMARK  4 active torsions:
REMARK  status: ('A' for Active; 'I' for Inactive)
REMARK    1  A    between atoms: S_3  and  N_1 
REMARK    2  A    between atoms: C_9  and  S_3 
REMARK    3  A    between atoms: C_10  and  N_5 
REMARK    4  A    between atoms: C_15  and  C_10 
ROOT
ATOM      1  N   UNL d   1      52.794  32.543  52.951  0.00  0.00    -0.195 N 
ATOM      2  C   UNL d   1      53.279  32.842  53.544  0.00  0.00     0.193 A 
ATOM      3  C   UNL d   1      53.719  32.227  53.860  0.00  0.00     0.185 A 
ATOM      4  N   UNL d   1      53.512  31.531  53.465  0.00  0.00    -0.269 N 
ATOM      5  C   UNL d   1      52.938  31.734  52.902  0.00  0.00     0.179 A 
ATOM      6  N   UNL d   1      53.378  33.603  53.840  0.00  0.00    -0.223 NA
ATOM      7  N   UNL d   1      54.258  32.364  54.471  0.00  0.00    -0.224 NA
ATOM      8  C   UNL d   1      53.908  33.746  54.443  0.00  0.00     0.101 A 
ATOM      9  C   UNL d   1      54.354  33.128  54.765  0.00  0.00     0.101 A 
ATOM     10  C   UNL d   1      54.886  33.276  55.370  0.00  0.00     0.021 A 
ATOM     11  C   UNL d   1      54.005  34.507  54.736  0.00  0.00     0.021 A 
ATOM     12  C   UNL d   1      54.975  34.044  55.658  0.00  0.00     0.002 A 
ATOM     13  C   UNL d   1      54.537  34.655  55.342  0.00  0.00     0.002 A 
ENDROOT
BRANCH   1  14
ATOM     14  S   UNL d   1      52.332  33.241  52.631  0.00  0.00     0.274 S 
ATOM     15  O   UNL d   1      52.711  33.708  51.982  0.00  0.00    -0.200 OA
ATOM     16  O   UNL d   1      53.045  33.222  52.197  0.00  0.00    -0.200 OA
BRANCH  14  17
ATOM     17  C   UNL d   1      51.595  33.563  52.815  0.00  0.00     0.104 A 
ATOM     18  C   UNL d   1      51.439  34.355  52.650  0.00  0.00     0.015 A 
ATOM     19  C   UNL d   1      50.695  34.682  52.835  0.00  0.00     0.030 A 
ATOM     20  C   UNL d   1      50.119  34.208  53.183  0.00  0.00     0.140 A 
ATOM     21  C   UNL d   1      50.278  33.404  53.350  0.00  0.00     0.030 A 
ATOM     22  F   UNL d   1      49.400  34.589  53.343  0.00  0.00    -0.204 F 
ATOM     23  C   UNL d   1      51.013  33.088  53.166  0.00  0.00     0.015 A 
ENDBRANCH  14  17
ENDBRANCH   1  14
BRANCH   4  24
ATOM     24  C   UNL d   1      53.819  30.778  53.605  0.00  0.00     0.108 C 
BRANCH  24  25
ATOM     25  C   UNL d   1      53.314  30.119  53.628  0.00  0.00     0.118 A 
ATOM     26  O   UNL d   1      52.839  29.851  53.004  0.00  0.00    -0.304 OA
ATOM     27  C   UNL d   1      52.420  29.172  53.266  0.00  0.00     0.123 A 
ATOM     28  C   UNL d   1      52.642  29.029  54.053  0.00  0.00     0.029 A 
ATOM     29  C   UNL d   1      53.194  29.616  54.272  0.00  0.00     0.028 A 
ENDBRANCH  24  25
ENDBRANCH   4  24
TORSDOF 4
ENDMDL
MODEL 5
REMARK VINA RESULT:      -8.4      0.963      3.200
REMARK  4 active torsions:
REMARK  status: ('A' for Active; 'I' for Inactive)
REMARK    1  A    between atoms: S_3  and  N_1 
REMARK    2  A    between atoms: C_9  and  S_3 
REMARK    3  A    between atoms: C_10  and  N_5 
REMARK    4  A    between atoms: C_15  and  C_10 
ROOT
ATOM      1  N   UNL d   1      53.419  32.236  53.276  0.00  0.00    -0.195 N 
ATOM      2  C   UNL d   1      52.751  32.713  53.238  0.00  0.00     0.193 A 
ATOM      3  C   UNL d   1      52.952  33.467  53.489  0.00  0.00     0.185 A 
ATOM      4  N   UNL d   1      53.754  33.469  53.687  0.00  0.00    -0.269 N 
ATOM      5  C   UNL d   1      54.038  32.702  53.553  0.00  0.00     0.179 A 
ATOM      6  N   UNL d   1      51.977  32.558  53.005  0.00  0.00    -0.223 NA
ATOM      7  N   UNL d   1      52.386  34.070  53.509  0.00  0.00    -0.224 NA
ATOM      8  C   UNL d   1      51.414  33.147  53.022  0.00  0.00     0.101 A 
ATOM      9  C   UNL d   1      51.613  33.909  53.275  0.00  0.00     0.101 A 
ATOM     10  C   UNL d   1      51.043  34.499  53.291  0.00  0.00     0.021 A 
ATOM     11  C   UNL d   1      50.643  32.988  52.789  0.00  0.00     0.021 A 
ATOM     12  C   UNL d   1      50.272  34.329  53.055  0.00  0.00     0.002 A 
ATOM     13  C   UNL d   1      50.073  33.578  52.805  0.00  0.00     0.002 A 
ENDROOT
BRANCH   1  14
ATOM     14  S   UNL d   1      53.162  31.424  52.996  0.00  0.00     0.274 S 
ATOM     15  O   UNL d   1      52.939  31.347  52.143  0.00  0.00    -0.200 OA
ATOM     16  O   UNL d   1      53.118  31.921  52.326  0.00  0.00    -0.200 OA
BRANCH  14  17
ATOM     17  C   UNL d   1      53.081  30.695  53.374  0.00  0.00     0.104 A 
ATOM     18  C   UNL d   1      53.556  30.512  54.022  0.00  0.00     0.015 A 
ATOM     19  C   UNL d   1      53.476  29.777  54.404  0.00  0.00     0.030 A 
ATOM     20  C   UNL d   1      52.920  29.235  54.131  0.00  0.00     0.140 A 
ATOM     21  C   UNL d   1      52.438  29.422  53.473  0.00  0.00     0.030 A 
ATOM     22  F   UNL d   1      52.887  28.521  54.552  0.00  0.00    -0.204 F 
ATOM     23  C   UNL d   1      52.522  30.149  53.101  0.00  0.00     0.015 A 
ENDBRANCH  14  17
ENDBRANCH   1  14
BRANCH   4  24
ATOM     24  C   UNL d   1      54.189  34.113  53.967  0.00  0.00     0.108 C 
BRANCH  24  25
ATOM     25  C   UNL d   1      54.664  34.034  54.642  0.00  0.00     0.118 A 
ATOM     26  O   UNL d   1      54.396  34.037  55.426  0.00  0.00    -0.304 OA
ATOM     27  C   UNL d   1      55.059  33.942  55.932  0.00  0.00     0.123 A 
ATOM     28  C   UNL d   1      55.733  33.881  55.451  0.00  0.00     0.029 A 
ATOM     29  C   UNL d   1      55.484  33.938  54.656  0.00  0.00     0.028 A 
ENDBRANCH  24  25
ENDBRANCH   4  24
TORSDOF 4
ENDMDL
MODEL 6
REMARK VINA RESULT:      -8.3      1.758      4.259
REMARK  4 active torsions:
REMARK  status: ('A' for Active; 'I' for Inactive)
REMARK    1  A    between atoms: S_3  and  N_1 
REMARK    2  A    between atoms: C_9  and  S_3 
REMARK    3  A    between atoms: C_10  and  N_5 
REMARK    4  A    between atoms: C_15  and  C_10 
ROOT
ATOM      1  N   UNL d   1      52.864  33.247  53.435  0.00  0.00    -0.195 N 
ATOM      2  C   UNL d   1      52.926  32.427  53.429  0.00  0.00     0.193 A 
ATOM      3  C   UNL d   1      53.413  32.197  54.048  0.00  0.00     0.185 A 
ATOM      4  N   UNL d   1      53.661  32.875  54.449  0.00  0.00    -0.269 N 
ATOM      5  C   UNL d   1      53.318  33.523  54.064  0.00  0.00     0.179 A 
ATOM      6  N   UNL d   1      52.600  31.855  52.937  0.00  0.00    -0.223 NA
ATOM      7  N   UNL d   1      53.577  31.398  54.179  0.00  0.00    -0.224 NA
ATOM      8  C   UNL d   1      52.758  31.065  53.061  0.00  0.00     0.101 A 
ATOM      9  C   UNL d   1      53.248  30.828  53.684  0.00  0.00     0.101 A 
ATOM     10  C   UNL d   1      53.404  30.032  53.804  0.00  0.00     0.021 A 
ATOM     11  C   UNL d   1      52.430  30.496  52.567  0.00  0.00     0.021 A 
ATOM     12  C   UNL d   1      53.070  29.469  53.303  0.00  0.00     0.002 A 
ATOM     13  C   UNL d   1      52.586  29.700  52.688  0.00  0.00     0.002 A 
ENDROOT
BRANCH   1  14
ATOM     14  S   UNL d   1      52.328  33.461  52.749  0.00  0.00     0.274 S 
ATOM     15  O   UNL d   1      52.667  33.380  51.936  0.00  0.00    -0.200 OA
ATOM     16  O   UNL d   1      53.053  33.228  52.407  0.00  0.00    -0.200 OA
BRANCH  14  17
ATOM     17  C   UNL d   1      51.549  33.729  52.703  0.00  0.00     0.104 A 
ATOM     18  C   UNL d   1      51.262  34.039  51.995  0.00  0.00     0.015 A 
ATOM     19  C   UNL d   1      50.476  34.310  51.946  0.00  0.00     0.030 A 
ATOM     20  C   UNL d   1      49.989  34.266  52.609  0.00  0.00     0.140 A 
ATOM     21  C   UNL d   1      50.281  33.951  53.327  0.00  0.00     0.030 A 
ATOM     22  F   UNL d   1      49.218  34.551  52.499  0.00  0.00    -0.204 F 
ATOM     23  C   UNL d   1      51.057  33.686  53.368  0.00  0.00     0.015 A 
ENDBRANCH  14  17
ENDBRANCH   1  14
BRANCH   4  24
ATOM     24  C   UNL d   1      54.158  32.901  55.108  0.00  0.00     0.108 C 
BRANCH  24  25
ATOM     25  C   UNL d   1      54.784  33.445  55.137  0.00  0.00     0.118 A 
ATOM     26  O   UNL d   1      55.444  33.452  54.636  0.00  0.00    -0.304 OA
ATOM     27  C   UNL d   1      55.937  34.093  54.859  0.00  0.00     0.123 A 
ATOM     28  C   UNL d   1      55.574  34.478  55.498  0.00  0.00     0.029 A 
ATOM     29  C   UNL d   1      54.863  34.075  55.666  0.00  0.00     0.028 A 
ENDBRANCH  24  25
ENDBRANCH   4  24
TORSDOF 4
ENDMDL
