MODEL 1
REMARK VINA RESULT:      75.2      0.000      0.000
REMARK  4 active torsions:
REMARK  status: ('A' for Active; 'I' for Inactive)
REMARK    1  A    between atoms: N_5  and  S_1 
REMARK    2  A    between atoms: C_8  and  S_1 
REMARK    3  A    between atoms: C_2  and  C_7 
REMARK    4  A    between atoms: C_11  and  N_5 
ROOT
ATOM      1  C   UNL d   1     -50.387  26.871  33.605  0.00  0.00     0.025 A 
ATOM      2  C   UNL d   1     -49.640  26.929  33.952  0.00  0.00     0.020 A 
ATOM      3  C   UNL d   1     -49.270  27.657  34.027  0.00  0.00     0.094 A 
ATOM      4  C   UNL d   1     -50.772  27.544  33.330  0.00  0.00     0.002 A 
ATOM      5  C   UNL d   1     -49.662  28.338  33.747  0.00  0.00     0.020 A 
ATOM      6  C   UNL d   1     -49.260  26.246  34.226  0.00  0.00     0.002 C 
ATOM      7  C   UNL d   1     -50.412  28.275  33.399  0.00  0.00     0.002 A 
ENDROOT
BRANCH   3   8
ATOM      8  N   UNL d   1     -48.532  27.718  34.369  0.00  0.00    -0.158 NA
BRANCH   8   9
ATOM      9  S   UNL d   1     -48.271  28.442  34.662  0.00  0.00     0.285 S 
ATOM     10  O   UNL d   1     -48.029  28.653  33.897  0.00  0.00    -0.198 OA
ATOM     11  O   UNL d   1     -48.517  28.223  35.423  0.00  0.00    -0.198 OA
BRANCH   9  12
ATOM     12  C   UNL d   1     -48.009  29.169  34.952  0.00  0.00     0.107 A 
ATOM     13  C   UNL d   1     -48.123  29.854  34.499  0.00  0.00     0.040 A 
ATOM     14  C   UNL d   1     -47.856  30.574  34.801  0.00  0.00     0.123 A 
ATOM     15  O   UNL d   1     -47.963  31.256  34.363  0.00  0.00    -0.301 OA
ATOM     16  C   UNL d   1     -47.484  30.616  35.536  0.00  0.00     0.123 A 
ATOM     17  C   UNL d   1     -47.703  31.982  34.649  0.00  0.00     0.149 A 
ATOM     18  C   UNL d   1     -47.331  32.016  35.385  0.00  0.00     0.149 A 
ATOM     19  O   UNL d   1     -47.225  31.334  35.823  0.00  0.00    -0.301 OA
ATOM     20  C   UNL d   1     -47.378  29.929  35.974  0.00  0.00     0.028 A 
ATOM     21  C   UNL d   1     -47.640  29.203  35.685  0.00  0.00     0.015 A 
ENDBRANCH   9  12
ENDBRANCH   8   9
ENDBRANCH   3   8
BRANCH   1  22
ATOM     22  C   UNL d   1     -50.753  26.122  33.535  0.00  0.00     0.112 A 
ATOM     23  S   UNL d   1     -50.365  25.398  33.493  0.00  0.00    -0.047 SA
ATOM     24  C   UNL d   1     -50.938  24.798  33.426  0.00  0.00     0.130 A 
ATOM     25  N   UNL d   1     -50.894  23.984  33.365  0.00  0.00    -0.236 NA
ATOM     26  C   UNL d   1     -51.685  25.173  33.429  0.00  0.00     0.106 A 
ATOM     27  C   UNL d   1     -51.577  23.535  33.307  0.00  0.00     0.100 A 
ATOM     28  C   UNL d   1     -52.315  23.900  33.309  0.00  0.00     0.022 A 
ATOM     29  C   UNL d   1     -52.371  24.716  33.370  0.00  0.00     0.023 A 
ATOM     30  N   UNL d   1     -51.571  25.993  33.496  0.00  0.00    -0.237 NA
ENDBRANCH   1  22
TORSDOF 4
ENDMDL
