MODEL 1
REMARK VINA RESULT:      -4.0      0.000      0.000
REMARK  5 active torsions:
REMARK  status: ('A' for Active; 'I' for Inactive)
REMARK    1  A    between atoms: C_3  and  C_1 
REMARK    2  A    between atoms: C_4  and  C_3 
REMARK    3  A    between atoms: C_7  and  C_4 
REMARK    4  A    between atoms: C_10  and  C_7 
REMARK    5  A    between atoms: O_19  and  C_9 
ROOT
ATOM      1  C   UNL d   1     -41.322-122.226 -51.842  0.00  0.00     0.199 C 
ATOM      2  O   UNL d   1     -41.123-121.429 -51.759  0.00  0.00    -0.286 OA
ENDROOT
BRANCH   1   3
ATOM      3  C   UNL d   1     -41.359-122.565 -52.591  0.00  0.00     0.078 A 
ATOM      4  C   UNL d   1     -41.632-122.123 -53.232  0.00  0.00     0.201 A 
ATOM      5  C   UNL d   1     -41.669-122.466 -53.984  0.00  0.00     0.066 A 
ATOM      6  O   UNL d   1     -41.869-121.340 -53.127  0.00  0.00    -0.286 OA
ATOM      7  C   UNL d   1     -41.433-123.248 -54.092  0.00  0.00     0.097 A 
ATOM      8  C   UNL d   1     -41.160-123.690 -53.451  0.00  0.00     0.025 A 
ATOM      9  C   UNL d   1     -41.123-123.350 -52.702  0.00  0.00     0.008 A 
BRANCH   7  10
ATOM     10  O   UNL d   1     -41.469-123.594 -54.846  0.00  0.00    -0.328 OA
ATOM     11  C   UNL d   1     -41.459-123.118 -55.518  0.00  0.00     0.181 C 
ENDBRANCH   7  10
ENDBRANCH   1   3
BRANCH   1  12
ATOM     12  C   UNL d   1     -41.483-122.681 -51.176  0.00  0.00     0.042 C 
BRANCH  12  13
ATOM     13  C   UNL d   1     -41.479-122.335 -50.421  0.00  0.00     0.003 C 
BRANCH  13  14
ATOM     14  C   UNL d   1     -41.851-122.711 -49.791  0.00  0.00     0.000 A 
ATOM     15  C   UNL d   1     -41.434-123.267 -49.346  0.00  0.00     0.001 A 
ATOM     16  C   UNL d   1     -41.805-123.644 -48.716  0.00  0.00     0.011 A 
ATOM     17  C   UNL d   1     -42.610-123.448 -48.541  0.00  0.00     0.058 A 
ATOM     18  C   UNL d   1     -43.008-122.908 -48.977  0.00  0.00     0.011 A 
ATOM     19 CL   UNL d   1     -42.989-123.816 -47.917  0.00  0.00    -0.082 Cl
ATOM     20  C   UNL d   1     -42.637-122.532 -49.607  0.00  0.00     0.001 A 
ENDBRANCH  13  14
ENDBRANCH  12  13
ENDBRANCH   1  12
TORSDOF 5
ENDMDL
MODEL 2
REMARK VINA RESULT:      -3.3      1.037      1.692
REMARK  5 active torsions:
REMARK  status: ('A' for Active; 'I' for Inactive)
REMARK    1  A    between atoms: C_3  and  C_1 
REMARK    2  A    between atoms: C_4  and  C_3 
REMARK    3  A    between atoms: C_7  and  C_4 
REMARK    4  A    between atoms: C_10  and  C_7 
REMARK    5  A    between atoms: O_19  and  C_9 
ROOT
ATOM      1  C   UNL d   1     -41.499-123.024 -52.796  0.00  0.00     0.199 C 
ATOM      2  O   UNL d   1     -41.123-123.758 -52.790  0.00  0.00    -0.286 OA
ENDROOT
BRANCH   1   3
ATOM      3  C   UNL d   1     -41.659-122.650 -53.511  0.00  0.00     0.078 A 
ATOM      4  C   UNL d   1     -41.529-123.045 -54.223  0.00  0.00     0.201 A 
ATOM      5  C   UNL d   1     -41.691-122.667 -54.941  0.00  0.00     0.066 A 
ATOM      6  O   UNL d   1     -41.238-123.817 -54.224  0.00  0.00    -0.286 OA
ATOM      7  C   UNL d   1     -41.982-121.896 -54.944  0.00  0.00     0.097 A 
ATOM      8  C   UNL d   1     -42.112-121.501 -54.232  0.00  0.00     0.025 A 
ATOM      9  C   UNL d   1     -41.951-121.876 -53.517  0.00  0.00     0.008 A 
BRANCH   7  10
ATOM     10  O   UNL d   1     -42.145-121.516 -55.664  0.00  0.00    -0.328 OA
ATOM     11  C   UNL d   1     -42.674-121.853 -56.198  0.00  0.00     0.181 C 
ENDBRANCH   7  10
ENDBRANCH   1   3
BRANCH   1  12
ATOM     12  C   UNL d   1     -41.713-122.665 -52.087  0.00  0.00     0.042 C 
BRANCH  12  13
ATOM     13  C   UNL d   1     -41.253-122.778 -51.405  0.00  0.00     0.003 C 
BRANCH  13  14
ATOM     14  C   UNL d   1     -41.611-122.810 -50.665  0.00  0.00     0.000 A 
ATOM     15  C   UNL d   1     -42.288-122.361 -50.521  0.00  0.00     0.001 A 
ATOM     16  C   UNL d   1     -42.647-122.392 -49.781  0.00  0.00     0.011 A 
ATOM     17  C   UNL d   1     -42.307-122.888 -49.185  0.00  0.00     0.058 A 
ATOM     18  C   UNL d   1     -41.650-123.321 -49.331  0.00  0.00     0.011 A 
ATOM     19 CL   UNL d   1     -42.655-122.927 -48.446  0.00  0.00    -0.082 Cl
ATOM     20  C   UNL d   1     -41.293-123.289 -50.071  0.00  0.00     0.001 A 
ENDBRANCH  13  14
ENDBRANCH  12  13
ENDBRANCH   1  12
TORSDOF 5
ENDMDL
