MODEL 1
REMARK VINA RESULT:      55.9      0.000      0.000
REMARK  3 active torsions:
REMARK  status: ('A' for Active; 'I' for Inactive)
REMARK    1  A    between atoms: C_4  and  N_1 
REMARK    2  A    between atoms: S_5  and  C_6 
REMARK    3  A    between atoms: C_9  and  S_5 
ROOT
ATOM      1  C   UNL d   1     -56.289 -99.347 -44.572  0.00  0.00     0.078 A 
ATOM      2  C   UNL d   1     -55.902-100.063 -44.386  0.00  0.00     0.080 A 
ATOM      3  C   UNL d   1     -55.887 -98.758 -44.985  0.00  0.00     0.018 A 
ATOM      4  C   UNL d   1     -55.116-100.174 -44.618  0.00  0.00     0.010 A 
ATOM      5  C   UNL d   1     -55.103 -98.871 -45.215  0.00  0.00     0.002 A 
ATOM      6  C   UNL d   1     -54.716 -99.583 -45.031  0.00  0.00     0.001 A 
ENDROOT
BRANCH   1   7
ATOM      7  N   UNL d   1     -57.070 -99.232 -44.343  0.00  0.00    -0.241 N 
ATOM      8  C   UNL d   1     -57.329 -99.003 -43.594  0.00  0.00     0.267 A 
ATOM      9  C   UNL d   1     -58.150 -98.956 -43.614  0.00  0.00     0.061 A 
ATOM     10  O   UNL d   1     -56.849 -98.848 -42.940  0.00  0.00    -0.267 OA
ATOM     11  C   UNL d   1     -58.698 -98.758 -43.038  0.00  0.00     0.005 A 
ATOM     12  C   UNL d   1     -58.402 -99.154 -44.370  0.00  0.00     0.061 A 
ATOM     13  C   UNL d   1     -59.505 -98.757 -43.217  0.00  0.00     0.000 A 
ATOM     14  C   UNL d   1     -59.752 -98.958 -43.983  0.00  0.00     0.000 A 
ATOM     15  C   UNL d   1     -59.200 -99.156 -44.555  0.00  0.00     0.005 A 
ATOM     16  C   UNL d   1     -57.736 -99.326 -44.825  0.00  0.00     0.267 A 
ATOM     17  O   UNL d   1     -57.731 -99.552 -45.620  0.00  0.00    -0.267 OA
ENDBRANCH   1   7
BRANCH   2  18
ATOM     18  S   UNL d   1     -56.303-100.653 -43.973  0.00  0.00     0.160 S 
ATOM     19  O   UNL d   1     -56.790-100.978 -43.497  0.00  0.00    -0.244 OA
BRANCH  18  20
ATOM     20  C   UNL d   1     -56.112-101.445 -44.100  0.00  0.00     0.477 C 
ATOM     21  F   UNL d   1     -55.575-101.793 -44.683  0.00  0.00    -0.158 F 
ATOM     22  F   UNL d   1     -56.395-102.150 -43.686  0.00  0.00    -0.158 F 
ATOM     23  F   UNL d   1     -55.937-102.166 -44.217  0.00  0.00    -0.158 F 
ENDBRANCH  18  20
ENDBRANCH   2  18
TORSDOF 3
ENDMDL
