MODEL 1
REMARK VINA RESULT:      39.9      0.000      0.000
REMARK  5 active torsions:
REMARK  status: ('A' for Active; 'I' for Inactive)
REMARK    1  A    between atoms: C_3  and  C_1 
REMARK    2  A    between atoms: C_7  and  C_3 
REMARK    3  A    between atoms: N_9  and  C_3 
REMARK    4  A    between atoms: C_17  and  C_8 
REMARK    5  A    between atoms: C_10  and  N_9 
ROOT
ATOM      1  C   UNL d   1      45.981 -17.352  43.637  0.00  0.00     0.111 C 
ENDROOT
BRANCH   1   2
ATOM      2  C   UNL d   1      45.790 -16.570  43.860  0.00  0.00     0.160 A 
ATOM      3  C   UNL d   1      45.108 -16.412  44.296  0.00  0.00     0.258 A 
ATOM      4  C   UNL d   1      44.937 -15.627  44.508  0.00  0.00     0.238 A 
ATOM      5  O   UNL d   1      44.581 -17.027  44.530  0.00  0.00    -0.281 OA
ATOM      6  O   UNL d   1      44.245 -15.467  44.950  0.00  0.00    -0.283 OA
ATOM      7  C   UNL d   1      45.433 -15.004  44.293  0.00  0.00     0.073 A 
ATOM      8  C   UNL d   1      46.115 -15.162  43.857  0.00  0.00     0.146 A 
ATOM      9  O   UNL d   1      46.289 -15.941  43.644  0.00  0.00    -0.299 OA
BRANCH   8  10
ATOM     10  C   UNL d   1      46.604 -14.514  43.650  0.00  0.00     0.259 C 
ATOM     11  O   UNL d   1      46.496 -13.781  44.005  0.00  0.00    -0.281 OA
ENDBRANCH   8  10
ENDBRANCH   1   2
BRANCH   1  12
ATOM     12  C   UNL d   1      45.663 -17.657  42.923  0.00  0.00     0.047 A 
ATOM     13  C   UNL d   1      46.150 -17.765  42.267  0.00  0.00     0.142 A 
ATOM     14  F   UNL d   1      46.647 -17.656  42.264  0.00  0.00    -0.204 F 
ATOM     15  C   UNL d   1      45.851 -18.065  41.559  0.00  0.00     0.030 A 
ATOM     16  C   UNL d   1      45.052 -18.259  41.507  0.00  0.00     0.002 A 
ATOM     17  C   UNL d   1      44.565 -18.151  42.163  0.00  0.00     0.000 A 
ATOM     18  C   UNL d   1      44.864 -17.852  42.871  0.00  0.00     0.004 A 
ENDBRANCH   1  12
BRANCH   1  19
ATOM     19  N   UNL d   1      46.471 -17.813  44.105  0.00  0.00    -0.225 NA
BRANCH  19  20
ATOM     20  C   UNL d   1      46.310 -18.629  44.215  0.00  0.00     0.163 A 
ATOM     21  N   UNL d   1      46.647 -19.188  43.725  0.00  0.00    -0.225 NA
ATOM     22  C   UNL d   1      46.491 -19.980  43.832  0.00  0.00     0.101 A 
ATOM     23  C   UNL d   1      45.978 -20.230  44.452  0.00  0.00     0.021 A 
ATOM     24  C   UNL d   1      45.641 -19.671  44.942  0.00  0.00     0.005 A 
ATOM     25  C   UNL d   1      45.799 -18.859  44.835  0.00  0.00     0.039 A 
ENDBRANCH  19  20
ENDBRANCH   1  19
TORSDOF 5
ENDMDL
