MODEL 1
REMARK VINA RESULT:      -5.6      0.000      0.000
REMARK  5 active torsions:
REMARK  status: ('A' for Active; 'I' for Inactive)
REMARK    1  A    between atoms: N_2  and  C_7 
REMARK    2  A    between atoms: N_8  and  C_3 
REMARK    3  A    between atoms: C_11  and  C_4 
REMARK    4  A    between atoms: N_9  and  N_8 
REMARK    5  A    between atoms: C_17  and  N_9 
ROOT
ATOM      1  N   UNL d   1     -41.679-122.655 -51.904  0.00  0.00    -0.219 NA
ATOM      2  C   UNL d   1     -41.448-123.139 -51.271  0.00  0.00     0.215 A 
ATOM      3  C   UNL d   1     -41.485-123.061 -52.615  0.00  0.00     0.090 A 
ATOM      4  S   UNL d   1     -41.125-123.817 -51.581  0.00  0.00    -0.045 SA
ATOM      5  C   UNL d   1     -41.146-123.772 -52.409  0.00  0.00     0.058 A 
ENDROOT
BRANCH   3   6
ATOM      6  C   UNL d   1     -41.634-122.748 -53.375  0.00  0.00     0.018 A 
ATOM      7  C   UNL d   1     -41.406-123.166 -54.043  0.00  0.00     0.003 A 
ATOM      8  C   UNL d   1     -41.545-122.872 -54.780  0.00  0.00     0.024 A 
ATOM      9  C   UNL d   1     -41.925-122.137 -54.864  0.00  0.00     0.127 A 
ATOM     10  C   UNL d   1     -42.152-121.721 -54.207  0.00  0.00     0.024 A 
ATOM     11  C   UNL d   1     -42.004-122.032 -53.436  0.00  0.00     0.003 A 
BRANCH   9  12
ATOM     12  N   UNL d   1     -42.073-121.827 -55.602  0.00  0.00    -0.114 N 
ATOM     13  O   UNL d   1     -42.772-121.924 -56.019  0.00  0.00    -0.532 OA
ATOM     14  O   UNL d   1     -41.537-121.383 -56.007  0.00  0.00    -0.532 OA
ENDBRANCH   9  12
ENDBRANCH   3   6
BRANCH   2  15
ATOM     15  N   UNL d   1     -41.520-122.989 -50.447  0.00  0.00    -0.122 NA
BRANCH  15  16
ATOM     16  N   UNL d   1     -42.227-123.198 -50.065  0.00  0.00    -0.146 NA
BRANCH  16  17
ATOM     17  C   UNL d   1     -42.298-123.052 -49.240  0.00  0.00     0.103 C 
ATOM     18  C   UNL d   1     -43.041-122.855 -48.931  0.00  0.00     0.022 C 
ATOM     19  C   UNL d   1     -41.637-123.104 -48.748  0.00  0.00     0.022 C 
ENDBRANCH  16  17
ENDBRANCH  15  16
ENDBRANCH   2  15
TORSDOF 5
ENDMDL
MODEL 2
REMARK VINA RESULT:      -4.0      2.867      4.953
REMARK  5 active torsions:
REMARK  status: ('A' for Active; 'I' for Inactive)
REMARK    1  A    between atoms: N_2  and  C_7 
REMARK    2  A    between atoms: N_8  and  C_3 
REMARK    3  A    between atoms: C_11  and  C_4 
REMARK    4  A    between atoms: N_9  and  N_8 
REMARK    5  A    between atoms: C_17  and  N_9 
ROOT
ATOM      1  N   UNL d   1     -42.144-122.848 -52.210  0.00  0.00    -0.219 NA
ATOM      2  C   UNL d   1     -41.760-122.568 -52.891  0.00  0.00     0.215 A 
ATOM      3  C   UNL d   1     -41.773-122.488 -51.546  0.00  0.00     0.090 A 
ATOM      4  S   UNL d   1     -41.175-122.055 -52.654  0.00  0.00    -0.045 SA
ATOM      5  C   UNL d   1     -41.181-122.004 -51.825  0.00  0.00     0.058 A 
ENDROOT
BRANCH   3   6
ATOM      6  C   UNL d   1     -42.007-122.634 -50.758  0.00  0.00     0.018 A 
ATOM      7  C   UNL d   1     -41.680-123.261 -50.342  0.00  0.00     0.003 A 
ATOM      8  C   UNL d   1     -41.900-123.410 -49.581  0.00  0.00     0.024 A 
ATOM      9  C   UNL d   1     -42.465-122.921 -49.214  0.00  0.00     0.127 A 
ATOM     10  C   UNL d   1     -42.790-122.301 -49.621  0.00  0.00     0.024 A 
ATOM     11  C   UNL d   1     -42.557-122.149 -50.419  0.00  0.00     0.003 A 
BRANCH   9  12
ATOM     12  N   UNL d   1     -42.697-123.058 -48.446  0.00  0.00    -0.114 N 
ATOM     13  O   UNL d   1     -42.850-122.474 -47.892  0.00  0.00    -0.532 OA
ATOM     14  O   UNL d   1     -42.803-123.798 -48.145  0.00  0.00    -0.532 OA
ENDBRANCH   9  12
ENDBRANCH   3   6
BRANCH   2  15
ATOM     15  N   UNL d   1     -41.918-122.757 -53.694  0.00  0.00    -0.122 NA
BRANCH  15  16
ATOM     16  N   UNL d   1     -41.584-122.282 -54.288  0.00  0.00    -0.146 NA
BRANCH  16  17
ATOM     17  C   UNL d   1     -41.958-122.256 -55.040  0.00  0.00     0.103 C 
ATOM     18  C   UNL d   1     -42.497-121.646 -55.198  0.00  0.00     0.022 C 
ATOM     19  C   UNL d   1     -41.790-122.828 -55.611  0.00  0.00     0.022 C 
ENDBRANCH  16  17
ENDBRANCH  15  16
ENDBRANCH   2  15
TORSDOF 5
ENDMDL
