MODEL 1
REMARK VINA RESULT:      33.8      0.000      0.000
REMARK  1 active torsions:
REMARK  status: ('A' for Active; 'I' for Inactive)
REMARK    1  A    between atoms: C_2  and  N_1 
ROOT
ATOM      1  C   UNL d   1      46.057 -19.814  41.998  0.00  0.00     0.153 A 
ATOM      2  C   UNL d   1      46.192 -19.026  42.166  0.00  0.00     0.059 A 
ATOM      3  C   UNL d   1      46.435 -18.498  41.531  0.00  0.00     0.115 A 
ATOM      4  S   UNL d   1      46.526 -17.751  41.878  0.00  0.00    -0.068 SA
ATOM      5  C   UNL d   1      46.147 -18.585  42.856  0.00  0.00     0.011 A 
ATOM      6  C   UNL d   1      46.350 -17.804  42.682  0.00  0.00     0.031 A 
ATOM      7  N   UNL d   1      46.146 -20.136  41.222  0.00  0.00    -0.206 NA
ATOM      8  N   UNL d   1      46.530 -18.780  40.769  0.00  0.00    -0.217 NA
ATOM      9  C   UNL d   1      46.394 -19.594  40.578  0.00  0.00     0.201 A 
ATOM     10  C   UNL d   1      45.945 -18.785  43.634  0.00  0.00     0.001 A 
ATOM     11  C   UNL d   1      46.355 -17.216  43.281  0.00  0.00     0.006 A 
ATOM     12  C   UNL d   1      45.941 -18.206  44.266  0.00  0.00     0.000 A 
ATOM     13  C   UNL d   1      46.148 -17.442  44.057  0.00  0.00     0.001 A 
ENDROOT
BRANCH   1  14
ATOM     14  N   UNL d   1      45.866 -19.958  42.786  0.00  0.00    -0.273 N 
ATOM     15  C   UNL d   1      46.637 -20.039  43.138  0.00  0.00     0.184 A 
ATOM     16  N   UNL d   1      46.547 -20.186  43.936  0.00  0.00    -0.224 NA
ATOM     17  C   UNL d   1      45.748 -20.200  44.098  0.00  0.00     0.099 A 
ATOM     18  C   UNL d   1      45.292 -20.059  43.390  0.00  0.00     0.085 A 
ATOM     19  C   UNL d   1      45.340 -20.323  44.799  0.00  0.00     0.021 A 
ATOM     20  C   UNL d   1      44.484 -20.045  43.407  0.00  0.00     0.019 A 
ATOM     21  C   UNL d   1      44.091 -20.171  44.124  0.00  0.00     0.002 A 
ATOM     22  C   UNL d   1      44.524 -20.306  44.802  0.00  0.00     0.002 A 
ENDBRANCH   1  14
TORSDOF 1
ENDMDL
MODEL 2
REMARK VINA RESULT:      34.4      4.409      5.731
REMARK  1 active torsions:
REMARK  status: ('A' for Active; 'I' for Inactive)
REMARK    1  A    between atoms: C_2  and  N_1 
ROOT
ATOM      1  C   UNL d   1      45.971 -13.345  43.009  0.00  0.00     0.153 A 
ATOM      2  C   UNL d   1      45.218 -13.163  43.271  0.00  0.00     0.059 A 
ATOM      3  C   UNL d   1      44.789 -12.516  42.897  0.00  0.00     0.115 A 
ATOM      4  S   UNL d   1      44.057 -12.476  43.283  0.00  0.00    -0.068 SA
ATOM      5  C   UNL d   1      44.737 -13.480  43.854  0.00  0.00     0.011 A 
ATOM      6  C   UNL d   1      44.026 -13.061  43.864  0.00  0.00     0.031 A 
ATOM      7  N   UNL d   1      46.349 -12.921  42.383  0.00  0.00    -0.206 NA
ATOM      8  N   UNL d   1      45.129 -12.088  42.289  0.00  0.00    -0.217 NA
ATOM      9  C   UNL d   1      45.908 -12.263  42.006  0.00  0.00     0.201 A 
ATOM     10  C   UNL d   1      44.845 -14.102  44.390  0.00  0.00     0.001 A 
ATOM     11  C   UNL d   1      43.416 -13.258  44.406  0.00  0.00     0.006 A 
ATOM     12  C   UNL d   1      44.241 -14.326  44.955  0.00  0.00     0.000 A 
ATOM     13  C   UNL d   1      43.549 -13.889  44.936  0.00  0.00     0.001 A 
ENDROOT
BRANCH   1  14
ATOM     14  N   UNL d   1      46.025 -13.952  43.562  0.00  0.00    -0.273 N 
ATOM     15  C   UNL d   1      46.225 -13.522  44.270  0.00  0.00     0.184 A 
ATOM     16  N   UNL d   1      46.301 -14.053  44.886  0.00  0.00    -0.224 NA
ATOM     17  C   UNL d   1      46.157 -14.799  44.590  0.00  0.00     0.099 A 
ATOM     18  C   UNL d   1      45.979 -14.768  43.756  0.00  0.00     0.085 A 
ATOM     19  C   UNL d   1      46.156 -15.535  44.954  0.00  0.00     0.021 A 
ATOM     20  C   UNL d   1      45.816 -15.438  43.335  0.00  0.00     0.019 A 
ATOM     21  C   UNL d   1      45.820 -16.170  43.721  0.00  0.00     0.002 A 
ATOM     22  C   UNL d   1      45.989 -16.204  44.518  0.00  0.00     0.002 A 
ENDBRANCH   1  14
TORSDOF 1
ENDMDL
MODEL 3
REMARK VINA RESULT:      35.7      1.462      2.977
REMARK  1 active torsions:
REMARK  status: ('A' for Active; 'I' for Inactive)
REMARK    1  A    between atoms: C_2  and  N_1 
ROOT
ATOM      1  C   UNL d   1      45.635 -17.541  43.044  0.00  0.00     0.153 A 
ATOM      2  C   UNL d   1      45.924 -17.961  43.682  0.00  0.00     0.059 A 
ATOM      3  C   UNL d   1      46.063 -17.550  44.426  0.00  0.00     0.115 A 
ATOM      4  S   UNL d   1      46.351 -18.122  44.952  0.00  0.00    -0.068 SA
ATOM      5  C   UNL d   1      46.131 -18.747  43.788  0.00  0.00     0.011 A 
ATOM      6  C   UNL d   1      46.392 -18.848  44.564  0.00  0.00     0.031 A 
ATOM      7  N   UNL d   1      45.464 -16.714  43.083  0.00  0.00    -0.206 NA
ATOM      8  N   UNL d   1      45.907 -16.750  44.495  0.00  0.00    -0.217 NA
ATOM      9  C   UNL d   1      45.606 -16.300  43.843  0.00  0.00     0.201 A 
ATOM     10  C   UNL d   1      46.119 -19.400  43.278  0.00  0.00     0.001 A 
ATOM     11  C   UNL d   1      46.644 -19.600  44.840  0.00  0.00     0.006 A 
ATOM     12  C   UNL d   1      46.369 -20.180  43.532  0.00  0.00     0.000 A 
ATOM     13  C   UNL d   1      46.622 -20.242  44.308  0.00  0.00     0.001 A 
ENDROOT
BRANCH   1  14
ATOM     14  N   UNL d   1      45.643 -18.222  42.581  0.00  0.00    -0.273 N 
ATOM     15  C   UNL d   1      45.066 -18.706  42.980  0.00  0.00     0.184 A 
ATOM     16  N   UNL d   1      45.005 -19.418  42.585  0.00  0.00    -0.224 NA
ATOM     17  C   UNL d   1      45.521 -19.398  41.954  0.00  0.00     0.099 A 
ATOM     18  C   UNL d   1      45.939 -18.654  41.926  0.00  0.00     0.085 A 
ATOM     19  C   UNL d   1      45.690 -19.954  41.374  0.00  0.00     0.021 A 
ATOM     20  C   UNL d   1      46.484 -18.500  41.349  0.00  0.00     0.019 A 
ATOM     21  C   UNL d   1      46.639 -19.074  40.774  0.00  0.00     0.002 A 
ATOM     22  C   UNL d   1      46.241 -19.786  40.798  0.00  0.00     0.002 A 
ENDBRANCH   1  14
TORSDOF 1
ENDMDL
