MODEL 1
REMARK VINA RESULT:      65.8      0.000      0.000
REMARK  5 active torsions:
REMARK  status: ('A' for Active; 'I' for Inactive)
REMARK    1  A    between atoms: C_12  and  N_3 
REMARK    2  A    between atoms: C_10  and  N_7 
REMARK    3  A    between atoms: C_11  and  C_10 
REMARK    4  A    between atoms: C_14  and  C_11 
REMARK    5  A    between atoms: C_19  and  C_12 
ROOT
ATOM      1  C   UNL d   1     -55.868-100.181 -43.513  0.00  0.00     0.191 A 
ATOM      2  C   UNL d   1     -55.643-100.962 -43.698  0.00  0.00     0.196 A 
ATOM      3  N   UNL d   1     -56.230 -99.860 -44.190  0.00  0.00    -0.191 N 
ATOM      4  N   UNL d   1     -55.715 -99.880 -42.769  0.00  0.00    -0.204 NA
ATOM      5  N   UNL d   1     -55.870-101.107 -44.484  0.00  0.00    -0.122 NA
ATOM      6  N   UNL d   1     -56.223-100.435 -44.771  0.00  0.00    -0.058 NA
ATOM      7  N   UNL d   1     -55.113-101.120 -42.380  0.00  0.00    -0.251 N 
ATOM      8  C   UNL d   1     -55.270-101.420 -43.133  0.00  0.00     0.289 A 
ATOM      9  C   UNL d   1     -55.339-100.339 -42.196  0.00  0.00     0.187 A 
ATOM     10  O   UNL d   1     -55.045-102.201 -43.317  0.00  0.00    -0.265 OA
ENDROOT
BRANCH   7  11
ATOM     11  C   UNL d   1     -54.734-101.580 -41.800  0.00  0.00     0.127 C 
BRANCH  11  12
ATOM     12  C   UNL d   1     -55.128-102.224 -41.448  0.00  0.00     0.213 C 
ATOM     13  O   UNL d   1     -55.472-102.805 -41.925  0.00  0.00    -0.285 OA
BRANCH  12  14
ATOM     14  C   UNL d   1     -55.168-102.276 -40.630  0.00  0.00     0.041 A 
ATOM     15  C   UNL d   1     -55.668-102.832 -40.274  0.00  0.00     0.004 A 
ATOM     16  C   UNL d   1     -55.706-102.880 -39.462  0.00  0.00     0.011 A 
ATOM     17  C   UNL d   1     -55.249-102.377 -38.992  0.00  0.00     0.058 A 
ATOM     18  C   UNL d   1     -54.749-101.820 -39.348  0.00  0.00     0.011 A 
ATOM     19 CL   UNL d   1     -55.288-102.427 -38.161  0.00  0.00    -0.082 Cl
ATOM     20  C   UNL d   1     -54.712-101.773 -40.160  0.00  0.00     0.004 A 
ENDBRANCH  12  14
ENDBRANCH  11  12
ENDBRANCH   7  11
BRANCH   3  21
ATOM     21  C   UNL d   1     -56.545 -99.088 -44.265  0.00  0.00     0.104 C 
BRANCH  21  22
ATOM     22  C   UNL d   1     -57.305 -98.981 -44.588  0.00  0.00     0.019 A 
ATOM     23  C   UNL d   1     -57.411 -98.948 -45.406  0.00  0.00     0.002 A 
ATOM     24  C   UNL d   1     -58.160 -98.843 -45.702  0.00  0.00     0.000 A 
ATOM     25  C   UNL d   1     -58.808 -98.769 -45.214  0.00  0.00     0.000 A 
ATOM     26  C   UNL d   1     -58.698 -98.802 -44.374  0.00  0.00     0.000 A 
ATOM     27  C   UNL d   1     -57.943 -98.909 -44.073  0.00  0.00     0.002 A 
ENDBRANCH  21  22
ENDBRANCH   3  21
TORSDOF 5
ENDMDL
MODEL 2
REMARK VINA RESULT:      66.3      1.875      4.937
REMARK  5 active torsions:
REMARK  status: ('A' for Active; 'I' for Inactive)
REMARK    1  A    between atoms: C_12  and  N_3 
REMARK    2  A    between atoms: C_10  and  N_7 
REMARK    3  A    between atoms: C_11  and  C_10 
REMARK    4  A    between atoms: C_14  and  C_11 
REMARK    5  A    between atoms: C_19  and  C_12 
ROOT
ATOM      1  C   UNL d   1     -54.830-101.430 -42.665  0.00  0.00     0.191 A 
ATOM      2  C   UNL d   1     -54.791-101.971 -43.298  0.00  0.00     0.196 A 
ATOM      3  N   UNL d   1     -54.802-101.870 -41.960  0.00  0.00    -0.191 N 
ATOM      4  N   UNL d   1     -54.884-100.629 -42.819  0.00  0.00    -0.204 NA
ATOM      5  N   UNL d   1     -54.740-102.733 -42.970  0.00  0.00    -0.122 NA
ATOM      6  N   UNL d   1     -54.748-102.660 -42.162  0.00  0.00    -0.058 NA
ATOM      7  N   UNL d   1     -54.861-100.888 -44.228  0.00  0.00    -0.251 N 
ATOM      8  C   UNL d   1     -54.807-101.696 -44.067  0.00  0.00     0.289 A 
ATOM      9  C   UNL d   1     -54.900-100.347 -43.595  0.00  0.00     0.187 A 
ATOM     10  O   UNL d   1     -54.768-102.237 -44.701  0.00  0.00    -0.265 OA
ENDROOT
BRANCH   7  11
ATOM     11  C   UNL d   1     -54.878-100.601 -45.008  0.00  0.00     0.127 C 
BRANCH  11  12
ATOM     12  C   UNL d   1     -55.178 -99.841 -45.172  0.00  0.00     0.213 C 
ATOM     13  O   UNL d   1     -54.718 -99.302 -45.597  0.00  0.00    -0.285 OA
BRANCH  12  14
ATOM     14  C   UNL d   1     -55.928 -99.637 -44.910  0.00  0.00     0.041 A 
ATOM     15  C   UNL d   1     -56.027 -98.993 -44.399  0.00  0.00     0.004 A 
ATOM     16  C   UNL d   1     -56.773 -98.793 -44.141  0.00  0.00     0.011 A 
ATOM     17  C   UNL d   1     -57.431 -99.229 -44.385  0.00  0.00     0.058 A 
ATOM     18  C   UNL d   1     -57.333 -99.873 -44.896  0.00  0.00     0.011 A 
ATOM     19 CL   UNL d   1     -58.194 -99.024 -44.120  0.00  0.00    -0.082 Cl
ATOM     20  C   UNL d   1     -56.586-100.072 -45.154  0.00  0.00     0.004 A 
ENDBRANCH  12  14
ENDBRANCH  11  12
ENDBRANCH   7  11
BRANCH   3  21
ATOM     21  C   UNL d   1     -54.826-101.562 -41.182  0.00  0.00     0.104 C 
BRANCH  21  22
ATOM     22  C   UNL d   1     -55.193-101.998 -40.575  0.00  0.00     0.019 A 
ATOM     23  C   UNL d   1     -56.010-102.107 -40.572  0.00  0.00     0.002 A 
ATOM     24  C   UNL d   1     -56.349-102.535 -39.972  0.00  0.00     0.000 A 
ATOM     25  C   UNL d   1     -55.904-102.861 -39.372  0.00  0.00     0.000 A 
ATOM     26  C   UNL d   1     -55.063-102.749 -39.376  0.00  0.00     0.000 A 
ATOM     27  C   UNL d   1     -54.719-102.317 -39.981  0.00  0.00     0.002 A 
ENDBRANCH  21  22
ENDBRANCH   3  21
TORSDOF 5
ENDMDL
