MODEL 1
REMARK VINA RESULT:      68.9      0.000      0.000
REMARK  11 active torsions:
REMARK  status: ('A' for Active; 'I' for Inactive)
REMARK    1  A    between atoms: N_2  and  S_1 
REMARK    2  A    between atoms: C_4  and  S_1 
REMARK    3  A    between atoms: C_22  and  N_2 
REMARK    4  A    between atoms: C_3  and  C_8 
REMARK       I    between atoms: N_16  and  C_3 
REMARK    5  A    between atoms: O_28  and  C_7 
REMARK    6  A    between atoms: C_9  and  C_10 
REMARK    7  A    between atoms: O_29  and  C_11 
REMARK    8  A    between atoms: C_30  and  N_16 
REMARK    9  A    between atoms: C_24  and  C_22 
REMARK   10  A    between atoms: C_23  and  C_34 
REMARK   11  A    between atoms: C_34  and  C_30 
ROOT
ATOM      1  C   UNL d   1     -55.280-102.385 -41.317  0.00  0.00     0.058 A 
ATOM      2  C   UNL d   1     -54.719-102.572 -40.751  0.00  0.00     0.005 A 
ATOM      3  C   UNL d   1     -56.084-102.358 -41.098  0.00  0.00     0.005 A 
ATOM      4  C   UNL d   1     -55.738-102.706 -39.754  0.00  0.00     0.020 A 
ATOM      5  C   UNL d   1     -54.941-102.734 -39.970  0.00  0.00     0.002 A 
ATOM      6  C   UNL d   1     -56.306-102.519 -40.316  0.00  0.00     0.002 A 
ENDROOT
BRANCH   1   7
ATOM      7  C   UNL d   1     -55.063-102.225 -42.091  0.00  0.00     0.279 C 
ATOM      8  O   UNL d   1     -54.810-102.843 -42.583  0.00  0.00    -0.265 OA
ATOM      9  N   UNL d   1     -55.097-101.457 -42.380  0.00  0.00    -0.206 NA
BRANCH   9  10
ATOM     10  C   UNL d   1     -54.877-101.301 -43.160  0.00  0.00     0.102 C 
BRANCH  10  11
ATOM     11  C   UNL d   1     -55.413-101.442 -43.760  0.00  0.00     0.021 C 
BRANCH  11  12
ATOM     12  C   UNL d   1     -55.881-100.835 -44.032  0.00  0.00     0.004 A 
ATOM     13  C   UNL d   1     -55.570-100.249 -44.521  0.00  0.00     0.026 A 
ATOM     14  C   UNL d   1     -56.047 -99.643 -44.789  0.00  0.00     0.116 A 
ATOM     15  C   UNL d   1     -56.850 -99.616 -44.567  0.00  0.00     0.116 A 
ATOM     16  C   UNL d   1     -57.160-100.193 -44.085  0.00  0.00     0.026 A 
ATOM     17  C   UNL d   1     -56.677-100.807 -43.813  0.00  0.00     0.002 A 
BRANCH  14  18
ATOM     18  O   UNL d   1     -55.732 -99.057 -45.280  0.00  0.00    -0.326 OA
ATOM     19  C   UNL d   1     -54.903 -98.965 -45.539  0.00  0.00     0.181 C 
ENDBRANCH  14  18
BRANCH  15  20
ATOM     20  O   UNL d   1     -57.338 -99.021 -44.824  0.00  0.00    -0.326 OA
ATOM     21  C   UNL d   1     -57.312 -98.773 -45.596  0.00  0.00     0.181 C 
ENDBRANCH  15  20
ENDBRANCH  11  12
ENDBRANCH  10  11
ENDBRANCH   9  10
ENDBRANCH   1   7
BRANCH   4  22
ATOM     22  C   UNL d   1     -55.960-102.867 -38.973  0.00  0.00     0.112 C 
BRANCH  22  23
ATOM     23  N   UNL d   1     -55.401-102.854 -38.373  0.00  0.00    -0.157 NA
BRANCH  23  24
ATOM     24  S   UNL d   1     -55.318-102.196 -37.880  0.00  0.00     0.285 S 
ATOM     25  O   UNL d   1     -55.246-102.688 -37.229  0.00  0.00    -0.198 OA
ATOM     26  O   UNL d   1     -55.391-101.705 -38.543  0.00  0.00    -0.198 OA
BRANCH  24  27
ATOM     27  C   UNL d   1     -55.237-101.534 -37.403  0.00  0.00     0.105 A 
ATOM     28  C   UNL d   1     -54.805-100.890 -37.682  0.00  0.00     0.013 A 
ATOM     29  C   UNL d   1     -54.718-100.213 -37.204  0.00  0.00    -0.004 A 
ATOM     30  C   UNL d   1     -55.068-100.196 -36.451  0.00  0.00    -0.023 A 
ATOM     31  C   UNL d   1     -55.497-100.842 -36.179  0.00  0.00    -0.004 A 
ATOM     32  C   UNL d   1     -55.580-101.511 -36.658  0.00  0.00     0.013 A 
BRANCH  30  33
ATOM     33  C   UNL d   1     -54.983 -99.526 -35.975  0.00  0.00     0.019 C 
ATOM     34  C   UNL d   1     -55.228 -99.961 -35.319  0.00  0.00     0.004 C 
ATOM     35  C   UNL d   1     -54.739 -99.100 -36.635  0.00  0.00     0.004 C 
ATOM     36  C   UNL d   1     -54.899 -98.861 -35.499  0.00  0.00     0.004 C 
ENDBRANCH  30  33
ENDBRANCH  24  27
ENDBRANCH  23  24
ENDBRANCH  22  23
ENDBRANCH   4  22
TORSDOF 11
ENDMDL
