MODEL 1
REMARK VINA RESULT:      54.9      0.000      0.000
REMARK  5 active torsions:
REMARK  status: ('A' for Active; 'I' for Inactive)
REMARK    1  A    between atoms: C_3  and  C_1 
REMARK    2  A    between atoms: N_4  and  C_3 
REMARK    3  A    between atoms: C_6  and  C_3 
REMARK    4  A    between atoms: C_21  and  N_9 
REMARK    5  A    between atoms: C_25  and  C_21 
ROOT
ATOM      1  C   UNL d   1     -58.324 -99.059 -44.580  0.00  0.00     0.073 C 
ENDROOT
BRANCH   1   2
ATOM      2  C   UNL d   1     -58.724 -98.990 -45.310  0.00  0.00     0.057 A 
ATOM      3  C   UNL d   1     -58.318 -98.962 -46.028  0.00  0.00     0.214 A 
ATOM      4  C   UNL d   1     -58.718 -98.894 -46.740  0.00  0.00     0.120 A 
ATOM      5  O   UNL d   1     -57.500 -99.002 -46.027  0.00  0.00    -0.285 OA
ATOM      6  N   UNL d   1     -58.313 -98.868 -47.436  0.00  0.00    -0.241 NA
ATOM      7  C   UNL d   1     -59.543 -98.853 -46.740  0.00  0.00     0.021 A 
ATOM      8  C   UNL d   1     -58.712 -98.800 -48.150  0.00  0.00     0.099 A 
ATOM      9  C   UNL d   1     -59.537 -98.759 -48.151  0.00  0.00     0.021 A 
ATOM     10  C   UNL d   1     -59.954 -98.786 -47.437  0.00  0.00     0.003 A 
ATOM     11  C   UNL d   1     -59.959 -98.881 -46.029  0.00  0.00     0.002 A 
ATOM     12  C   UNL d   1     -59.549 -98.949 -45.310  0.00  0.00     0.005 A 
ENDBRANCH   1   2
BRANCH   1  13
ATOM     13  N   UNL d   1     -57.523 -99.227 -44.582  0.00  0.00    -0.301 N 
ATOM     14  C   UNL d   1     -56.996 -98.756 -44.149  0.00  0.00     0.100 A 
ATOM     15  C   UNL d   1     -56.193 -98.912 -44.143  0.00  0.00     0.100 A 
ATOM     16  N   UNL d   1     -55.900 -99.568 -44.587  0.00  0.00    -0.297 N 
ATOM     17  C   UNL d   1     -56.409-100.040 -45.018  0.00  0.00     0.100 A 
ATOM     18  C   UNL d   1     -57.231 -99.868 -45.016  0.00  0.00     0.100 A 
BRANCH  16  19
ATOM     19  C   UNL d   1     -55.096 -99.736 -44.589  0.00  0.00     0.126 C 
BRANCH  19  20
ATOM     20  C   UNL d   1     -54.824-100.461 -44.344  0.00  0.00     0.253 C 
ATOM     21  O   UNL d   1     -54.919-101.129 -44.820  0.00  0.00    -0.281 OA
ENDBRANCH  19  20
ENDBRANCH  16  19
ENDBRANCH   1  13
BRANCH   1  22
ATOM     22  C   UNL d   1     -58.732 -98.959 -43.881  0.00  0.00     0.046 A 
ATOM     23  S   UNL d   1     -59.550 -98.960 -43.865  0.00  0.00    -0.085 SA
ATOM     24  C   UNL d   1     -59.778 -98.850 -43.104  0.00  0.00     0.035 A 
ATOM     25  C   UNL d   1     -59.111 -98.780 -42.631  0.00  0.00     0.007 A 
ATOM     26  C   UNL d   1     -58.455 -98.847 -43.108  0.00  0.00     0.009 A 
ENDBRANCH   1  22
TORSDOF 5
ENDMDL
