MODEL 1
REMARK VINA RESULT:      -3.2      0.000      0.000
REMARK  3 active torsions:
REMARK  status: ('A' for Active; 'I' for Inactive)
REMARK    1  A    between atoms: C_3  and  C_1 
REMARK    2  A    between atoms: C_5  and  C_3 
REMARK    3  A    between atoms: C_10  and  C_5 
ROOT
ATOM      1  C   UNL d   1      31.348  16.878 -24.568  0.00  0.00     0.109 C 
ATOM      2  C   UNL d   1      31.981  16.367 -24.703  0.00  0.00     0.105 C 
ATOM      3  N   UNL d   1      32.608  15.852 -24.836  0.00  0.00    -0.191 NA
ENDROOT
BRANCH   1   4
ATOM      4  C   UNL d   1      30.654  16.589 -24.226  0.00  0.00     0.192 A 
ATOM      5  N   UNL d   1      30.607  16.115 -23.542  0.00  0.00    -0.220 NA
ATOM      6  C   UNL d   1      29.813  15.957 -23.401  0.00  0.00     0.106 A 
ATOM      7  C   UNL d   1      29.436  15.518 -22.805  0.00  0.00     0.021 A 
ATOM      8  C   UNL d   1      29.365  16.326 -23.988  0.00  0.00     0.119 A 
ATOM      9  C   UNL d   1      28.610  15.453 -22.803  0.00  0.00     0.002 A 
ATOM     10  C   UNL d   1      28.160  15.821 -23.388  0.00  0.00     0.002 A 
ATOM     11  C   UNL d   1      28.530  16.258 -23.981  0.00  0.00     0.026 A 
ATOM     12  O   UNL d   1      29.886  16.716 -24.496  0.00  0.00    -0.287 OA
ENDBRANCH   1   4
BRANCH   1  13
ATOM     13  C   UNL d   1      31.408  17.669 -24.772  0.00  0.00     0.014 C 
BRANCH  13  14
ATOM     14  C   UNL d   1      32.019  18.128 -24.461  0.00  0.00     0.004 A 
ATOM     15  C   UNL d   1      32.057  18.263 -23.651  0.00  0.00     0.042 A 
ATOM     16  C   UNL d   1      32.670  18.722 -23.343  0.00  0.00     0.196 A 
ATOM     17  O   UNL d   1      32.714  18.862 -22.528  0.00  0.00    -0.287 OA
ATOM     18  C   UNL d   1      33.241  19.046 -23.840  0.00  0.00     0.042 A 
ATOM     19  C   UNL d   1      33.195  18.905 -24.660  0.00  0.00     0.003 A 
ATOM     20  C   UNL d   1      32.584  18.446 -24.971  0.00  0.00     0.000 A 
ENDBRANCH  13  14
ENDBRANCH   1  13
TORSDOF 3
ENDMDL
MODEL 2
REMARK VINA RESULT:      -3.2      1.186      3.939
REMARK  3 active torsions:
REMARK  status: ('A' for Active; 'I' for Inactive)
REMARK    1  A    between atoms: C_3  and  C_1 
REMARK    2  A    between atoms: C_5  and  C_3 
REMARK    3  A    between atoms: C_10  and  C_5 
ROOT
ATOM      1  C   UNL d   1      31.670  16.620 -23.999  0.00  0.00     0.109 C 
ATOM      2  C   UNL d   1      31.983  16.034 -24.488  0.00  0.00     0.105 C 
ATOM      3  N   UNL d   1      32.300  15.455 -24.977  0.00  0.00    -0.191 NA
ENDROOT
BRANCH   1   4
ATOM      4  C   UNL d   1      32.037  17.359 -23.958  0.00  0.00     0.192 A 
ATOM      5  N   UNL d   1      32.258  17.756 -23.259  0.00  0.00    -0.220 NA
ATOM      6  C   UNL d   1      32.604  18.470 -23.475  0.00  0.00     0.106 A 
ATOM      7  C   UNL d   1      32.925  19.087 -23.020  0.00  0.00     0.021 A 
ATOM      8  C   UNL d   1      32.600  18.522 -24.299  0.00  0.00     0.119 A 
ATOM      9  C   UNL d   1      33.240  19.753 -23.398  0.00  0.00     0.002 A 
ATOM     10  C   UNL d   1      33.239  19.808 -24.221  0.00  0.00     0.002 A 
ATOM     11  C   UNL d   1      32.921  19.199 -24.676  0.00  0.00     0.026 A 
ATOM     12  O   UNL d   1      32.250  17.836 -24.595  0.00  0.00    -0.287 OA
ENDBRANCH   1   4
BRANCH   1  13
ATOM     13  C   UNL d   1      30.998  16.470 -23.555  0.00  0.00     0.014 C 
BRANCH  13  14
ATOM     14  C   UNL d   1      30.276  16.341 -23.935  0.00  0.00     0.004 A 
ATOM     15  C   UNL d   1      29.758  16.970 -24.050  0.00  0.00     0.042 A 
ATOM     16  C   UNL d   1      29.038  16.837 -24.430  0.00  0.00     0.196 A 
ATOM     17  O   UNL d   1      28.511  17.465 -24.550  0.00  0.00    -0.287 OA
ATOM     18  C   UNL d   1      28.834  16.084 -24.693  0.00  0.00     0.042 A 
ATOM     19  C   UNL d   1      29.364  15.453 -24.572  0.00  0.00     0.003 A 
ATOM     20  C   UNL d   1      30.086  15.582 -24.192  0.00  0.00     0.000 A 
ENDBRANCH  13  14
ENDBRANCH   1  13
TORSDOF 3
ENDMDL
MODEL 3
REMARK VINA RESULT:      -2.6      1.322      4.156
REMARK  3 active torsions:
REMARK  status: ('A' for Active; 'I' for Inactive)
REMARK    1  A    between atoms: C_3  and  C_1 
REMARK    2  A    between atoms: C_5  and  C_3 
REMARK    3  A    between atoms: C_10  and  C_5 
ROOT
ATOM      1  C   UNL d   1      30.009  17.234 -24.738  0.00  0.00     0.109 C 
ATOM      2  C   UNL d   1      29.390  17.753 -24.903  0.00  0.00     0.105 C 
ATOM      3  N   UNL d   1      28.777  18.275 -25.067  0.00  0.00    -0.191 NA
ENDROOT
BRANCH   1   4
ATOM      4  C   UNL d   1      30.764  17.532 -24.584  0.00  0.00     0.192 A 
ATOM      5  N   UNL d   1      31.213  18.012 -25.097  0.00  0.00    -0.220 NA
ATOM      6  C   UNL d   1      31.926  18.180 -24.723  0.00  0.00     0.106 A 
ATOM      7  C   UNL d   1      32.583  18.628 -24.965  0.00  0.00     0.021 A 
ATOM      8  C   UNL d   1      31.926  17.811 -23.985  0.00  0.00     0.119 A 
ATOM      9  C   UNL d   1      33.236  18.701 -24.461  0.00  0.00     0.002 A 
ATOM     10  C   UNL d   1      33.240  18.333 -23.723  0.00  0.00     0.002 A 
ATOM     11  C   UNL d   1      32.590  17.889 -23.480  0.00  0.00     0.026 A 
ATOM     12  O   UNL d   1      31.208  17.412 -23.901  0.00  0.00    -0.287 OA
ENDBRANCH   1   4
BRANCH   1  13
ATOM     13  C   UNL d   1      29.877  16.425 -24.726  0.00  0.00     0.014 C 
BRANCH  13  14
ATOM     14  C   UNL d   1      29.324  16.107 -24.203  0.00  0.00     0.004 A 
ATOM     15  C   UNL d   1      29.543  15.943 -23.427  0.00  0.00     0.042 A 
ATOM     16  C   UNL d   1      28.988  15.625 -22.907  0.00  0.00     0.196 A 
ATOM     17  O   UNL d   1      29.202  15.457 -22.125  0.00  0.00    -0.287 OA
ATOM     18  C   UNL d   1      28.219  15.472 -23.156  0.00  0.00     0.042 A 
ATOM     19  C   UNL d   1      28.004  15.641 -23.944  0.00  0.00     0.003 A 
ATOM     20  C   UNL d   1      28.557  15.959 -24.467  0.00  0.00     0.000 A 
ENDBRANCH  13  14
ENDBRANCH   1  13
TORSDOF 3
ENDMDL
MODEL 4
REMARK VINA RESULT:      -2.6      2.181      4.594
REMARK  3 active torsions:
REMARK  status: ('A' for Active; 'I' for Inactive)
REMARK    1  A    between atoms: C_3  and  C_1 
REMARK    2  A    between atoms: C_5  and  C_3 
REMARK    3  A    between atoms: C_10  and  C_5 
ROOT
ATOM      1  C   UNL d   1      33.118  18.682 -23.471  0.00  0.00     0.109 C 
ATOM      2  C   UNL d   1      33.179  18.859 -24.274  0.00  0.00     0.105 C 
ATOM      3  N   UNL d   1      33.241  19.041 -25.073  0.00  0.00    -0.191 NA
ENDROOT
BRANCH   1   4
ATOM      4  C   UNL d   1      33.141  19.292 -22.914  0.00  0.00     0.192 A 
ATOM      5  N   UNL d   1      33.153  20.108 -23.084  0.00  0.00    -0.220 NA
ATOM      6  C   UNL d   1      33.175  20.513 -22.369  0.00  0.00     0.106 A 
ATOM      7  C   UNL d   1      33.194  21.326 -22.196  0.00  0.00     0.021 A 
ATOM      8  C   UNL d   1      33.178  19.960 -21.757  0.00  0.00     0.119 A 
ATOM      9  C   UNL d   1      33.216  21.576 -21.407  0.00  0.00     0.002 A 
ATOM     10  C   UNL d   1      33.218  21.026 -20.792  0.00  0.00     0.002 A 
ATOM     11  C   UNL d   1      33.199  20.219 -20.960  0.00  0.00     0.026 A 
ATOM     12  O   UNL d   1      33.156  19.207 -22.095  0.00  0.00    -0.287 OA
ENDBRANCH   1   4
BRANCH   1  13
ATOM     13  C   UNL d   1      33.034  17.905 -23.225  0.00  0.00     0.014 C 
BRANCH  13  14
ATOM     14  C   UNL d   1      32.485  17.414 -23.597  0.00  0.00     0.004 A 
ATOM     15  C   UNL d   1      32.741  16.737 -23.988  0.00  0.00     0.042 A 
ATOM     16  C   UNL d   1      32.188  16.249 -24.358  0.00  0.00     0.196 A 
ATOM     17  O   UNL d   1      32.439  15.566 -24.753  0.00  0.00    -0.287 OA
ATOM     18  C   UNL d   1      31.386  16.433 -24.340  0.00  0.00     0.042 A 
ATOM     19  C   UNL d   1      31.136  17.120 -23.941  0.00  0.00     0.003 A 
ATOM     20  C   UNL d   1      31.685  17.611 -23.570  0.00  0.00     0.000 A 
ENDBRANCH  13  14
ENDBRANCH   1  13
TORSDOF 3
ENDMDL
MODEL 5
REMARK VINA RESULT:      -2.3      1.549      2.262
REMARK  3 active torsions:
REMARK  status: ('A' for Active; 'I' for Inactive)
REMARK    1  A    between atoms: C_3  and  C_1 
REMARK    2  A    between atoms: C_5  and  C_3 
REMARK    3  A    between atoms: C_10  and  C_5 
ROOT
ATOM      1  C   UNL d   1      32.640  18.439 -23.891  0.00  0.00     0.109 C 
ATOM      2  C   UNL d   1      32.711  18.997 -24.493  0.00  0.00     0.105 C 
ATOM      3  N   UNL d   1      32.778  19.551 -25.097  0.00  0.00    -0.191 NA
ENDROOT
BRANCH   1   4
ATOM      4  C   UNL d   1      32.053  17.859 -23.937  0.00  0.00     0.192 A 
ATOM      5  N   UNL d   1      32.135  17.061 -23.710  0.00  0.00    -0.220 NA
ATOM      6  C   UNL d   1      31.418  16.685 -23.850  0.00  0.00     0.106 A 
ATOM      7  C   UNL d   1      31.175  15.899 -23.732  0.00  0.00     0.021 A 
ATOM      8  C   UNL d   1      30.890  17.238 -24.160  0.00  0.00     0.119 A 
ATOM      9  C   UNL d   1      30.403  15.675 -23.928  0.00  0.00     0.002 A 
ATOM     10  C   UNL d   1      29.872  16.226 -24.238  0.00  0.00     0.002 A 
ATOM     11  C   UNL d   1      30.109  17.006 -24.356  0.00  0.00     0.026 A 
ATOM     12  O   UNL d   1      31.284  17.962 -24.213  0.00  0.00    -0.287 OA
ENDBRANCH   1   4
BRANCH   1  13
ATOM     13  C   UNL d   1      33.148  18.458 -23.248  0.00  0.00     0.014 C 
BRANCH  13  14
ATOM     14  C   UNL d   1      33.177  19.129 -22.768  0.00  0.00     0.004 A 
ATOM     15  C   UNL d   1      33.194  19.045 -21.950  0.00  0.00     0.042 A 
ATOM     16  C   UNL d   1      33.223  19.718 -21.474  0.00  0.00     0.196 A 
ATOM     17  O   UNL d   1      33.241  19.641 -20.649  0.00  0.00    -0.287 OA
ATOM     18  C   UNL d   1      33.236  20.470 -21.809  0.00  0.00     0.042 A 
ATOM     19  C   UNL d   1      33.218  20.546 -22.638  0.00  0.00     0.003 A 
ATOM     20  C   UNL d   1      33.189  19.875 -23.118  0.00  0.00     0.000 A 
ENDBRANCH  13  14
ENDBRANCH   1  13
TORSDOF 3
ENDMDL
MODEL 6
REMARK VINA RESULT:      -2.1      2.806      4.944
REMARK  3 active torsions:
REMARK  status: ('A' for Active; 'I' for Inactive)
REMARK    1  A    between atoms: C_3  and  C_1 
REMARK    2  A    between atoms: C_5  and  C_3 
REMARK    3  A    between atoms: C_10  and  C_5 
ROOT
ATOM      1  C   UNL d   1      33.145  19.716 -23.119  0.00  0.00     0.109 C 
ATOM      2  C   UNL d   1      33.193  19.935 -23.913  0.00  0.00     0.105 C 
ATOM      3  N   UNL d   1      33.239  20.160 -24.702  0.00  0.00    -0.191 NA
ENDROOT
BRANCH   1   4
ATOM      4  C   UNL d   1      33.001  20.291 -22.544  0.00  0.00     0.192 A 
ATOM      5  N   UNL d   1      33.016  21.116 -22.662  0.00  0.00    -0.220 NA
ATOM      6  C   UNL d   1      32.842  21.476 -21.944  0.00  0.00     0.106 A 
ATOM      7  C   UNL d   1      32.779  22.276 -21.729  0.00  0.00     0.021 A 
ATOM      8  C   UNL d   1      32.719  20.886 -21.380  0.00  0.00     0.119 A 
ATOM      9  C   UNL d   1      32.592  22.477 -20.948  0.00  0.00     0.002 A 
ATOM     10  C   UNL d   1      32.469  21.890 -20.382  0.00  0.00     0.002 A 
ATOM     11  C   UNL d   1      32.530  21.095 -20.591  0.00  0.00     0.026 A 
ATOM     12  O   UNL d   1      32.818  20.155 -21.752  0.00  0.00    -0.287 OA
ENDBRANCH   1   4
BRANCH   1  13
ATOM     13  C   UNL d   1      33.241  18.932 -22.902  0.00  0.00     0.014 C 
BRANCH  13  14
ATOM     14  C   UNL d   1      32.826  18.342 -23.303  0.00  0.00     0.004 A 
ATOM     15  C   UNL d   1      33.237  17.736 -23.678  0.00  0.00     0.042 A 
ATOM     16  C   UNL d   1      32.818  17.148 -24.077  0.00  0.00     0.196 A 
ATOM     17  O   UNL d   1      33.226  16.535 -24.457  0.00  0.00    -0.287 OA
ATOM     18  C   UNL d   1      31.996  17.162 -24.104  0.00  0.00     0.042 A 
ATOM     19  C   UNL d   1      31.587  17.780 -23.721  0.00  0.00     0.003 A 
ATOM     20  C   UNL d   1      32.002  18.370 -23.321  0.00  0.00     0.000 A 
ENDBRANCH  13  14
ENDBRANCH   1  13
TORSDOF 3
ENDMDL
MODEL 7
REMARK VINA RESULT:      -1.0      5.864      7.719
REMARK  3 active torsions:
REMARK  status: ('A' for Active; 'I' for Inactive)
REMARK    1  A    between atoms: C_3  and  C_1 
REMARK    2  A    between atoms: C_5  and  C_3 
REMARK    3  A    between atoms: C_10  and  C_5 
ROOT
ATOM      1  C   UNL d   1      32.593  22.723 -19.986  0.00  0.00     0.109 C 
ATOM      2  C   UNL d   1      31.941  22.942 -20.440  0.00  0.00     0.105 C 
ATOM      3  N   UNL d   1      31.287  23.164 -20.886  0.00  0.00    -0.191 NA
ENDROOT
BRANCH   1   4
ATOM      4  C   UNL d   1      32.592  22.863 -19.172  0.00  0.00     0.192 A 
ATOM      5  N   UNL d   1      32.061  22.533 -18.620  0.00  0.00    -0.220 NA
ATOM      6  C   UNL d   1      32.261  22.822 -17.876  0.00  0.00     0.106 A 
ATOM      7  C   UNL d   1      31.930  22.687 -17.126  0.00  0.00     0.021 A 
ATOM      8  C   UNL d   1      32.909  23.326 -17.958  0.00  0.00     0.119 A 
ATOM      9  C   UNL d   1      32.255  23.061 -16.463  0.00  0.00     0.002 A 
ATOM     10  C   UNL d   1      32.902  23.566 -16.541  0.00  0.00     0.002 A 
ATOM     11  C   UNL d   1      33.233  23.702 -17.283  0.00  0.00     0.026 A 
ATOM     12  O   UNL d   1      33.112  23.350 -18.758  0.00  0.00    -0.287 OA
ENDBRANCH   1   4
BRANCH   1  13
ATOM     13  C   UNL d   1      33.241  22.367 -20.341  0.00  0.00     0.014 C 
BRANCH  13  14
ATOM     14  C   UNL d   1      33.136  21.685 -20.794  0.00  0.00     0.004 A 
ATOM     15  C   UNL d   1      33.210  20.945 -20.443  0.00  0.00     0.042 A 
ATOM     16  C   UNL d   1      33.105  20.266 -20.899  0.00  0.00     0.196 A 
ATOM     17  O   UNL d   1      33.177  19.518 -20.552  0.00  0.00    -0.287 OA
ATOM     18  C   UNL d   1      32.928  20.323 -21.701  0.00  0.00     0.042 A 
ATOM     19  C   UNL d   1      32.856  21.076 -22.050  0.00  0.00     0.003 A 
ATOM     20  C   UNL d   1      32.960  21.758 -21.596  0.00  0.00     0.000 A 
ENDBRANCH  13  14
ENDBRANCH   1  13
TORSDOF 3
ENDMDL
