MODEL 1
REMARK VINA RESULT:      14.0      0.000      0.000
REMARK  1 active torsions:
REMARK  status: ('A' for Active; 'I' for Inactive)
REMARK    1  A    between atoms: C_4  and  C_2 
ROOT
ATOM      1  C   UNL d   1      43.552 -15.483  37.317  0.00  0.00     0.141 C 
ATOM      2  C   UNL d   1      43.453 -15.581  38.124  0.00  0.00     0.112 C 
ATOM      3  C   UNL d   1      42.901 -15.290  36.832  0.00  0.00     0.112 C 
ATOM      4  N   UNL d   1      42.240 -15.092  36.330  0.00  0.00    -0.191 NA
ATOM      5  N   UNL d   1      43.340 -15.680  38.950  0.00  0.00    -0.191 NA
ENDROOT
BRANCH   1   6
ATOM      6  C   UNL d   1      44.312 -15.579  36.991  0.00  0.00     0.079 A 
ATOM      7  C   UNL d   1      44.539 -16.210  36.547  0.00  0.00     0.281 A 
ATOM      8  N   UNL d   1      45.318 -16.104  36.330  0.00  0.00    -0.208 NA
ATOM      9  O   UNL d   1      44.038 -16.851  36.357  0.00  0.00    -0.265 OA
ATOM     10  C   UNL d   1      45.572 -15.404  36.643  0.00  0.00     0.085 A 
ATOM     11  C   UNL d   1      46.305 -15.014  36.606  0.00  0.00     0.019 A 
ATOM     12  C   UNL d   1      44.946 -15.062  37.063  0.00  0.00     0.024 A 
ATOM     13  C   UNL d   1      46.402 -14.308  36.978  0.00  0.00     0.002 A 
ATOM     14  C   UNL d   1      45.762 -13.972  37.399  0.00  0.00     0.000 A 
ATOM     15  C   UNL d   1      45.038 -14.365  37.431  0.00  0.00     0.002 A 
ENDBRANCH   1   6
TORSDOF 1
ENDMDL
MODEL 2
REMARK VINA RESULT:      14.6      6.839      7.311
REMARK  1 active torsions:
REMARK  status: ('A' for Active; 'I' for Inactive)
REMARK    1  A    between atoms: C_4  and  C_2 
ROOT
ATOM      1  C   UNL d   1      45.001 -14.960  44.337  0.00  0.00     0.141 C 
ATOM      2  C   UNL d   1      44.218 -14.847  44.551  0.00  0.00     0.112 C 
ATOM      3  C   UNL d   1      45.326 -15.728  44.314  0.00  0.00     0.112 C 
ATOM      4  N   UNL d   1      45.665 -16.510  44.289  0.00  0.00    -0.191 NA
ATOM      5  N   UNL d   1      43.415 -14.743  44.772  0.00  0.00    -0.191 NA
ENDROOT
BRANCH   1   6
ATOM      6  C   UNL d   1      45.464 -14.296  44.143  0.00  0.00     0.079 A 
ATOM      7  C   UNL d   1      46.219 -14.180  44.394  0.00  0.00     0.281 A 
ATOM      8  N   UNL d   1      46.485 -13.471  44.091  0.00  0.00    -0.208 NA
ATOM      9  O   UNL d   1      46.635 -14.715  44.884  0.00  0.00    -0.265 OA
ATOM     10  C   UNL d   1      45.889 -13.149  43.650  0.00  0.00     0.085 A 
ATOM     11  C   UNL d   1      45.842 -12.442  43.216  0.00  0.00     0.019 A 
ATOM     12  C   UNL d   1      45.239 -13.659  43.675  0.00  0.00     0.024 A 
ATOM     13  C   UNL d   1      45.166 -12.258  42.823  0.00  0.00     0.002 A 
ATOM     14  C   UNL d   1      44.514 -12.783  42.855  0.00  0.00     0.000 A 
ATOM     15  C   UNL d   1      44.569 -13.482  43.288  0.00  0.00     0.002 A 
ENDBRANCH   1   6
TORSDOF 1
ENDMDL
MODEL 3
REMARK VINA RESULT:      15.5      6.427      7.067
REMARK  1 active torsions:
REMARK  status: ('A' for Active; 'I' for Inactive)
REMARK    1  A    between atoms: C_4  and  C_2 
ROOT
ATOM      1  C   UNL d   1      46.429 -18.528  43.400  0.00  0.00     0.141 C 
ATOM      2  C   UNL d   1      46.291 -18.790  44.164  0.00  0.00     0.112 C 
ATOM      3  C   UNL d   1      46.489 -17.713  43.238  0.00  0.00     0.112 C 
ATOM      4  N   UNL d   1      46.552 -16.880  43.065  0.00  0.00    -0.191 NA
ATOM      5  N   UNL d   1      46.149 -19.047  44.951  0.00  0.00    -0.191 NA
ENDROOT
BRANCH   1   6
ATOM      6  C   UNL d   1      46.507 -19.090  42.791  0.00  0.00     0.079 A 
ATOM      7  C   UNL d   1      46.579 -19.882  42.911  0.00  0.00     0.281 A 
ATOM      8  N   UNL d   1      46.643 -20.247  42.184  0.00  0.00    -0.208 NA
ATOM      9  O   UNL d   1      46.585 -20.242  43.665  0.00  0.00    -0.265 OA
ATOM     10  C   UNL d   1      46.610 -19.675  41.614  0.00  0.00     0.085 A 
ATOM     11  C   UNL d   1      46.646 -19.718  40.785  0.00  0.00     0.019 A 
ATOM     12  C   UNL d   1      46.524 -18.941  41.983  0.00  0.00     0.024 A 
ATOM     13  C   UNL d   1      46.598 -19.046  40.347  0.00  0.00     0.002 A 
ATOM     14  C   UNL d   1      46.511 -18.308  40.732  0.00  0.00     0.000 A 
ATOM     15  C   UNL d   1      46.476 -18.275  41.555  0.00  0.00     0.002 A 
ENDBRANCH   1   6
TORSDOF 1
ENDMDL
MODEL 4
REMARK VINA RESULT:      16.2      1.256      2.585
REMARK  1 active torsions:
REMARK  status: ('A' for Active; 'I' for Inactive)
REMARK    1  A    between atoms: C_4  and  C_2 
ROOT
ATOM      1  C   UNL d   1      45.197 -14.745  37.131  0.00  0.00     0.141 C 
ATOM      2  C   UNL d   1      44.932 -14.280  37.751  0.00  0.00     0.112 C 
ATOM      3  C   UNL d   1      45.914 -14.567  36.745  0.00  0.00     0.112 C 
ATOM      4  N   UNL d   1      46.647 -14.390  36.346  0.00  0.00    -0.191 NA
ATOM      5  N   UNL d   1      44.670 -13.795  38.385  0.00  0.00    -0.191 NA
ENDROOT
BRANCH   1   6
ATOM      6  C   UNL d   1      44.738 -15.398  36.895  0.00  0.00     0.079 A 
ATOM      7  C   UNL d   1      45.027 -16.140  36.784  0.00  0.00     0.281 A 
ATOM      8  N   UNL d   1      44.411 -16.625  36.555  0.00  0.00    -0.208 NA
ATOM      9  O   UNL d   1      45.828 -16.350  36.892  0.00  0.00    -0.265 OA
ATOM     10  C   UNL d   1      43.739 -16.177  36.526  0.00  0.00     0.085 A 
ATOM     11  C   UNL d   1      42.955 -16.369  36.330  0.00  0.00     0.019 A 
ATOM     12  C   UNL d   1      43.931 -15.401  36.738  0.00  0.00     0.024 A 
ATOM     13  C   UNL d   1      42.387 -15.800  36.348  0.00  0.00     0.002 A 
ATOM     14  C   UNL d   1      42.593 -15.019  36.564  0.00  0.00     0.000 A 
ATOM     15  C   UNL d   1      43.374 -14.836  36.757  0.00  0.00     0.002 A 
ENDBRANCH   1   6
TORSDOF 1
ENDMDL
MODEL 5
REMARK VINA RESULT:      16.9      1.263      1.924
REMARK  1 active torsions:
REMARK  status: ('A' for Active; 'I' for Inactive)
REMARK    1  A    between atoms: C_4  and  C_2 
ROOT
ATOM      1  C   UNL d   1      43.861 -15.716  37.391  0.00  0.00     0.141 C 
ATOM      2  C   UNL d   1      43.233 -15.728  36.865  0.00  0.00     0.112 C 
ATOM      3  C   UNL d   1      43.960 -16.333  37.943  0.00  0.00     0.112 C 
ATOM      4  N   UNL d   1      44.069 -16.962  38.510  0.00  0.00    -0.191 NA
ATOM      5  N   UNL d   1      42.586 -15.750  36.331  0.00  0.00    -0.191 NA
ENDROOT
BRANCH   1   6
ATOM      6  C   UNL d   1      44.395 -15.079  37.364  0.00  0.00     0.079 A 
ATOM      7  C   UNL d   1      44.255 -14.355  37.686  0.00  0.00     0.281 A 
ATOM      8  N   UNL d   1      44.904 -13.881  37.547  0.00  0.00    -0.208 NA
ATOM      9  O   UNL d   1      43.551 -14.152  38.088  0.00  0.00    -0.265 OA
ATOM     10  C   UNL d   1      45.448 -14.317  37.137  0.00  0.00     0.085 A 
ATOM     11  C   UNL d   1      46.204 -14.129  36.848  0.00  0.00     0.019 A 
ATOM     12  C   UNL d   1      45.139 -15.075  37.015  0.00  0.00     0.024 A 
ATOM     13  C   UNL d   1      46.630 -14.683  36.452  0.00  0.00     0.002 A 
ATOM     14  C   UNL d   1      46.307 -15.446  36.335  0.00  0.00     0.000 A 
ATOM     15  C   UNL d   1      45.556 -15.625  36.625  0.00  0.00     0.002 A 
ENDBRANCH   1   6
TORSDOF 1
ENDMDL
