MODEL 1
REMARK VINA RESULT:      43.1      0.000      0.000
REMARK  4 active torsions:
REMARK  status: ('A' for Active; 'I' for Inactive)
REMARK    1  A    between atoms: N_4  and  S_1 
REMARK    2  A    between atoms: C_5  and  S_1 
REMARK    3  A    between atoms: C_3  and  C_9 
REMARK    4  A    between atoms: C_14  and  N_4 
ROOT
ATOM      1  S   UNL d   1      13.380  12.241  -3.537  0.00  0.00     0.285 S 
ATOM      2  O   UNL d   1      13.781  11.784  -4.091  0.00  0.00    -0.198 OA
ATOM      3  O   UNL d   1      12.890  12.784  -3.154  0.00  0.00    -0.198 OA
ENDROOT
BRANCH   1   4
ATOM      4  N   UNL d   1      12.835  12.809  -3.777  0.00  0.00    -0.158 NA
BRANCH   4   5
ATOM      5  C   UNL d   1      13.096  13.489  -4.168  0.00  0.00     0.094 A 
ATOM      6  C   UNL d   1      13.489  14.085  -3.749  0.00  0.00     0.021 A 
ATOM      7  C   UNL d   1      13.746  14.757  -4.142  0.00  0.00     0.020 A 
ATOM      8  C   UNL d   1      13.613  14.844  -4.956  0.00  0.00     0.002 A 
ATOM      9  C   UNL d   1      13.225  14.257  -5.370  0.00  0.00     0.002 A 
ATOM     10  C   UNL d   1      12.963  13.576  -4.982  0.00  0.00     0.020 A 
BRANCH   7  11
ATOM     11  C   UNL d   1      14.139  15.353  -3.724  0.00  0.00     0.088 A 
ATOM     12  N   UNL d   1      14.496  15.555  -2.355  0.00  0.00    -0.238 NA
ATOM     13  C   UNL d   1      14.850  16.288  -2.555  0.00  0.00     0.111 A 
ATOM     14  C   UNL d   1      15.202  16.749  -1.971  0.00  0.00     0.028 C 
ATOM     15  S   UNL d   1      14.850  16.555  -3.338  0.00  0.00    -0.066 SA
ATOM     16  C   UNL d   1      14.491  16.081  -3.923  0.00  0.00     0.056 A 
ENDBRANCH   7  11
ENDBRANCH   4   5
ENDBRANCH   1   4
BRANCH   1  17
ATOM     17  C   UNL d   1      13.529  12.126  -2.734  0.00  0.00     0.105 A 
ATOM     18  C   UNL d   1      14.291  12.242  -2.439  0.00  0.00     0.013 A 
ATOM     19  C   UNL d   1      14.439  12.124  -1.628  0.00  0.00     0.001 A 
ATOM     20  C   UNL d   1      15.205  12.243  -1.337  0.00  0.00     0.000 A 
ATOM     21  C   UNL d   1      13.830  11.894  -1.125  0.00  0.00     0.000 A 
ATOM     22  C   UNL d   1      15.349  12.126  -0.533  0.00  0.00     0.000 A 
ATOM     23  C   UNL d   1      14.740  11.895  -0.027  0.00  0.00     0.000 A 
ATOM     24  C   UNL d   1      13.983  11.780  -0.321  0.00  0.00     0.000 A 
ATOM     25  C   UNL d   1      13.073  11.781  -1.427  0.00  0.00     0.001 A 
ATOM     26  C   UNL d   1      12.920  11.895  -2.227  0.00  0.00     0.013 A 
ENDBRANCH   1  17
TORSDOF 4
ENDMDL
