MODEL 1
REMARK VINA RESULT:      40.5      0.000      0.000
REMARK  7 active torsions:
REMARK  status: ('A' for Active; 'I' for Inactive)
REMARK    1  A    between atoms: C_6  and  N_1 
REMARK    2  A    between atoms: C_12  and  C_6 
REMARK    3  A    between atoms: C_7  and  C_8 
REMARK    4  A    between atoms: C_22  and  C_7 
REMARK    5  A    between atoms: C_15  and  C_12 
REMARK    6  A    between atoms: O_13  and  C_15 
REMARK    7  A    between atoms: C_14  and  O_13 
ROOT
ATOM      1  C   UNL d   1      12.915  12.386  -3.500  0.00  0.00     0.238 C 
ATOM      2  O   UNL d   1      12.770  11.949  -4.186  0.00  0.00    -0.283 OA
ENDROOT
BRANCH   1   3
ATOM      3  C   UNL d   1      12.938  12.011  -2.764  0.00  0.00     0.126 C 
BRANCH   3   4
ATOM      4  N   UNL d   1      13.668  11.928  -2.372  0.00  0.00    -0.286 N 
ATOM      5  C   UNL d   1      14.406  11.846  -2.744  0.00  0.00     0.148 A 
ATOM      6  N   UNL d   1      14.985  11.780  -2.150  0.00  0.00    -0.227 NA
ATOM      7  C   UNL d   1      14.546  11.833  -3.555  0.00  0.00     0.041 C 
ATOM      8  C   UNL d   1      14.607  11.820  -1.419  0.00  0.00     0.099 A 
ATOM      9  C   UNL d   1      13.790  11.912  -1.560  0.00  0.00     0.083 A 
ATOM     10  C   UNL d   1      14.890  11.786  -0.654  0.00  0.00     0.021 A 
ATOM     11  C   UNL d   1      13.270  11.969  -0.916  0.00  0.00     0.019 A 
ATOM     12  C   UNL d   1      13.565  11.933  -0.143  0.00  0.00     0.002 A 
ATOM     13  C   UNL d   1      14.374  11.842  -0.015  0.00  0.00     0.002 A 
ENDBRANCH   3   4
ENDBRANCH   1   3
BRANCH   1  14
ATOM     14  C   UNL d   1      13.037  13.209  -3.557  0.00  0.00     0.166 C 
BRANCH  14  15
ATOM     15  O   UNL d   1      13.084  13.573  -4.325  0.00  0.00    -0.302 OA
BRANCH  15  16
ATOM     16  C   UNL d   1      13.451  14.316  -4.431  0.00  0.00     0.100 A 
ATOM     17  C   UNL d   1      13.792  14.703  -3.793  0.00  0.00     0.025 A 
ATOM     18  C   UNL d   1      14.154  15.439  -3.903  0.00  0.00     0.005 A 
ATOM     19  C   UNL d   1      14.171  15.777  -4.642  0.00  0.00     0.039 A 
ATOM     20  C   UNL d   1      13.825  15.383  -5.284  0.00  0.00     0.005 A 
ATOM     21  C   UNL d   1      13.467  14.654  -5.171  0.00  0.00     0.025 A 
BRANCH  19  22
ATOM     22  C   UNL d   1      14.530  16.510  -4.754  0.00  0.00     0.196 C 
ATOM     23  O   UNL d   1      14.383  16.945  -5.433  0.00  0.00    -0.287 OA
BRANCH  22  24
ATOM     24  C   UNL d   1      15.043  16.808  -4.178  0.00  0.00     0.042 C 
ATOM     25  C   UNL d   1      14.779  17.368  -3.646  0.00  0.00     0.003 C 
ENDBRANCH  22  24
ENDBRANCH  19  22
ENDBRANCH  15  16
ENDBRANCH  14  15
ENDBRANCH   1  14
TORSDOF 7
ENDMDL
MODEL 2
REMARK VINA RESULT:      42.2      2.463      3.460
REMARK  7 active torsions:
REMARK  status: ('A' for Active; 'I' for Inactive)
REMARK    1  A    between atoms: C_6  and  N_1 
REMARK    2  A    between atoms: C_12  and  C_6 
REMARK    3  A    between atoms: C_7  and  C_8 
REMARK    4  A    between atoms: C_22  and  C_7 
REMARK    5  A    between atoms: C_15  and  C_12 
REMARK    6  A    between atoms: O_13  and  C_15 
REMARK    7  A    between atoms: C_14  and  O_13 
ROOT
ATOM      1  C   UNL d   1      15.341  12.772  -0.689  0.00  0.00     0.238 C 
ATOM      2  O   UNL d   1      14.838  12.957  -0.060  0.00  0.00    -0.283 OA
ENDROOT
BRANCH   1   3
ATOM      3  C   UNL d   1      15.156  12.150  -1.201  0.00  0.00     0.126 C 
BRANCH   3   4
ATOM      4  N   UNL d   1      14.361  12.017  -1.410  0.00  0.00    -0.286 N 
ATOM      5  C   UNL d   1      13.738  11.890  -0.875  0.00  0.00     0.148 A 
ATOM      6  N   UNL d   1      13.041  11.782  -1.317  0.00  0.00    -0.227 NA
ATOM      7  C   UNL d   1      13.795  11.872  -0.055  0.00  0.00     0.041 C 
ATOM      8  C   UNL d   1      13.232  11.843  -2.115  0.00  0.00     0.099 A 
ATOM      9  C   UNL d   1      14.052  11.988  -2.171  0.00  0.00     0.083 A 
ATOM     10  C   UNL d   1      12.780  11.786  -2.792  0.00  0.00     0.021 A 
ATOM     11  C   UNL d   1      14.400  12.075  -2.919  0.00  0.00     0.019 A 
ATOM     12  C   UNL d   1      13.934  12.016  -3.601  0.00  0.00     0.002 A 
ATOM     13  C   UNL d   1      13.125  11.871  -3.534  0.00  0.00     0.002 A 
ENDBRANCH   3   4
ENDBRANCH   1   3
BRANCH   1  14
ATOM     14  C   UNL d   1      16.036  13.218  -0.804  0.00  0.00     0.166 C 
BRANCH  14  15
ATOM     15  O   UNL d   1      16.168  13.915  -0.334  0.00  0.00    -0.302 OA
BRANCH  15  16
ATOM     16  C   UNL d   1      15.888  14.663  -0.578  0.00  0.00     0.100 A 
ATOM     17  C   UNL d   1      15.695  15.233  -0.021  0.00  0.00     0.025 A 
ATOM     18  C   UNL d   1      15.417  15.974  -0.267  0.00  0.00     0.005 A 
ATOM     19  C   UNL d   1      15.337  16.133  -1.060  0.00  0.00     0.039 A 
ATOM     20  C   UNL d   1      15.533  15.555  -1.620  0.00  0.00     0.005 A 
ATOM     21  C   UNL d   1      15.807  14.822  -1.371  0.00  0.00     0.025 A 
BRANCH  19  22
ATOM     22  C   UNL d   1      15.061  16.869  -1.308  0.00  0.00     0.196 C 
ATOM     23  O   UNL d   1      15.569  17.510  -1.347  0.00  0.00    -0.287 OA
BRANCH  22  24
ATOM     24  C   UNL d   1      14.267  16.961  -1.517  0.00  0.00     0.042 C 
ATOM     25  C   UNL d   1      13.980  17.697  -1.724  0.00  0.00     0.003 C 
ENDBRANCH  22  24
ENDBRANCH  19  22
ENDBRANCH  15  16
ENDBRANCH  14  15
ENDBRANCH   1  14
TORSDOF 7
ENDMDL
MODEL 3
REMARK VINA RESULT:      42.6      2.295      2.987
REMARK  7 active torsions:
REMARK  status: ('A' for Active; 'I' for Inactive)
REMARK    1  A    between atoms: C_6  and  N_1 
REMARK    2  A    between atoms: C_12  and  C_6 
REMARK    3  A    between atoms: C_7  and  C_8 
REMARK    4  A    between atoms: C_22  and  C_7 
REMARK    5  A    between atoms: C_15  and  C_12 
REMARK    6  A    between atoms: O_13  and  C_15 
REMARK    7  A    between atoms: C_14  and  O_13 
ROOT
ATOM      1  C   UNL d   1      15.061  15.444  -0.605  0.00  0.00     0.238 C 
ATOM      2  O   UNL d   1      15.767  15.841  -0.442  0.00  0.00    -0.283 OA
ENDROOT
BRANCH   1   3
ATOM      3  C   UNL d   1      14.748  14.908  -0.059  0.00  0.00     0.126 C 
BRANCH   3   4
ATOM      4  N   UNL d   1      15.036  14.127  -0.045  0.00  0.00    -0.286 N 
ATOM      5  C   UNL d   1      15.838  13.910  -0.026  0.00  0.00     0.148 A 
ATOM      6  N   UNL d   1      15.876  13.080  -0.017  0.00  0.00    -0.227 NA
ATOM      7  C   UNL d   1      16.482  14.422  -0.016  0.00  0.00     0.041 C 
ATOM      8  C   UNL d   1      15.107  12.787  -0.031  0.00  0.00     0.099 A 
ATOM      9  C   UNL d   1      14.587  13.439  -0.049  0.00  0.00     0.083 A 
ATOM     10  C   UNL d   1      14.811  12.026  -0.031  0.00  0.00     0.021 A 
ATOM     11  C   UNL d   1      13.768  13.306  -0.066  0.00  0.00     0.019 A 
ATOM     12  C   UNL d   1      13.476  12.532  -0.066  0.00  0.00     0.002 A 
ATOM     13  C   UNL d   1      13.999  11.894  -0.048  0.00  0.00     0.002 A 
ENDBRANCH   3   4
ENDBRANCH   1   3
BRANCH   1  14
ATOM     14  C   UNL d   1      14.665  15.590  -1.325  0.00  0.00     0.166 C 
BRANCH  14  15
ATOM     15  O   UNL d   1      14.781  16.333  -1.723  0.00  0.00    -0.302 OA
BRANCH  15  16
ATOM     16  C   UNL d   1      14.764  16.387  -2.556  0.00  0.00     0.100 A 
ATOM     17  C   UNL d   1      14.327  15.849  -2.995  0.00  0.00     0.025 A 
ATOM     18  C   UNL d   1      14.313  15.905  -3.821  0.00  0.00     0.005 A 
ATOM     19  C   UNL d   1      14.733  16.493  -4.195  0.00  0.00     0.039 A 
ATOM     20  C   UNL d   1      15.173  17.034  -3.748  0.00  0.00     0.005 A 
ATOM     21  C   UNL d   1      15.184  16.974  -2.930  0.00  0.00     0.025 A 
BRANCH  19  22
ATOM     22  C   UNL d   1      14.721  16.551  -5.017  0.00  0.00     0.196 C 
ATOM     23  O   UNL d   1      14.565  17.269  -5.379  0.00  0.00    -0.287 OA
BRANCH  22  24
ATOM     24  C   UNL d   1      14.867  15.881  -5.478  0.00  0.00     0.042 C 
ATOM     25  C   UNL d   1      14.445  15.758  -6.167  0.00  0.00     0.003 C 
ENDBRANCH  22  24
ENDBRANCH  19  22
ENDBRANCH  15  16
ENDBRANCH  14  15
ENDBRANCH   1  14
TORSDOF 7
ENDMDL
MODEL 4
REMARK VINA RESULT:      43.1      2.212      3.262
REMARK  7 active torsions:
REMARK  status: ('A' for Active; 'I' for Inactive)
REMARK    1  A    between atoms: C_6  and  N_1 
REMARK    2  A    between atoms: C_12  and  C_6 
REMARK    3  A    between atoms: C_7  and  C_8 
REMARK    4  A    between atoms: C_22  and  C_7 
REMARK    5  A    between atoms: C_15  and  C_12 
REMARK    6  A    between atoms: O_13  and  C_15 
REMARK    7  A    between atoms: C_14  and  O_13 
ROOT
ATOM      1  C   UNL d   1      13.451  12.194  -1.304  0.00  0.00     0.238 C 
ATOM      2  O   UNL d   1      12.770  12.392  -0.880  0.00  0.00    -0.283 OA
ENDROOT
BRANCH   1   3
ATOM      3  C   UNL d   1      14.181  12.144  -0.919  0.00  0.00     0.126 C 
BRANCH   3   4
ATOM      4  N   UNL d   1      14.544  12.839  -0.641  0.00  0.00    -0.286 N 
ATOM      5  C   UNL d   1      14.157  13.459  -0.246  0.00  0.00     0.148 A 
ATOM      6  N   UNL d   1      14.723  14.041  -0.068  0.00  0.00    -0.227 NA
ATOM      7  C   UNL d   1      13.356  13.495  -0.062  0.00  0.00     0.041 C 
ATOM      8  C   UNL d   1      15.453  13.784  -0.350  0.00  0.00     0.099 A 
ATOM      9  C   UNL d   1      15.339  13.037  -0.706  0.00  0.00     0.083 A 
ATOM     10  C   UNL d   1      16.196  14.120  -0.333  0.00  0.00     0.021 A 
ATOM     11  C   UNL d   1      15.988  12.643  -1.040  0.00  0.00     0.019 A 
ATOM     12  C   UNL d   1      16.738  12.991  -1.019  0.00  0.00     0.002 A 
ATOM     13  C   UNL d   1      16.839  13.729  -0.665  0.00  0.00     0.002 A 
ENDBRANCH   3   4
ENDBRANCH   1   3
BRANCH   1  14
ATOM     14  C   UNL d   1      13.396  12.047  -2.122  0.00  0.00     0.166 C 
BRANCH  14  15
ATOM     15  O   UNL d   1      13.215  12.688  -2.652  0.00  0.00    -0.302 OA
BRANCH  15  16
ATOM     16  C   UNL d   1      13.249  12.590  -3.481  0.00  0.00     0.100 A 
ATOM     17  C   UNL d   1      13.035  11.874  -3.819  0.00  0.00     0.025 A 
ATOM     18  C   UNL d   1      13.069  11.780  -4.642  0.00  0.00     0.005 A 
ATOM     19  C   UNL d   1      13.314  12.397  -5.110  0.00  0.00     0.039 A 
ATOM     20  C   UNL d   1      13.529  13.119  -4.764  0.00  0.00     0.005 A 
ATOM     21  C   UNL d   1      13.494  13.207  -3.949  0.00  0.00     0.025 A 
BRANCH  19  22
ATOM     22  C   UNL d   1      13.349  12.306  -5.928  0.00  0.00     0.196 C 
ATOM     23  O   UNL d   1      12.823  11.810  -6.313  0.00  0.00    -0.287 OA
BRANCH  22  24
ATOM     24  C   UNL d   1      13.918  12.718  -6.363  0.00  0.00     0.042 C 
ATOM     25  C   UNL d   1      14.713  12.609  -6.204  0.00  0.00     0.003 C 
ENDBRANCH  22  24
ENDBRANCH  19  22
ENDBRANCH  15  16
ENDBRANCH  14  15
ENDBRANCH   1  14
TORSDOF 7
ENDMDL
