MODEL 1
REMARK VINA RESULT:      -4.8      0.000      0.000
REMARK  1 active torsions:
REMARK  status: ('A' for Active; 'I' for Inactive)
REMARK    1  A    between atoms: C_5  and  N_1 
ROOT
ATOM      1  N   UNL d   1      57.713   0.221  31.512  0.00  0.00    -0.226 N 
ATOM      2  C   UNL d   1      58.398   0.525  31.852  0.00  0.00     0.359 A 
ATOM      3  C   UNL d   1      57.687   0.066  30.699  0.00  0.00     0.273 A 
ATOM      4  N   UNL d   1      59.062   0.677  31.383  0.00  0.00    -0.153 NA
ATOM      5  C   UNL d   1      59.037   0.521  30.569  0.00  0.00     0.288 A 
ATOM      6  C   UNL d   1      58.347   0.215  30.227  0.00  0.00     0.124 A 
ATOM      7  O   UNL d   1      58.431   0.682  32.657  0.00  0.00    -0.244 OA
ATOM      8  O   UNL d   1      57.006  -0.238  30.355  0.00  0.00    -0.266 OA
ATOM      9  O   UNL d   1      59.693   0.669  30.098  0.00  0.00    -0.265 OA
ENDROOT
BRANCH   1  10
ATOM     10  C   UNL d   1      57.056   0.073  31.980  0.00  0.00     0.072 A 
ATOM     11  C   UNL d   1      56.903  -0.708  32.240  0.00  0.00     0.029 A 
ATOM     12  C   UNL d   1      56.247  -0.857  32.707  0.00  0.00     0.059 A 
ATOM     13 CL   UNL d   1      56.102  -1.630  32.960  0.00  0.00    -0.082 Cl
ATOM     14  C   UNL d   1      55.740  -0.249  32.922  0.00  0.00     0.011 A 
ATOM     15  C   UNL d   1      55.895   0.523  32.663  0.00  0.00     0.002 A 
ATOM     16  C   UNL d   1      55.079  -0.397  33.393  0.00  0.00     0.001 C 
ATOM     17  C   UNL d   1      56.559   0.680  32.189  0.00  0.00     0.018 A 
ENDBRANCH   1  10
TORSDOF 1
ENDMDL
MODEL 2
REMARK VINA RESULT:      -4.6      1.592      2.278
REMARK  1 active torsions:
REMARK  status: ('A' for Active; 'I' for Inactive)
REMARK    1  A    between atoms: C_5  and  N_1 
ROOT
ATOM      1  N   UNL d   1      56.617  -0.518  32.439  0.00  0.00    -0.226 N 
ATOM      2  C   UNL d   1      56.415  -1.267  32.164  0.00  0.00     0.359 A 
ATOM      3  C   UNL d   1      57.181  -0.066  32.034  0.00  0.00     0.273 A 
ATOM      4  N   UNL d   1      56.773  -1.571  31.484  0.00  0.00    -0.153 NA
ATOM      5  C   UNL d   1      57.337  -1.118  31.078  0.00  0.00     0.288 A 
ATOM      6  C   UNL d   1      57.541  -0.364  31.354  0.00  0.00     0.124 A 
ATOM      7  O   UNL d   1      55.858  -1.721  32.560  0.00  0.00    -0.244 OA
ATOM      8  O   UNL d   1      57.386   0.682  32.304  0.00  0.00    -0.266 OA
ATOM      9  O   UNL d   1      57.697  -1.414  30.401  0.00  0.00    -0.265 OA
ENDROOT
BRANCH   1  10
ATOM     10  C   UNL d   1      56.260  -0.221  33.114  0.00  0.00     0.072 A 
ATOM     11  C   UNL d   1      55.480   0.079  33.070  0.00  0.00     0.029 A 
ATOM     12  C   UNL d   1      55.123   0.376  33.745  0.00  0.00     0.059 A 
ATOM     13 CL   UNL d   1      54.353   0.670  33.695  0.00  0.00    -0.082 Cl
ATOM     14  C   UNL d   1      55.523   0.383  34.462  0.00  0.00     0.011 A 
ATOM     15  C   UNL d   1      56.295   0.085  34.501  0.00  0.00     0.002 A 
ATOM     16  C   UNL d   1      55.164   0.682  35.142  0.00  0.00     0.001 C 
ATOM     17  C   UNL d   1      56.662  -0.218  33.820  0.00  0.00     0.018 A 
ENDBRANCH   1  10
TORSDOF 1
ENDMDL
MODEL 3
REMARK VINA RESULT:      -4.5      0.441      1.214
REMARK  1 active torsions:
REMARK  status: ('A' for Active; 'I' for Inactive)
REMARK    1  A    between atoms: C_5  and  N_1 
ROOT
ATOM      1  N   UNL d   1      57.564   0.213  31.516  0.00  0.00    -0.226 N 
ATOM      2  C   UNL d   1      57.477   0.059  30.712  0.00  0.00     0.359 A 
ATOM      3  C   UNL d   1      58.279   0.519  31.804  0.00  0.00     0.273 A 
ATOM      4  N   UNL d   1      58.101   0.208  30.190  0.00  0.00    -0.153 NA
ATOM      5  C   UNL d   1      58.815   0.514  30.478  0.00  0.00     0.288 A 
ATOM      6  C   UNL d   1      58.904   0.670  31.287  0.00  0.00     0.124 A 
ATOM      7  O   UNL d   1      56.773  -0.245  30.420  0.00  0.00    -0.244 OA
ATOM      8  O   UNL d   1      58.371   0.675  32.605  0.00  0.00    -0.266 OA
ATOM      9  O   UNL d   1      59.439   0.664  29.965  0.00  0.00    -0.265 OA
ENDROOT
BRANCH   1  10
ATOM     10  C   UNL d   1      56.944   0.064  32.031  0.00  0.00     0.072 A 
ATOM     11  C   UNL d   1      56.769  -0.725  32.247  0.00  0.00     0.029 A 
ATOM     12  C   UNL d   1      56.149  -0.875  32.761  0.00  0.00     0.059 A 
ATOM     13 CL   UNL d   1      55.981  -1.655  32.971  0.00  0.00    -0.082 Cl
ATOM     14  C   UNL d   1      55.700  -0.259  33.065  0.00  0.00     0.011 A 
ATOM     15  C   UNL d   1      55.877   0.521  32.848  0.00  0.00     0.002 A 
ATOM     16  C   UNL d   1      55.075  -0.407  33.583  0.00  0.00     0.001 C 
ATOM     17  C   UNL d   1      56.504   0.679  32.327  0.00  0.00     0.018 A 
ENDBRANCH   1  10
TORSDOF 1
ENDMDL
MODEL 4
REMARK VINA RESULT:      -3.9      1.927      3.382
REMARK  1 active torsions:
REMARK  status: ('A' for Active; 'I' for Inactive)
REMARK    1  A    between atoms: C_5  and  N_1 
ROOT
ATOM      1  N   UNL d   1      56.274   0.226  33.401  0.00  0.00    -0.226 N 
ATOM      2  C   UNL d   1      56.732   0.494  34.029  0.00  0.00     0.359 A 
ATOM      3  C   UNL d   1      55.459   0.109  33.502  0.00  0.00     0.273 A 
ATOM      4  N   UNL d   1      56.383   0.648  34.763  0.00  0.00    -0.153 NA
ATOM      5  C   UNL d   1      55.569   0.531  34.864  0.00  0.00     0.288 A 
ATOM      6  C   UNL d   1      55.106   0.261  34.232  0.00  0.00     0.124 A 
ATOM      7  O   UNL d   1      57.539   0.612  33.936  0.00  0.00    -0.244 OA
ATOM      8  O   UNL d   1      54.997  -0.159  32.878  0.00  0.00    -0.266 OA
ATOM      9  O   UNL d   1      55.216   0.682  35.591  0.00  0.00    -0.265 OA
ENDROOT
BRANCH   1  10
ATOM     10  C   UNL d   1      56.623   0.074  32.675  0.00  0.00     0.072 A 
ATOM     11  C   UNL d   1      56.646  -0.710  32.384  0.00  0.00     0.029 A 
ATOM     12  C   UNL d   1      56.995  -0.862  31.659  0.00  0.00     0.059 A 
ATOM     13 CL   UNL d   1      57.014  -1.638  31.377  0.00  0.00    -0.082 Cl
ATOM     14  C   UNL d   1      57.322  -0.253  31.216  0.00  0.00     0.011 A 
ATOM     15  C   UNL d   1      57.297   0.522  31.508  0.00  0.00     0.002 A 
ATOM     16  C   UNL d   1      57.674  -0.404  30.486  0.00  0.00     0.001 C 
ATOM     17  C   UNL d   1      56.945   0.682  32.243  0.00  0.00     0.018 A 
ENDBRANCH   1  10
TORSDOF 1
ENDMDL
MODEL 5
REMARK VINA RESULT:      -3.0      1.442      3.067
REMARK  1 active torsions:
REMARK  status: ('A' for Active; 'I' for Inactive)
REMARK    1  A    between atoms: C_5  and  N_1 
ROOT
ATOM      1  N   UNL d   1      57.530   0.170  31.732  0.00  0.00    -0.226 N 
ATOM      2  C   UNL d   1      58.051   0.480  32.288  0.00  0.00     0.359 A 
ATOM      3  C   UNL d   1      56.758  -0.031  31.956  0.00  0.00     0.273 A 
ATOM      4  N   UNL d   1      57.808   0.592  33.070  0.00  0.00    -0.153 NA
ATOM      5  C   UNL d   1      57.035   0.391  33.294  0.00  0.00     0.288 A 
ATOM      6  C   UNL d   1      56.509   0.079  32.735  0.00  0.00     0.124 A 
ATOM      7  O   UNL d   1      58.818   0.682  32.074  0.00  0.00    -0.244 OA
ATOM      8  O   UNL d   1      56.233  -0.341  31.405  0.00  0.00    -0.266 OA
ATOM      9  O   UNL d   1      56.786   0.499  34.069  0.00  0.00    -0.265 OA
ENDROOT
BRANCH   1  10
ATOM     10  C   UNL d   1      57.775   0.061  30.958  0.00  0.00     0.072 A 
ATOM     11  C   UNL d   1      58.040  -0.693  30.712  0.00  0.00     0.029 A 
ATOM     12  C   UNL d   1      58.285  -0.803  29.938  0.00  0.00     0.059 A 
ATOM     13 CL   UNL d   1      58.546  -1.550  29.701  0.00  0.00    -0.082 Cl
ATOM     14  C   UNL d   1      58.273  -0.181  29.403  0.00  0.00     0.011 A 
ATOM     15  C   UNL d   1      58.010   0.565  29.651  0.00  0.00     0.002 A 
ATOM     16  C   UNL d   1      58.520  -0.289  28.623  0.00  0.00     0.001 C 
ATOM     17  C   UNL d   1      57.760   0.682  30.435  0.00  0.00     0.018 A 
ENDBRANCH   1  10
TORSDOF 1
ENDMDL
