MODEL 1
REMARK VINA RESULT:      -0.2      0.000      0.000
REMARK  3 active torsions:
REMARK  status: ('A' for Active; 'I' for Inactive)
REMARK    1  A    between atoms: C_9  and  C_1 
REMARK    2  A    between atoms: C_4  and  C_5 
REMARK       I    between atoms: C_5  and  N_8 
REMARK    3  A    between atoms: N_8  and  C_16 
ROOT
ATOM      1  C   UNL d   1      56.195   0.028  33.144  0.00  0.00     0.024 A 
ATOM      2  C   UNL d   1      56.108   0.498  32.487  0.00  0.00     0.004 A 
ATOM      3  C   UNL d   1      56.746  -0.579  33.164  0.00  0.00     0.004 A 
ATOM      4  C   UNL d   1      57.137  -0.243  31.841  0.00  0.00     0.085 A 
ATOM      5  C   UNL d   1      57.218  -0.716  32.513  0.00  0.00     0.019 A 
ATOM      6  C   UNL d   1      56.581   0.365  31.829  0.00  0.00     0.019 A 
ENDROOT
BRANCH   1   7
ATOM      7  C   UNL d   1      55.719   0.165  33.801  0.00  0.00     0.111 A 
ATOM      8  N   UNL d   1      55.966   0.141  34.595  0.00  0.00    -0.239 NA
ATOM      9  C   UNL d   1      55.307   0.313  35.073  0.00  0.00     0.088 A 
ATOM     10  C   UNL d   1      55.216   0.367  35.883  0.00  0.00     0.020 A 
ATOM     11  C   UNL d   1      54.656   0.443  34.573  0.00  0.00     0.049 A 
ATOM     12  C   UNL d   1      54.479   0.552  36.209  0.00  0.00     0.002 A 
ATOM     13  C   UNL d   1      53.831   0.682  35.716  0.00  0.00     0.001 A 
ATOM     14  C   UNL d   1      53.918   0.628  34.895  0.00  0.00     0.008 A 
ATOM     15  S   UNL d   1      54.911   0.352  33.795  0.00  0.00    -0.066 SA
ENDBRANCH   1   7
BRANCH   4  16
ATOM     16  N   UNL d   1      57.616  -0.382  31.182  0.00  0.00    -0.206 NA
ATOM     17  C   UNL d   1      57.552  -1.096  30.775  0.00  0.00     0.304 C 
ATOM     18  O   UNL d   1      57.019  -1.668  31.017  0.00  0.00    -0.263 OA
BRANCH  17  19
ATOM     19  C   UNL d   1      58.038  -1.228  30.113  0.00  0.00     0.182 A 
ATOM     20  O   UNL d   1      57.956  -0.738  29.450  0.00  0.00    -0.296 OA
ATOM     21  C   UNL d   1      58.440  -0.871  28.795  0.00  0.00     0.150 A 
ATOM     22  C   UNL d   1      58.997  -1.481  28.800  0.00  0.00     0.149 A 
ATOM     23  O   UNL d   1      59.070  -1.958  29.460  0.00  0.00    -0.299 OA
ATOM     24  C   UNL d   1      58.595  -1.837  30.118  0.00  0.00     0.152 A 
ENDBRANCH  17  19
ENDBRANCH   4  16
TORSDOF 3
ENDMDL
MODEL 2
REMARK VINA RESULT:       1.2      5.333      7.457
REMARK  3 active torsions:
REMARK  status: ('A' for Active; 'I' for Inactive)
REMARK    1  A    between atoms: C_9  and  C_1 
REMARK    2  A    between atoms: C_4  and  C_5 
REMARK       I    between atoms: C_5  and  N_8 
REMARK    3  A    between atoms: N_8  and  C_16 
ROOT
ATOM      1  C   UNL d   1      58.143  -5.430  28.455  0.00  0.00     0.024 A 
ATOM      2  C   UNL d   1      58.942  -5.281  28.455  0.00  0.00     0.004 A 
ATOM      3  C   UNL d   1      57.595  -4.820  28.455  0.00  0.00     0.004 A 
ATOM      4  C   UNL d   1      58.665  -3.885  28.455  0.00  0.00     0.085 A 
ATOM      5  C   UNL d   1      57.855  -4.046  28.455  0.00  0.00     0.019 A 
ATOM      6  C   UNL d   1      59.209  -4.504  28.455  0.00  0.00     0.019 A 
ENDROOT
BRANCH   1   7
ATOM      7  C   UNL d   1      57.880  -6.210  28.455  0.00  0.00     0.111 A 
ATOM      8  N   UNL d   1      57.086  -6.456  28.455  0.00  0.00    -0.239 NA
ATOM      9  C   UNL d   1      57.077  -7.288  28.455  0.00  0.00     0.088 A 
ATOM     10  C   UNL d   1      56.465  -7.830  28.455  0.00  0.00     0.020 A 
ATOM     11  C   UNL d   1      57.865  -7.553  28.456  0.00  0.00     0.049 A 
ATOM     12  C   UNL d   1      56.626  -8.640  28.456  0.00  0.00     0.002 A 
ATOM     13  C   UNL d   1      57.407  -8.907  28.456  0.00  0.00     0.001 A 
ATOM     14  C   UNL d   1      58.030  -8.362  28.456  0.00  0.00     0.008 A 
ATOM     15  S   UNL d   1      58.355  -6.890  28.456  0.00  0.00    -0.066 SA
ENDBRANCH   1   7
BRANCH   4  16
ATOM     16  N   UNL d   1      58.927  -3.101  28.455  0.00  0.00    -0.206 NA
ATOM     17  C   UNL d   1      59.012  -2.700  29.170  0.00  0.00     0.304 C 
ATOM     18  O   UNL d   1      58.840  -3.069  29.880  0.00  0.00    -0.263 OA
BRANCH  17  19
ATOM     19  C   UNL d   1      59.276  -1.910  29.160  0.00  0.00     0.182 A 
ATOM     20  O   UNL d   1      60.090  -1.758  29.166  0.00  0.00    -0.296 OA
ATOM     21  C   UNL d   1      60.348  -0.974  29.156  0.00  0.00     0.150 A 
ATOM     22  C   UNL d   1      59.805  -0.352  29.139  0.00  0.00     0.149 A 
ATOM     23  O   UNL d   1      59.003  -0.514  29.133  0.00  0.00    -0.299 OA
ATOM     24  C   UNL d   1      58.733  -1.288  29.143  0.00  0.00     0.152 A 
ENDBRANCH  17  19
ENDBRANCH   4  16
TORSDOF 3
ENDMDL
MODEL 3
REMARK VINA RESULT:       1.7      2.137      5.713
REMARK  3 active torsions:
REMARK  status: ('A' for Active; 'I' for Inactive)
REMARK    1  A    between atoms: C_9  and  C_1 
REMARK    2  A    between atoms: C_4  and  C_5 
REMARK       I    between atoms: C_5  and  N_8 
REMARK    3  A    between atoms: N_8  and  C_16 
ROOT
ATOM      1  C   UNL d   1      56.804  -0.642  31.976  0.00  0.00     0.024 A 
ATOM      2  C   UNL d   1      56.953  -1.045  32.666  0.00  0.00     0.004 A 
ATOM      3  C   UNL d   1      56.189  -0.103  31.922  0.00  0.00     0.004 A 
ATOM      4  C   UNL d   1      55.859  -0.371  33.278  0.00  0.00     0.085 A 
ATOM      5  C   UNL d   1      55.715   0.034  32.573  0.00  0.00     0.019 A 
ATOM      6  C   UNL d   1      56.480  -0.911  33.324  0.00  0.00     0.019 A 
ENDROOT
BRANCH   1   7
ATOM      7  C   UNL d   1      57.282  -0.779  31.320  0.00  0.00     0.111 A 
ATOM      8  N   UNL d   1      57.364  -1.504  30.921  0.00  0.00    -0.239 NA
ATOM      9  C   UNL d   1      57.899  -1.392  30.295  0.00  0.00     0.088 A 
ATOM     10  C   UNL d   1      58.190  -1.898  29.723  0.00  0.00     0.020 A 
ATOM     11  C   UNL d   1      58.146  -0.597  30.309  0.00  0.00     0.049 A 
ATOM     12  C   UNL d   1      58.728  -1.626  29.159  0.00  0.00     0.002 A 
ATOM     13  C   UNL d   1      58.975  -0.839  29.169  0.00  0.00     0.001 A 
ATOM     14  C   UNL d   1      58.684  -0.322  29.746  0.00  0.00     0.008 A 
ATOM     15  S   UNL d   1      57.766  -0.225  30.938  0.00  0.00    -0.066 SA
ENDBRANCH   1   7
BRANCH   4  16
ATOM     16  N   UNL d   1      55.378  -0.232  33.935  0.00  0.00    -0.206 NA
ATOM     17  C   UNL d   1      54.738   0.283  33.870  0.00  0.00     0.304 C 
ATOM     18  O   UNL d   1      54.573   0.658  33.162  0.00  0.00    -0.263 OA
BRANCH  17  19
ATOM     19  C   UNL d   1      54.260   0.417  34.538  0.00  0.00     0.182 A 
ATOM     20  O   UNL d   1      53.445   0.522  34.435  0.00  0.00    -0.296 OA
ATOM     21  C   UNL d   1      52.974   0.654  35.100  0.00  0.00     0.150 A 
ATOM     22  C   UNL d   1      53.309   0.682  35.854  0.00  0.00     0.149 A 
ATOM     23  O   UNL d   1      54.114   0.577  35.944  0.00  0.00    -0.299 OA
ATOM     24  C   UNL d   1      54.594   0.445  35.293  0.00  0.00     0.152 A 
ENDBRANCH  17  19
ENDBRANCH   4  16
TORSDOF 3
ENDMDL
MODEL 4
REMARK VINA RESULT:       2.5      2.016      5.792
REMARK  3 active torsions:
REMARK  status: ('A' for Active; 'I' for Inactive)
REMARK    1  A    between atoms: C_9  and  C_1 
REMARK    2  A    between atoms: C_4  and  C_5 
REMARK       I    between atoms: C_5  and  N_8 
REMARK    3  A    between atoms: N_8  and  C_16 
ROOT
ATOM      1  C   UNL d   1      57.630  -0.424  30.880  0.00  0.00     0.024 A 
ATOM      2  C   UNL d   1      57.171  -0.982  31.254  0.00  0.00     0.004 A 
ATOM      3  C   UNL d   1      57.556   0.373  31.052  0.00  0.00     0.004 A 
ATOM      4  C   UNL d   1      56.541   0.057  31.995  0.00  0.00     0.085 A 
ATOM      5  C   UNL d   1      57.012   0.617  31.610  0.00  0.00     0.019 A 
ATOM      6  C   UNL d   1      56.622  -0.743  31.816  0.00  0.00     0.019 A 
ENDROOT
BRANCH   1   7
ATOM      7  C   UNL d   1      58.179  -0.668  30.318  0.00  0.00     0.111 A 
ATOM      8  N   UNL d   1      58.208  -1.418  29.959  0.00  0.00    -0.239 NA
ATOM      9  C   UNL d   1      58.849  -1.423  29.429  0.00  0.00     0.088 A 
ATOM     10  C   UNL d   1      59.143  -1.998  28.929  0.00  0.00     0.020 A 
ATOM     11  C   UNL d   1      59.213  -0.676  29.461  0.00  0.00     0.049 A 
ATOM     12  C   UNL d   1      59.802  -1.842  28.455  0.00  0.00     0.002 A 
ATOM     13  C   UNL d   1      60.166  -1.103  28.485  0.00  0.00     0.001 A 
ATOM     14  C   UNL d   1      59.872  -0.516  28.989  0.00  0.00     0.008 A 
ATOM     15  S   UNL d   1      58.801  -0.217  30.007  0.00  0.00    -0.066 SA
ENDBRANCH   1   7
BRANCH   4  16
ATOM     16  N   UNL d   1      55.990   0.304  32.559  0.00  0.00    -0.206 NA
ATOM     17  C   UNL d   1      55.953  -0.080  33.287  0.00  0.00     0.304 C 
ATOM     18  O   UNL d   1      56.455  -0.703  33.458  0.00  0.00    -0.263 OA
BRANCH  17  19
ATOM     19  C   UNL d   1      55.394   0.176  33.849  0.00  0.00     0.182 A 
ATOM     20  O   UNL d   1      54.604   0.266  33.619  0.00  0.00    -0.296 OA
ATOM     21  C   UNL d   1      54.054   0.520  34.179  0.00  0.00     0.150 A 
ATOM     22  C   UNL d   1      54.286   0.682  34.955  0.00  0.00     0.149 A 
ATOM     23  O   UNL d   1      55.069   0.590  35.171  0.00  0.00    -0.299 OA
ATOM     24  C   UNL d   1      55.627   0.338  34.625  0.00  0.00     0.152 A 
ENDBRANCH  17  19
ENDBRANCH   4  16
TORSDOF 3
ENDMDL
MODEL 5
REMARK VINA RESULT:       2.7      5.714      8.196
REMARK  3 active torsions:
REMARK  status: ('A' for Active; 'I' for Inactive)
REMARK    1  A    between atoms: C_9  and  C_1 
REMARK    2  A    between atoms: C_4  and  C_5 
REMARK       I    between atoms: C_5  and  N_8 
REMARK    3  A    between atoms: N_8  and  C_16 
ROOT
ATOM      1  C   UNL d   1      60.382  -5.287  28.508  0.00  0.00     0.024 A 
ATOM      2  C   UNL d   1      61.100  -4.909  28.456  0.00  0.00     0.004 A 
ATOM      3  C   UNL d   1      59.683  -4.865  28.571  0.00  0.00     0.004 A 
ATOM      4  C   UNL d   1      60.429  -3.657  28.528  0.00  0.00     0.085 A 
ATOM      5  C   UNL d   1      59.704  -4.048  28.581  0.00  0.00     0.019 A 
ATOM      6  C   UNL d   1      61.128  -4.088  28.466  0.00  0.00     0.019 A 
ENDROOT
BRANCH   1   7
ATOM      7  C   UNL d   1      60.360  -6.109  28.498  0.00  0.00     0.111 A 
ATOM      8  N   UNL d   1      61.021  -6.614  28.503  0.00  0.00    -0.239 NA
ATOM      9  C   UNL d   1      60.743  -7.398  28.489  0.00  0.00     0.088 A 
ATOM     10  C   UNL d   1      61.130  -8.118  28.487  0.00  0.00     0.020 A 
ATOM     11  C   UNL d   1      59.912  -7.375  28.476  0.00  0.00     0.049 A 
ATOM     12  C   UNL d   1      60.701  -8.823  28.472  0.00  0.00     0.002 A 
ATOM     13  C   UNL d   1      59.876  -8.804  28.458  0.00  0.00     0.001 A 
ATOM     14  C   UNL d   1      59.479  -8.078  28.460  0.00  0.00     0.008 A 
ATOM     15  S   UNL d   1      59.681  -6.584  28.481  0.00  0.00    -0.066 SA
ENDBRANCH   1   7
BRANCH   4  16
ATOM     16  N   UNL d   1      60.450  -2.831  28.538  0.00  0.00    -0.206 NA
ATOM     17  C   UNL d   1      60.303  -2.428  29.243  0.00  0.00     0.304 C 
ATOM     18  O   UNL d   1      60.138  -2.838  29.932  0.00  0.00    -0.263 OA
BRANCH  17  19
ATOM     19  C   UNL d   1      60.326  -1.596  29.243  0.00  0.00     0.182 A 
ATOM     20  O   UNL d   1      61.060  -1.214  29.250  0.00  0.00    -0.296 OA
ATOM     21  C   UNL d   1      61.079  -0.389  29.250  0.00  0.00     0.150 A 
ATOM     22  C   UNL d   1      60.378   0.049  29.244  0.00  0.00     0.149 A 
ATOM     23  O   UNL d   1      59.659  -0.340  29.237  0.00  0.00    -0.299 OA
ATOM     24  C   UNL d   1      59.625  -1.159  29.236  0.00  0.00     0.152 A 
ENDBRANCH  17  19
ENDBRANCH   4  16
TORSDOF 3
ENDMDL
