MODEL 1
REMARK VINA RESULT:      -2.7      0.000      0.000
REMARK  1 active torsions:
REMARK  status: ('A' for Active; 'I' for Inactive)
REMARK    1  A    between atoms: C_6  and  C_3 
ROOT
ATOM      1  N   UNL d   1      32.850  22.415 -19.740  0.00  0.00    -0.228 NA
ATOM      2  C   UNL d   1      32.776  22.603 -20.539  0.00  0.00     0.166 A 
ATOM      3  C   UNL d   1      32.670  23.094 -19.307  0.00  0.00     0.089 A 
ATOM      4  S   UNL d   1      32.555  23.386 -20.600  0.00  0.00    -0.055 SA
ATOM      5  C   UNL d   1      32.486  23.702 -19.839  0.00  0.00     0.057 A 
ATOM      6  S   UNL d   1      32.906  22.082 -21.168  0.00  0.00    -0.050 SA
ENDROOT
BRANCH   3   7
ATOM      7  C   UNL d   1      32.674  23.160 -18.481  0.00  0.00     0.018 A 
ATOM      8  C   UNL d   1      32.110  23.624 -18.107  0.00  0.00     0.002 A 
ATOM      9  C   UNL d   1      32.109  23.693 -17.288  0.00  0.00     0.000 A 
ATOM     10  C   UNL d   1      32.682  23.288 -16.838  0.00  0.00     0.000 A 
ATOM     11  C   UNL d   1      33.241  22.826 -17.219  0.00  0.00     0.000 A 
ATOM     12  C   UNL d   1      33.240  22.759 -18.042  0.00  0.00     0.002 A 
ENDBRANCH   3   7
TORSDOF 1
ENDMDL
MODEL 2
REMARK VINA RESULT:      -2.7      8.020      8.819
REMARK  1 active torsions:
REMARK  status: ('A' for Active; 'I' for Inactive)
REMARK    1  A    between atoms: C_6  and  C_3 
ROOT
ATOM      1  N   UNL d   1      31.479  16.779 -23.432  0.00  0.00    -0.228 NA
ATOM      2  C   UNL d   1      32.273  16.606 -23.567  0.00  0.00     0.166 A 
ATOM      3  C   UNL d   1      31.046  16.092 -23.579  0.00  0.00     0.089 A 
ATOM      4  S   UNL d   1      32.331  15.824 -23.794  0.00  0.00    -0.055 SA
ATOM      5  C   UNL d   1      31.572  15.494 -23.805  0.00  0.00     0.057 A 
ATOM      6  S   UNL d   1      32.901  17.138 -23.485  0.00  0.00    -0.050 SA
ENDROOT
BRANCH   3   7
ATOM      7  C   UNL d   1      30.224  16.012 -23.512  0.00  0.00     0.018 A 
ATOM      8  C   UNL d   1      29.732  16.411 -24.034  0.00  0.00     0.002 A 
ATOM      9  C   UNL d   1      28.916  16.336 -23.973  0.00  0.00     0.000 A 
ATOM     10  C   UNL d   1      28.588  15.852 -23.378  0.00  0.00     0.000 A 
ATOM     11  C   UNL d   1      29.087  15.457 -22.861  0.00  0.00     0.000 A 
ATOM     12  C   UNL d   1      29.906  15.534 -22.925  0.00  0.00     0.002 A 
ENDBRANCH   3   7
TORSDOF 1
ENDMDL
MODEL 3
REMARK VINA RESULT:      -2.7      2.712      3.432
REMARK  1 active torsions:
REMARK  status: ('A' for Active; 'I' for Inactive)
REMARK    1  A    between atoms: C_6  and  C_3 
ROOT
ATOM      1  N   UNL d   1      32.895  20.765 -22.033  0.00  0.00    -0.228 NA
ATOM      2  C   UNL d   1      33.133  20.007 -21.810  0.00  0.00     0.166 A 
ATOM      3  C   UNL d   1      32.858  21.226 -21.350  0.00  0.00     0.089 A 
ATOM      4  S   UNL d   1      33.241  20.000 -21.001  0.00  0.00    -0.055 SA
ATOM      5  C   UNL d   1      33.073  20.754 -20.703  0.00  0.00     0.057 A 
ATOM      6  S   UNL d   1      33.241  19.368 -22.323  0.00  0.00    -0.050 SA
ENDROOT
BRANCH   3   7
ATOM      7  C   UNL d   1      32.644  22.025 -21.314  0.00  0.00     0.018 A 
ATOM      8  C   UNL d   1      32.207  22.301 -20.676  0.00  0.00     0.002 A 
ATOM      9  C   UNL d   1      31.991  23.093 -20.635  0.00  0.00     0.000 A 
ATOM     10  C   UNL d   1      32.217  23.616 -21.243  0.00  0.00     0.000 A 
ATOM     11  C   UNL d   1      32.652  23.332 -21.877  0.00  0.00     0.000 A 
ATOM     12  C   UNL d   1      32.868  22.536 -21.916  0.00  0.00     0.002 A 
ENDBRANCH   3   7
TORSDOF 1
ENDMDL
MODEL 4
REMARK VINA RESULT:      -2.5      1.439      3.326
REMARK  1 active torsions:
REMARK  status: ('A' for Active; 'I' for Inactive)
REMARK    1  A    between atoms: C_6  and  C_3 
ROOT
ATOM      1  N   UNL d   1      33.111  22.543 -19.551  0.00  0.00    -0.228 NA
ATOM      2  C   UNL d   1      32.899  23.239 -19.164  0.00  0.00     0.166 A 
ATOM      3  C   UNL d   1      32.808  22.582 -20.318  0.00  0.00     0.089 A 
ATOM      4  S   UNL d   1      32.470  23.702 -19.683  0.00  0.00    -0.055 SA
ATOM      5  C   UNL d   1      32.408  23.302 -20.405  0.00  0.00     0.057 A 
ATOM      6  S   UNL d   1      33.090  23.431 -18.382  0.00  0.00    -0.050 SA
ENDROOT
BRANCH   3   7
ATOM      7  C   UNL d   1      32.889  22.001 -20.902  0.00  0.00     0.018 A 
ATOM      8  C   UNL d   1      33.159  22.209 -21.649  0.00  0.00     0.002 A 
ATOM      9  C   UNL d   1      33.241  21.636 -22.233  0.00  0.00     0.000 A 
ATOM     10  C   UNL d   1      33.050  20.843 -22.065  0.00  0.00     0.000 A 
ATOM     11  C   UNL d   1      32.782  20.644 -21.317  0.00  0.00     0.000 A 
ATOM     12  C   UNL d   1      32.700  21.220 -20.732  0.00  0.00     0.002 A 
ENDBRANCH   3   7
TORSDOF 1
ENDMDL
MODEL 5
REMARK VINA RESULT:      -2.5      6.653      7.610
REMARK  1 active torsions:
REMARK  status: ('A' for Active; 'I' for Inactive)
REMARK    1  A    between atoms: C_6  and  C_3 
ROOT
ATOM      1  N   UNL d   1      31.362  16.908 -23.593  0.00  0.00    -0.228 NA
ATOM      2  C   UNL d   1      31.258  16.090 -23.617  0.00  0.00     0.166 A 
ATOM      3  C   UNL d   1      32.173  17.056 -23.596  0.00  0.00     0.089 A 
ATOM      4  S   UNL d   1      31.995  15.738 -23.634  0.00  0.00    -0.055 SA
ATOM      5  C   UNL d   1      32.572  16.331 -23.621  0.00  0.00     0.057 A 
ATOM      6  S   UNL d   1      30.530  15.699 -23.622  0.00  0.00    -0.050 SA
ENDROOT
BRANCH   3   7
ATOM      7  C   UNL d   1      32.530  17.804 -23.577  0.00  0.00     0.018 A 
ATOM      8  C   UNL d   1      32.863  18.078 -22.879  0.00  0.00     0.002 A 
ATOM      9  C   UNL d   1      33.219  18.819 -22.854  0.00  0.00     0.000 A 
ATOM     10  C   UNL d   1      33.241  19.291 -23.540  0.00  0.00     0.000 A 
ATOM     11  C   UNL d   1      32.906  19.009 -24.233  0.00  0.00     0.000 A 
ATOM     12  C   UNL d   1      32.549  18.265 -24.256  0.00  0.00     0.002 A 
ENDBRANCH   3   7
TORSDOF 1
ENDMDL
MODEL 6
REMARK VINA RESULT:      -2.5      8.071      8.819
REMARK  1 active torsions:
REMARK  status: ('A' for Active; 'I' for Inactive)
REMARK    1  A    between atoms: C_6  and  C_3 
ROOT
ATOM      1  N   UNL d   1      29.618  16.229 -23.675  0.00  0.00    -0.228 NA
ATOM      2  C   UNL d   1      29.062  15.733 -24.028  0.00  0.00     0.166 A 
ATOM      3  C   UNL d   1      30.266  16.279 -24.184  0.00  0.00     0.089 A 
ATOM      4  S   UNL d   1      29.361  15.480 -24.744  0.00  0.00    -0.055 SA
ATOM      5  C   UNL d   1      30.111  15.814 -24.851  0.00  0.00     0.057 A 
ATOM      6  S   UNL d   1      28.328  15.530 -23.707  0.00  0.00    -0.050 SA
ENDROOT
BRANCH   3   7
ATOM      7  C   UNL d   1      30.955  16.719 -24.051  0.00  0.00     0.018 A 
ATOM      8  C   UNL d   1      31.036  17.462 -24.389  0.00  0.00     0.002 A 
ATOM      9  C   UNL d   1      31.717  17.903 -24.261  0.00  0.00     0.000 A 
ATOM     10  C   UNL d   1      32.328  17.593 -23.786  0.00  0.00     0.000 A 
ATOM     11  C   UNL d   1      32.240  16.850 -23.452  0.00  0.00     0.000 A 
ATOM     12  C   UNL d   1      31.554  16.409 -23.582  0.00  0.00     0.002 A 
ENDBRANCH   3   7
TORSDOF 1
ENDMDL
MODEL 7
REMARK VINA RESULT:      -2.5      5.896      7.507
REMARK  1 active torsions:
REMARK  status: ('A' for Active; 'I' for Inactive)
REMARK    1  A    between atoms: C_6  and  C_3 
ROOT
ATOM      1  N   UNL d   1      32.591  18.417 -22.820  0.00  0.00    -0.228 NA
ATOM      2  C   UNL d   1      33.037  19.097 -22.954  0.00  0.00     0.166 A 
ATOM      3  C   UNL d   1      32.522  18.019 -23.540  0.00  0.00     0.089 A 
ATOM      4  S   UNL d   1      33.241  19.120 -23.744  0.00  0.00    -0.055 SA
ATOM      5  C   UNL d   1      32.925  18.452 -24.119  0.00  0.00     0.057 A 
ATOM      6  S   UNL d   1      33.241  19.658 -22.381  0.00  0.00    -0.050 SA
ENDROOT
BRANCH   3   7
ATOM      7  C   UNL d   1      32.118  17.306 -23.664  0.00  0.00     0.018 A 
ATOM      8  C   UNL d   1      32.471  16.596 -23.452  0.00  0.00     0.002 A 
ATOM      9  C   UNL d   1      32.075  15.886 -23.573  0.00  0.00     0.000 A 
ATOM     10  C   UNL d   1      31.314  15.888 -23.911  0.00  0.00     0.000 A 
ATOM     11  C   UNL d   1      30.969  16.602 -24.120  0.00  0.00     0.000 A 
ATOM     12  C   UNL d   1      31.368  17.314 -23.998  0.00  0.00     0.002 A 
ENDBRANCH   3   7
TORSDOF 1
ENDMDL
