MODEL 1
REMARK VINA RESULT:      -5.4      0.000      0.000
REMARK  8 active torsions:
REMARK  status: ('A' for Active; 'I' for Inactive)
REMARK    1  A    between atoms: C_2  and  S_1 
REMARK    2  A    between atoms: N_6  and  S_1 
REMARK    3  A    between atoms: C_3  and  C_14 
REMARK       I    between atoms: N_7  and  C_3 
REMARK    4  A    between atoms: C_17  and  N_6 
REMARK    5  A    between atoms: C_14  and  C_19 
REMARK    6  A    between atoms: C_20  and  C_17 
REMARK    7  A    between atoms: C_19  and  C_21 
REMARK    8  A    between atoms: C_21  and  C_20 
ROOT
ATOM      1  N   UNL d   1     -44.750  12.721  22.217  0.00  0.00    -0.157 NA
ENDROOT
BRANCH   1   2
ATOM      2  S   UNL d   1     -45.500  13.051  22.340  0.00  0.00     0.285 S 
ATOM      3  O   UNL d   1     -45.147  12.576  22.922  0.00  0.00    -0.198 OA
ATOM      4  O   UNL d   1     -45.096  13.192  21.632  0.00  0.00    -0.198 OA
BRANCH   2   5
ATOM      5  C   UNL d   1     -46.250  13.381  22.463  0.00  0.00     0.105 A 
ATOM      6  C   UNL d   1     -46.322  14.130  22.805  0.00  0.00     0.013 A 
ATOM      7  C   UNL d   1     -47.061  14.456  22.927  0.00  0.00     0.001 A 
ATOM      8  C   UNL d   1     -47.728  14.040  22.710  0.00  0.00     0.000 A 
ATOM      9  C   UNL d   1     -47.664  13.294  22.368  0.00  0.00     0.001 A 
ATOM     10  C   UNL d   1     -48.476  14.374  22.834  0.00  0.00     0.000 C 
ATOM     11  C   UNL d   1     -46.926  12.969  22.247  0.00  0.00     0.013 A 
ENDBRANCH   2   5
ENDBRANCH   1   2
BRANCH   1  12
ATOM     12  C   UNL d   1     -44.241  13.046  21.651  0.00  0.00     0.112 C 
BRANCH  12  13
ATOM     13  C   UNL d   1     -43.444  12.825  21.639  0.00  0.00     0.021 C 
BRANCH  13  14
ATOM     14  C   UNL d   1     -42.929  13.159  21.079  0.00  0.00     0.002 C 
BRANCH  14  15
ATOM     15  C   UNL d   1     -42.149  13.332  21.280  0.00  0.00     0.005 C 
BRANCH  15  16
ATOM     16  C   UNL d   1     -41.693  13.830  20.810  0.00  0.00     0.061 C 
BRANCH  16  17
ATOM     17  C   UNL d   1     -40.910  13.997  21.017  0.00  0.00     0.265 C 
ATOM     18  N   UNL d   1     -40.466  14.523  20.561  0.00  0.00    -0.269 N 
ATOM     19  C   UNL d   1     -39.679  14.687  20.774  0.00  0.00     0.102 C 
ATOM     20  C   UNL d   1     -40.805  14.881  19.896  0.00  0.00     0.102 C 
ATOM     21  O   UNL d   1     -40.574  13.637  21.682  0.00  0.00    -0.267 OA
ENDBRANCH  16  17
ENDBRANCH  15  16
ENDBRANCH  14  15
ENDBRANCH  13  14
ENDBRANCH  12  13
ENDBRANCH   1  12
TORSDOF 8
ENDMDL
MODEL 2
REMARK VINA RESULT:      -5.3      3.549      4.340
REMARK  8 active torsions:
REMARK  status: ('A' for Active; 'I' for Inactive)
REMARK    1  A    between atoms: C_2  and  S_1 
REMARK    2  A    between atoms: N_6  and  S_1 
REMARK    3  A    between atoms: C_3  and  C_14 
REMARK       I    between atoms: N_7  and  C_3 
REMARK    4  A    between atoms: C_17  and  N_6 
REMARK    5  A    between atoms: C_14  and  C_19 
REMARK    6  A    between atoms: C_20  and  C_17 
REMARK    7  A    between atoms: C_19  and  C_21 
REMARK    8  A    between atoms: C_21  and  C_20 
ROOT
ATOM      1  N   UNL d   1     -48.238  12.654  22.805  0.00  0.00    -0.157 NA
ENDROOT
BRANCH   1   2
ATOM      2  S   UNL d   1     -48.724  13.308  22.955  0.00  0.00     0.285 S 
ATOM      3  O   UNL d   1     -48.681  12.980  22.193  0.00  0.00    -0.198 OA
ATOM      4  O   UNL d   1     -48.276  12.976  23.566  0.00  0.00    -0.198 OA
BRANCH   2   5
ATOM      5  C   UNL d   1     -49.211  13.962  23.105  0.00  0.00     0.105 A 
ATOM      6  C   UNL d   1     -48.938  14.726  22.950  0.00  0.00     0.013 A 
ATOM      7  C   UNL d   1     -49.417  15.370  23.098  0.00  0.00     0.001 A 
ATOM      8  C   UNL d   1     -50.167  15.258  23.399  0.00  0.00     0.000 A 
ATOM      9  C   UNL d   1     -50.446  14.499  23.555  0.00  0.00     0.001 A 
ATOM     10  C   UNL d   1     -50.651  15.914  23.548  0.00  0.00     0.000 C 
ATOM     11  C   UNL d   1     -49.966  13.856  23.407  0.00  0.00     0.013 A 
ENDBRANCH   2   5
ENDBRANCH   1   2
BRANCH   1  12
ATOM     12  C   UNL d   1     -47.621  12.468  23.324  0.00  0.00     0.112 C 
BRANCH  12  13
ATOM     13  C   UNL d   1     -47.248  11.731  23.272  0.00  0.00     0.021 C 
BRANCH  13  14
ATOM     14  C   UNL d   1     -46.521  11.607  23.655  0.00  0.00     0.002 C 
BRANCH  14  15
ATOM     15  C   UNL d   1     -45.843  11.438  23.219  0.00  0.00     0.005 C 
BRANCH  15  16
ATOM     16  C   UNL d   1     -45.332  10.835  23.449  0.00  0.00     0.061 C 
BRANCH  16  17
ATOM     17  C   UNL d   1     -44.519  10.904  23.317  0.00  0.00     0.265 C 
ATOM     18  N   UNL d   1     -44.024  10.255  23.441  0.00  0.00    -0.269 N 
ATOM     19  C   UNL d   1     -43.207  10.330  23.305  0.00  0.00     0.102 C 
ATOM     20  C   UNL d   1     -44.344   9.536  23.698  0.00  0.00     0.102 C 
ATOM     21  O   UNL d   1     -44.203  11.625  23.059  0.00  0.00    -0.267 OA
ENDBRANCH  16  17
ENDBRANCH  15  16
ENDBRANCH  14  15
ENDBRANCH  13  14
ENDBRANCH  12  13
ENDBRANCH   1  12
TORSDOF 8
ENDMDL
MODEL 3
REMARK VINA RESULT:      -5.2      1.926      3.262
REMARK  8 active torsions:
REMARK  status: ('A' for Active; 'I' for Inactive)
REMARK    1  A    between atoms: C_2  and  S_1 
REMARK    2  A    between atoms: N_6  and  S_1 
REMARK    3  A    between atoms: C_3  and  C_14 
REMARK       I    between atoms: N_7  and  C_3 
REMARK    4  A    between atoms: C_17  and  N_6 
REMARK    5  A    between atoms: C_14  and  C_19 
REMARK    6  A    between atoms: C_20  and  C_17 
REMARK    7  A    between atoms: C_19  and  C_21 
REMARK    8  A    between atoms: C_21  and  C_20 
ROOT
ATOM      1  N   UNL d   1     -47.945  13.335  22.632  0.00  0.00    -0.157 NA
ENDROOT
BRANCH   1   2
ATOM      2  S   UNL d   1     -48.560  13.849  22.841  0.00  0.00     0.285 S 
ATOM      3  O   UNL d   1     -48.405  13.678  22.044  0.00  0.00    -0.198 OA
ATOM      4  O   UNL d   1     -48.094  13.501  23.429  0.00  0.00    -0.198 OA
BRANCH   2   5
ATOM      5  C   UNL d   1     -49.175  14.364  23.050  0.00  0.00     0.105 A 
ATOM      6  C   UNL d   1     -49.893  14.061  23.327  0.00  0.00     0.013 A 
ATOM      7  C   UNL d   1     -50.499  14.568  23.533  0.00  0.00     0.001 A 
ATOM      8  C   UNL d   1     -50.395  15.374  23.465  0.00  0.00     0.000 A 
ATOM      9  C   UNL d   1     -49.683  15.682  23.190  0.00  0.00     0.001 A 
ATOM     10  C   UNL d   1     -51.013  15.885  23.675  0.00  0.00     0.000 C 
ATOM     11  C   UNL d   1     -49.078  15.176  22.984  0.00  0.00     0.013 A 
ENDBRANCH   2   5
ENDBRANCH   1   2
BRANCH   1  12
ATOM     12  C   UNL d   1     -47.174  13.623  22.548  0.00  0.00     0.112 C 
BRANCH  12  13
ATOM     13  C   UNL d   1     -46.564  13.107  22.333  0.00  0.00     0.021 C 
BRANCH  13  14
ATOM     14  C   UNL d   1     -45.790  13.396  22.240  0.00  0.00     0.002 C 
BRANCH  14  15
ATOM     15  C   UNL d   1     -45.171  12.883  22.062  0.00  0.00     0.005 C 
BRANCH  15  16
ATOM     16  C   UNL d   1     -44.461  13.167  21.760  0.00  0.00     0.061 C 
BRANCH  16  17
ATOM     17  C   UNL d   1     -43.778  12.701  21.789  0.00  0.00     0.265 C 
ATOM     18  N   UNL d   1     -43.075  12.977  21.457  0.00  0.00    -0.269 N 
ATOM     19  C   UNL d   1     -42.392  12.504  21.489  0.00  0.00     0.102 C 
ATOM     20  C   UNL d   1     -43.055  13.721  21.094  0.00  0.00     0.102 C 
ATOM     21  O   UNL d   1     -43.803  11.958  22.152  0.00  0.00    -0.267 OA
ENDBRANCH  16  17
ENDBRANCH  15  16
ENDBRANCH  14  15
ENDBRANCH  13  14
ENDBRANCH  12  13
ENDBRANCH   1  12
TORSDOF 8
ENDMDL
MODEL 4
REMARK VINA RESULT:      -4.8      2.982      6.123
REMARK  8 active torsions:
REMARK  status: ('A' for Active; 'I' for Inactive)
REMARK    1  A    between atoms: C_2  and  S_1 
REMARK    2  A    between atoms: N_6  and  S_1 
REMARK    3  A    between atoms: C_3  and  C_14 
REMARK       I    between atoms: N_7  and  C_3 
REMARK    4  A    between atoms: C_17  and  N_6 
REMARK    5  A    between atoms: C_14  and  C_19 
REMARK    6  A    between atoms: C_20  and  C_17 
REMARK    7  A    between atoms: C_19  and  C_21 
REMARK    8  A    between atoms: C_21  and  C_20 
ROOT
ATOM      1  N   UNL d   1     -45.835  13.161  22.509  0.00  0.00    -0.157 NA
ENDROOT
BRANCH   1   2
ATOM      2  S   UNL d   1     -45.448  12.470  22.749  0.00  0.00     0.285 S 
ATOM      3  O   UNL d   1     -46.078  12.776  23.194  0.00  0.00    -0.198 OA
ATOM      4  O   UNL d   1     -45.209  12.861  22.061  0.00  0.00    -0.198 OA
BRANCH   2   5
ATOM      5  C   UNL d   1     -45.061  11.777  22.988  0.00  0.00     0.105 A 
ATOM      6  C   UNL d   1     -44.268  11.655  22.790  0.00  0.00     0.013 A 
ATOM      7  C   UNL d   1     -43.886  10.973  23.026  0.00  0.00     0.001 A 
ATOM      8  C   UNL d   1     -44.289  10.412  23.458  0.00  0.00     0.000 A 
ATOM      9  C   UNL d   1     -45.079  10.526  23.660  0.00  0.00     0.001 A 
ATOM     10  C   UNL d   1     -43.898   9.721  23.696  0.00  0.00     0.000 C 
ATOM     11  C   UNL d   1     -45.460  11.208  23.424  0.00  0.00     0.013 A 
ENDBRANCH   2   5
ENDBRANCH   1   2
BRANCH   1  12
ATOM     12  C   UNL d   1     -46.487  13.441  22.936  0.00  0.00     0.112 C 
BRANCH  12  13
ATOM     13  C   UNL d   1     -46.960  14.041  22.618  0.00  0.00     0.021 C 
BRANCH  13  14
ATOM     14  C   UNL d   1     -47.558  14.387  23.080  0.00  0.00     0.002 C 
BRANCH  14  15
ATOM     15  C   UNL d   1     -48.212  14.736  22.723  0.00  0.00     0.005 C 
BRANCH  15  16
ATOM     16  C   UNL d   1     -48.964  14.653  23.047  0.00  0.00     0.061 C 
BRANCH  16  17
ATOM     17  C   UNL d   1     -49.601  15.082  22.738  0.00  0.00     0.265 C 
ATOM     18  N   UNL d   1     -50.356  14.987  23.058  0.00  0.00    -0.269 N 
ATOM     19  C   UNL d   1     -50.992  15.421  22.744  0.00  0.00     0.102 C 
ATOM     20  C   UNL d   1     -50.474  14.462  23.687  0.00  0.00     0.102 C 
ATOM     21  O   UNL d   1     -49.478  15.606  22.109  0.00  0.00    -0.267 OA
ENDBRANCH  16  17
ENDBRANCH  15  16
ENDBRANCH  14  15
ENDBRANCH  13  14
ENDBRANCH  12  13
ENDBRANCH   1  12
TORSDOF 8
ENDMDL
