MODEL 1
REMARK VINA RESULT:      45.0      0.000      0.000
REMARK  5 active torsions:
REMARK  status: ('A' for Active; 'I' for Inactive)
REMARK    1  A    between atoms: N_3  and  C_1 
REMARK       I    between atoms: C_9  and  N_3 
REMARK       I    between atoms: N_7  and  C_8 
REMARK    2  A    between atoms: C_8  and  C_14 
REMARK    3  A    between atoms: C_15  and  C_9 
REMARK    4  A    between atoms: S_12  and  C_15 
REMARK    5  A    between atoms: C_14  and  S_12 
ROOT
ATOM      1  N   UNL d   1     -50.959  26.580  33.339  0.00  0.00    -0.183 NA
ATOM      2  C   UNL d   1     -50.153  26.426  33.449  0.00  0.00     0.287 C 
ATOM      3  O   UNL d   1     -49.885  25.644  33.522  0.00  0.00    -0.265 OA
ENDROOT
BRANCH   2   4
ATOM      4  C   UNL d   1     -49.614  27.042  33.486  0.00  0.00     0.098 C 
BRANCH   4   5
ATOM      5  S   UNL d   1     -49.590  27.542  34.148  0.00  0.00    -0.076 SA
BRANCH   5   6
ATOM      6  C   UNL d   1     -48.952  28.055  34.257  0.00  0.00     0.097 C 
BRANCH   6   7
ATOM      7  C   UNL d   1     -48.663  28.205  35.013  0.00  0.00     0.271 C 
ATOM      8  N   UNL d   1     -48.234  28.890  35.155  0.00  0.00    -0.272 N 
ATOM      9  C   UNL d   1     -48.104  29.413  34.530  0.00  0.00     0.083 A 
ATOM     10  C   UNL d   1     -47.946  29.043  35.898  0.00  0.00     0.083 A 
ATOM     11  C   UNL d   1     -47.673  30.104  34.670  0.00  0.00     0.019 A 
ATOM     12  C   UNL d   1     -47.381  30.263  35.416  0.00  0.00     0.003 A 
ATOM     13  C   UNL d   1     -47.514  29.736  36.039  0.00  0.00     0.019 A 
ATOM     14  O   UNL d   1     -48.804  27.670  35.623  0.00  0.00    -0.266 OA
ENDBRANCH   6   7
ENDBRANCH   5   6
ENDBRANCH   4   5
ENDBRANCH   2   4
BRANCH   1  15
ATOM     15  C   UNL d   1     -51.318  25.834  33.331  0.00  0.00     0.182 A 
ATOM     16  N   UNL d   1     -52.131  25.684  33.326  0.00  0.00    -0.283 N 
ATOM     17  C   UNL d   1     -52.243  24.863  33.319  0.00  0.00     0.072 A 
ATOM     18  C   UNL d   1     -52.718  26.254  33.327  0.00  0.00     0.101 C 
ATOM     19  C   UNL d   1     -52.917  24.396  33.311  0.00  0.00     0.017 A 
ATOM     20  C   UNL d   1     -51.499  24.505  33.320  0.00  0.00     0.048 A 
ATOM     21  C   UNL d   1     -52.858  23.584  33.306  0.00  0.00    -0.011 A 
ATOM     22  C   UNL d   1     -52.114  23.226  33.307  0.00  0.00     0.027 A 
ATOM     23  C   UNL d   1     -51.427  23.679  33.314  0.00  0.00    -0.004 A 
ATOM     24  S   UNL d   1     -50.924  25.103  33.328  0.00  0.00    -0.048 SA
ENDBRANCH   1  15
TORSDOF 5
ENDMDL
