MODEL 1
REMARK VINA RESULT:      19.3      0.000      0.000
REMARK  5 active torsions:
REMARK  status: ('A' for Active; 'I' for Inactive)
REMARK    1  A    between atoms: N_2  and  C_1 
REMARK    2  A    between atoms: C_9  and  C_5 
REMARK    3  A    between atoms: C_6  and  C_10 
REMARK       I    between atoms: N_11  and  C_6 
REMARK    4  A    between atoms: C_8  and  N_11 
REMARK    5  A    between atoms: C_10  and  C_9 
ROOT
ATOM      1  C   UNL d   1     -56.488 -98.783 -44.313  0.00  0.00     0.279 C 
ATOM      2  N   UNL d   1     -57.037 -98.763 -43.691  0.00  0.00    -0.208 NA
ATOM      3  O   UNL d   1     -56.736 -98.806 -45.101  0.00  0.00    -0.265 OA
ENDROOT
BRANCH   1   4
ATOM      4  C   UNL d   1     -55.691 -98.780 -44.143  0.00  0.00     0.063 C 
BRANCH   4   5
ATOM      5  C   UNL d   1     -55.175 -99.236 -44.600  0.00  0.00     0.011 C 
BRANCH   5   6
ATOM      6  C   UNL d   1     -55.061-100.038 -44.411  0.00  0.00     0.031 A 
ATOM      7  S   UNL d   1     -55.189-100.730 -44.827  0.00  0.00    -0.064 SA
ATOM      8  C   UNL d   1     -54.975-101.368 -44.363  0.00  0.00     0.156 A 
ATOM      9  C   UNL d   1     -54.712-101.059 -43.650  0.00  0.00     0.031 A 
ATOM     10  C   UNL d   1     -54.760-100.243 -43.669  0.00  0.00     0.009 A 
BRANCH   8  11
ATOM     11  N   UNL d   1     -55.014-102.174 -44.566  0.00  0.00    -0.107 N 
ATOM     12  O   UNL d   1     -54.936-102.744 -43.975  0.00  0.00    -0.531 OA
ATOM     13  O   UNL d   1     -55.132-102.396 -45.357  0.00  0.00    -0.531 OA
ENDBRANCH   8  11
ENDBRANCH   5   6
ENDBRANCH   4   5
ENDBRANCH   1   4
BRANCH   2  14
ATOM     14  C   UNL d   1     -57.846 -98.765 -43.864  0.00  0.00     0.085 A 
ATOM     15  C   UNL d   1     -58.099 -98.759 -44.633  0.00  0.00     0.019 A 
ATOM     16  C   UNL d   1     -58.899 -98.762 -44.804  0.00  0.00     0.002 A 
ATOM     17  C   UNL d   1     -59.169 -98.756 -45.591  0.00  0.00     0.000 C 
ATOM     18  C   UNL d   1     -59.431 -98.771 -44.202  0.00  0.00     0.000 A 
ATOM     19  C   UNL d   1     -59.193 -98.778 -43.412  0.00  0.00     0.002 A 
ATOM     20  C   UNL d   1     -58.396 -98.775 -43.242  0.00  0.00     0.019 A 
ATOM     21  C   UNL d   1     -59.744 -98.787 -42.794  0.00  0.00     0.000 C 
ENDBRANCH   2  14
TORSDOF 5
ENDMDL
