MODEL 1
REMARK VINA RESULT:      -8.3      0.000      0.000
REMARK  3 active torsions:
REMARK  status: ('A' for Active; 'I' for Inactive)
REMARK    1  A    between atoms: C_6  and  C_1 
REMARK    2  A    between atoms: O_18  and  C_11 
REMARK    3  A    between atoms: O_19  and  C_13 
ROOT
ATOM      1  C   UNL d   1     -47.983  13.758  22.865  0.00  0.00     0.064 A 
ATOM      2  C   UNL d   1     -47.937  13.025  23.253  0.00  0.00     0.199 A 
ATOM      3  C   UNL d   1     -47.224  12.616  23.282  0.00  0.00     0.062 A 
ATOM      4  C   UNL d   1     -47.310  14.076  22.509  0.00  0.00     0.126 A 
ATOM      5  C   UNL d   1     -46.551  12.934  22.925  0.00  0.00     0.106 A 
ATOM      6  O   UNL d   1     -46.591  13.660  22.540  0.00  0.00    -0.305 OA
ATOM      7  C   UNL d   1     -47.182  11.890  23.667  0.00  0.00     0.009 A 
ATOM      8  C   UNL d   1     -45.836  12.524  22.954  0.00  0.00     0.067 A 
ATOM      9  O   UNL d   1     -48.610  12.708  23.609  0.00  0.00    -0.286 OA
ATOM     10  C   UNL d   1     -45.796  11.798  23.339  0.00  0.00     0.198 A 
ATOM     11  C   UNL d   1     -46.469  11.481  23.695  0.00  0.00     0.042 A 
ATOM     12  O   UNL d   1     -45.075  11.379  23.371  0.00  0.00    -0.286 OA
ENDROOT
BRANCH   1  13
ATOM     13  C   UNL d   1     -48.696  14.167  22.837  0.00  0.00     0.007 A 
ATOM     14  C   UNL d   1     -49.244  14.003  22.240  0.00  0.00     0.026 A 
ATOM     15  C   UNL d   1     -49.958  14.412  22.210  0.00  0.00     0.116 A 
ATOM     16  C   UNL d   1     -50.128  14.987  22.777  0.00  0.00     0.116 A 
ATOM     17  C   UNL d   1     -49.580  15.152  23.375  0.00  0.00     0.026 A 
ATOM     18  C   UNL d   1     -48.866  14.742  23.403  0.00  0.00     0.002 A 
BRANCH  15  19
ATOM     19  O   UNL d   1     -50.502  14.247  21.615  0.00  0.00    -0.326 OA
ATOM     20  C   UNL d   1     -50.582  13.477  21.331  0.00  0.00     0.181 C 
ENDBRANCH  15  19
BRANCH  16  21
ATOM     21  O   UNL d   1     -50.843  15.402  22.755  0.00  0.00    -0.326 OA
ATOM     22  C   UNL d   1     -51.064  15.875  23.401  0.00  0.00     0.181 C 
ENDBRANCH  16  21
ENDBRANCH   1  13
TORSDOF 3
ENDMDL
MODEL 2
REMARK VINA RESULT:      -8.0      0.512      1.108
REMARK  3 active torsions:
REMARK  status: ('A' for Active; 'I' for Inactive)
REMARK    1  A    between atoms: C_6  and  C_1 
REMARK    2  A    between atoms: O_18  and  C_11 
REMARK    3  A    between atoms: O_19  and  C_13 
ROOT
ATOM      1  C   UNL d   1     -48.209  13.471  23.005  0.00  0.00     0.064 A 
ATOM      2  C   UNL d   1     -47.471  13.709  22.708  0.00  0.00     0.199 A 
ATOM      3  C   UNL d   1     -46.815  13.219  22.789  0.00  0.00     0.062 A 
ATOM      4  C   UNL d   1     -48.282  12.741  23.383  0.00  0.00     0.126 A 
ATOM      5  C   UNL d   1     -46.887  12.490  23.167  0.00  0.00     0.106 A 
ATOM      6  O   UNL d   1     -47.617  12.249  23.464  0.00  0.00    -0.305 OA
ATOM      7  C   UNL d   1     -46.085  13.459  22.492  0.00  0.00     0.009 A 
ATOM      8  C   UNL d   1     -46.230  11.999  23.248  0.00  0.00     0.067 A 
ATOM      9  O   UNL d   1     -47.398  14.438  22.329  0.00  0.00    -0.286 OA
ATOM     10  C   UNL d   1     -45.501  12.240  22.951  0.00  0.00     0.198 A 
ATOM     11  C   UNL d   1     -45.428  12.970  22.573  0.00  0.00     0.042 A 
ATOM     12  O   UNL d   1     -44.832  11.747  23.031  0.00  0.00    -0.286 OA
ENDROOT
BRANCH   1  13
ATOM     13  C   UNL d   1     -48.865  13.960  22.924  0.00  0.00     0.007 A 
ATOM     14  C   UNL d   1     -49.443  13.788  22.358  0.00  0.00     0.026 A 
ATOM     15  C   UNL d   1     -50.100  14.277  22.276  0.00  0.00     0.116 A 
ATOM     16  C   UNL d   1     -50.183  14.941  22.760  0.00  0.00     0.116 A 
ATOM     17  C   UNL d   1     -49.605  15.114  23.327  0.00  0.00     0.026 A 
ATOM     18  C   UNL d   1     -48.948  14.624  23.408  0.00  0.00     0.002 A 
BRANCH  15  19
ATOM     19  O   UNL d   1     -50.673  14.104  21.713  0.00  0.00    -0.326 OA
ATOM     20  C   UNL d   1     -50.762  13.331  21.438  0.00  0.00     0.181 C 
ENDBRANCH  15  19
BRANCH  16  21
ATOM     21  O   UNL d   1     -50.840  15.437  22.684  0.00  0.00    -0.326 OA
ATOM     22  C   UNL d   1     -51.064  15.922  23.320  0.00  0.00     0.181 C 
ENDBRANCH  16  21
ENDBRANCH   1  13
TORSDOF 3
ENDMDL
MODEL 3
REMARK VINA RESULT:      -6.1      1.395      2.209
REMARK  3 active torsions:
REMARK  status: ('A' for Active; 'I' for Inactive)
REMARK    1  A    between atoms: C_6  and  C_1 
REMARK    2  A    between atoms: O_18  and  C_11 
REMARK    3  A    between atoms: O_19  and  C_13 
ROOT
ATOM      1  C   UNL d   1     -47.349  12.622  23.080  0.00  0.00     0.064 A 
ATOM      2  C   UNL d   1     -46.993  12.837  22.360  0.00  0.00     0.199 A 
ATOM      3  C   UNL d   1     -46.180  12.767  22.264  0.00  0.00     0.062 A 
ATOM      4  C   UNL d   1     -46.883  12.338  23.698  0.00  0.00     0.126 A 
ATOM      5  C   UNL d   1     -45.713  12.483  22.883  0.00  0.00     0.106 A 
ATOM      6  O   UNL d   1     -46.061  12.269  23.597  0.00  0.00    -0.305 OA
ATOM      7  C   UNL d   1     -45.831  12.981  21.550  0.00  0.00     0.009 A 
ATOM      8  C   UNL d   1     -44.898  12.413  22.787  0.00  0.00     0.067 A 
ATOM      9  O   UNL d   1     -47.460  13.121  21.742  0.00  0.00    -0.286 OA
ATOM     10  C   UNL d   1     -44.550  12.627  22.072  0.00  0.00     0.198 A 
ATOM     11  C   UNL d   1     -45.017  12.911  21.453  0.00  0.00     0.042 A 
ATOM     12  O   UNL d   1     -43.725  12.558  21.969  0.00  0.00    -0.286 OA
ENDROOT
BRANCH   1  13
ATOM     13  C   UNL d   1     -48.163  12.692  23.176  0.00  0.00     0.007 A 
ATOM     14  C   UNL d   1     -48.505  13.437  23.283  0.00  0.00     0.026 A 
ATOM     15  C   UNL d   1     -49.320  13.507  23.379  0.00  0.00     0.116 A 
ATOM     16  C   UNL d   1     -49.796  12.834  23.369  0.00  0.00     0.116 A 
ATOM     17  C   UNL d   1     -49.455  12.088  23.262  0.00  0.00     0.026 A 
ATOM     18  C   UNL d   1     -48.639  12.018  23.166  0.00  0.00     0.002 A 
BRANCH  15  19
ATOM     19  O   UNL d   1     -49.658  14.250  23.485  0.00  0.00    -0.326 OA
ATOM     20  C   UNL d   1     -49.245  14.928  23.261  0.00  0.00     0.181 C 
ENDBRANCH  15  19
BRANCH  16  21
ATOM     21  O   UNL d   1     -50.616  12.897  23.465  0.00  0.00    -0.326 OA
ATOM     22  C   UNL d   1     -51.064  12.215  23.618  0.00  0.00     0.181 C 
ENDBRANCH  16  21
ENDBRANCH   1  13
TORSDOF 3
ENDMDL
MODEL 4
REMARK VINA RESULT:      -5.8      8.556      9.931
REMARK  3 active torsions:
REMARK  status: ('A' for Active; 'I' for Inactive)
REMARK    1  A    between atoms: C_6  and  C_1 
REMARK    2  A    between atoms: O_18  and  C_11 
REMARK    3  A    between atoms: O_19  and  C_13 
ROOT
ATOM      1  C   UNL d   1     -39.911  14.965  20.217  0.00  0.00     0.064 A 
ATOM      2  C   UNL d   1     -39.599  15.392  19.577  0.00  0.00     0.199 A 
ATOM      3  C   UNL d   1     -39.934  15.319  18.829  0.00  0.00     0.062 A 
ATOM      4  C   UNL d   1     -40.558  14.467  20.100  0.00  0.00     0.126 A 
ATOM      5  C   UNL d   1     -40.581  14.821  18.712  0.00  0.00     0.106 A 
ATOM      6  O   UNL d   1     -40.894  14.396  19.344  0.00  0.00    -0.305 OA
ATOM      7  C   UNL d   1     -39.622  15.745  18.196  0.00  0.00     0.009 A 
ATOM      8  C   UNL d   1     -40.917  14.748  17.963  0.00  0.00     0.067 A 
ATOM      9  O   UNL d   1     -38.952  15.890  19.693  0.00  0.00    -0.286 OA
ATOM     10  C   UNL d   1     -40.604  15.174  17.332  0.00  0.00     0.198 A 
ATOM     11  C   UNL d   1     -39.957  15.672  17.448  0.00  0.00     0.042 A 
ATOM     12  O   UNL d   1     -40.940  15.104  16.571  0.00  0.00    -0.286 OA
ENDROOT
BRANCH   1  13
ATOM     13  C   UNL d   1     -39.576  15.037  20.965  0.00  0.00     0.007 A 
ATOM     14  C   UNL d   1     -39.013  14.489  21.222  0.00  0.00     0.026 A 
ATOM     15  C   UNL d   1     -38.678  14.561  21.970  0.00  0.00     0.116 A 
ATOM     16  C   UNL d   1     -38.903  15.181  22.466  0.00  0.00     0.116 A 
ATOM     17  C   UNL d   1     -39.467  15.730  22.209  0.00  0.00     0.026 A 
ATOM     18  C   UNL d   1     -39.802  15.657  21.460  0.00  0.00     0.002 A 
BRANCH  15  19
ATOM     19  O   UNL d   1     -38.118  14.014  22.224  0.00  0.00    -0.326 OA
ATOM     20  C   UNL d   1     -38.090  13.263  21.883  0.00  0.00     0.181 C 
ENDBRANCH  15  19
BRANCH  16  21
ATOM     21  O   UNL d   1     -38.571  15.260  23.219  0.00  0.00    -0.326 OA
ATOM     22  C   UNL d   1     -38.760  15.922  23.684  0.00  0.00     0.181 C 
ENDBRANCH  16  21
ENDBRANCH   1  13
TORSDOF 3
ENDMDL
MODEL 5
REMARK VINA RESULT:      -5.6      8.321     10.257
REMARK  3 active torsions:
REMARK  status: ('A' for Active; 'I' for Inactive)
REMARK    1  A    between atoms: C_6  and  C_1 
REMARK    2  A    between atoms: O_18  and  C_11 
REMARK    3  A    between atoms: O_19  and  C_13 
ROOT
ATOM      1  C   UNL d   1     -39.184  15.264  18.949  0.00  0.00     0.064 A 
ATOM      2  C   UNL d   1     -38.952  14.505  18.705  0.00  0.00     0.199 A 
ATOM      3  C   UNL d   1     -38.845  14.341  17.906  0.00  0.00     0.062 A 
ATOM      4  C   UNL d   1     -39.309  15.854  18.386  0.00  0.00     0.126 A 
ATOM      5  C   UNL d   1     -38.970  14.931  17.344  0.00  0.00     0.106 A 
ATOM      6  O   UNL d   1     -39.201  15.685  17.580  0.00  0.00    -0.305 OA
ATOM      7  C   UNL d   1     -38.614  13.587  17.668  0.00  0.00     0.009 A 
ATOM      8  C   UNL d   1     -38.864  14.768  16.543  0.00  0.00     0.067 A 
ATOM      9  O   UNL d   1     -38.827  13.914  19.268  0.00  0.00    -0.286 OA
ATOM     10  C   UNL d   1     -38.633  14.014  16.307  0.00  0.00     0.198 A 
ATOM     11  C   UNL d   1     -38.508  13.424  16.869  0.00  0.00     0.042 A 
ATOM     12  O   UNL d   1     -38.524  13.843  15.497  0.00  0.00    -0.286 OA
ENDROOT
BRANCH   1  13
ATOM     13  C   UNL d   1     -39.291  15.427  19.748  0.00  0.00     0.007 A 
ATOM     14  C   UNL d   1     -40.051  15.425  20.074  0.00  0.00     0.026 A 
ATOM     15  C   UNL d   1     -40.158  15.589  20.874  0.00  0.00     0.116 A 
ATOM     16  C   UNL d   1     -39.506  15.755  21.352  0.00  0.00     0.116 A 
ATOM     17  C   UNL d   1     -38.745  15.757  21.027  0.00  0.00     0.026 A 
ATOM     18  C   UNL d   1     -38.639  15.593  20.226  0.00  0.00     0.002 A 
BRANCH  15  19
ATOM     19  O   UNL d   1     -40.915  15.587  21.196  0.00  0.00    -0.326 OA
ATOM     20  C   UNL d   1     -41.545  15.908  20.771  0.00  0.00     0.181 C 
ENDBRANCH  15  19
BRANCH  16  21
ATOM     21  O   UNL d   1     -39.605  15.920  22.156  0.00  0.00    -0.326 OA
ATOM     22  C   UNL d   1     -38.951  15.885  22.667  0.00  0.00     0.181 C 
ENDBRANCH  16  21
ENDBRANCH   1  13
TORSDOF 3
ENDMDL
