MODEL 1
REMARK VINA RESULT:      44.8      0.000      0.000
REMARK  8 active torsions:
REMARK  status: ('A' for Active; 'I' for Inactive)
REMARK    1  A    between atoms: C_2  and  S_1 
REMARK    2  A    between atoms: N_8  and  S_1 
REMARK    3  A    between atoms: C_13  and  N_8 
REMARK    4  A    between atoms: N_9  and  C_14 
REMARK    5  A    between atoms: O_15  and  C_10 
REMARK    6  A    between atoms: C_14  and  C_13 
REMARK    7  A    between atoms: C_22  and  O_15 
REMARK    8  A    between atoms: C_23  and  C_22 
ROOT
ATOM      1  C   UNL d   1     -54.769-101.512 -41.952  0.00  0.00     0.105 A 
ATOM      2  C   UNL d   1     -54.835-101.582 -42.771  0.00  0.00     0.014 A 
ATOM      3  C   UNL d   1     -54.849-100.906 -43.246  0.00  0.00     0.024 A 
ATOM      4  C   UNL d   1     -54.717-100.771 -41.607  0.00  0.00     0.015 A 
ATOM      5  C   UNL d   1     -54.797-100.158 -42.892  0.00  0.00     0.100 A 
ATOM      6  C   UNL d   1     -54.731-100.092 -42.079  0.00  0.00     0.025 A 
ATOM      7  C   UNL d   1     -54.886-102.322 -43.114  0.00  0.00     0.001 A 
ATOM      8  C   UNL d   1     -54.915-100.977 -44.060  0.00  0.00     0.002 A 
ATOM      9  C   UNL d   1     -54.952-102.397 -43.928  0.00  0.00     0.000 A 
ATOM     10  C   UNL d   1     -54.967-101.722 -44.408  0.00  0.00     0.000 A 
ENDROOT
BRANCH   1  11
ATOM     11  S   UNL d   1     -54.755-102.190 -41.480  0.00  0.00     0.285 S 
ATOM     12  O   UNL d   1     -54.750-102.658 -42.154  0.00  0.00    -0.198 OA
ATOM     13  O   UNL d   1     -54.760-101.717 -40.800  0.00  0.00    -0.198 OA
BRANCH  11  14
ATOM     14  N   UNL d   1     -54.741-102.866 -41.010  0.00  0.00    -0.155 NA
BRANCH  14  15
ATOM     15  C   UNL d   1     -55.130-102.864 -40.280  0.00  0.00     0.131 C 
BRANCH  15  16
ATOM     16  C   UNL d   1     -54.738-102.580 -39.610  0.00  0.00     0.102 C 
BRANCH  16  17
ATOM     17  N   UNL d   1     -55.162-102.411 -38.928  0.00  0.00    -0.298 N 
ATOM     18  C   UNL d   1     -55.928-102.699 -38.835  0.00  0.00     0.107 A 
ATOM     19  C   UNL d   1     -56.356-102.531 -38.149  0.00  0.00     0.142 A 
ATOM     20  O   UNL d   1     -56.014-102.072 -37.554  0.00  0.00    -0.300 OA
ATOM     21  C   UNL d   1     -55.244-101.782 -37.646  0.00  0.00     0.142 A 
ATOM     22  C   UNL d   1     -54.819-101.952 -38.333  0.00  0.00     0.107 A 
ENDBRANCH  16  17
ENDBRANCH  15  16
ENDBRANCH  14  15
ENDBRANCH  11  14
ENDBRANCH   1  11
BRANCH   5  23
ATOM     23  O   UNL d   1     -54.811 -99.481 -43.363  0.00  0.00    -0.305 OA
BRANCH  23  24
ATOM     24  C   UNL d   1     -55.114 -99.514 -44.123  0.00  0.00     0.123 C 
BRANCH  24  25
ATOM     25  C   UNL d   1     -55.176 -98.828 -44.574  0.00  0.00     0.027 C 
ATOM     26  C   UNL d   1     -55.682 -98.806 -45.226  0.00  0.00     0.002 C 
ENDBRANCH  24  25
ENDBRANCH  23  24
ENDBRANCH   5  23
TORSDOF 8
ENDMDL
