MODEL 1
REMARK VINA RESULT:      -4.7      0.000      0.000
REMARK  3 active torsions:
REMARK  status: ('A' for Active; 'I' for Inactive)
REMARK    1  A    between atoms: N_2  and  C_1 
REMARK    2  A    between atoms: N_3  and  C_1 
REMARK       I    between atoms: C_4  and  N_2 
REMARK    3  A    between atoms: C_9  and  C_4 
ROOT
ATOM      1  C   UNL d   1      58.377   0.030  30.018  0.00  0.00     0.209 C 
ATOM      2  S   UNL d   1      58.049   0.680  29.635  0.00  0.00    -0.038 SA
ENDROOT
BRANCH   1   3
ATOM      3  N   UNL d   1      58.046  -0.227  30.734  0.00  0.00    -0.180 NA
ATOM      4  C   UNL d   1      57.331   0.102  30.988  0.00  0.00     0.281 C 
ATOM      5  O   UNL d   1      56.948   0.680  30.537  0.00  0.00    -0.265 OA
BRANCH   4   6
ATOM      6  C   UNL d   1      56.999  -0.148  31.697  0.00  0.00     0.058 A 
ATOM      7  C   UNL d   1      57.010   0.347  32.365  0.00  0.00     0.005 A 
ATOM      8  C   UNL d   1      56.679   0.100  33.074  0.00  0.00     0.000 A 
ATOM      9  C   UNL d   1      56.330  -0.654  33.123  0.00  0.00     0.000 A 
ATOM     10  C   UNL d   1      56.319  -1.148  32.461  0.00  0.00     0.000 A 
ATOM     11  C   UNL d   1      56.653  -0.891  31.753  0.00  0.00     0.005 A 
ENDBRANCH   4   6
ENDBRANCH   1   3
BRANCH   1  12
ATOM     12  N   UNL d   1      59.021  -0.360  29.696  0.00  0.00    -0.281 N 
ATOM     13  C   UNL d   1      58.905  -1.052  29.258  0.00  0.00     0.082 A 
ATOM     14  C   UNL d   1      59.562  -1.447  28.933  0.00  0.00     0.019 A 
ATOM     15  C   UNL d   1      60.322  -1.148  29.048  0.00  0.00     0.003 A 
ATOM     16  C   UNL d   1      60.431  -0.460  29.484  0.00  0.00     0.019 A 
ATOM     17  C   UNL d   1      60.970  -1.537  28.727  0.00  0.00     0.000 C 
ATOM     18  C   UNL d   1      59.781  -0.064  29.809  0.00  0.00     0.082 A 
ENDBRANCH   1  12
TORSDOF 3
ENDMDL
MODEL 2
REMARK VINA RESULT:      -4.3      0.855      4.130
REMARK  3 active torsions:
REMARK  status: ('A' for Active; 'I' for Inactive)
REMARK    1  A    between atoms: N_2  and  C_1 
REMARK    2  A    between atoms: N_3  and  C_1 
REMARK       I    between atoms: C_4  and  N_2 
REMARK    3  A    between atoms: C_9  and  C_4 
ROOT
ATOM      1  C   UNL d   1      57.600  -0.052  30.723  0.00  0.00     0.209 C 
ATOM      2  S   UNL d   1      57.649   0.681  30.354  0.00  0.00    -0.038 SA
ENDROOT
BRANCH   1   3
ATOM      3  N   UNL d   1      58.047  -0.686  30.426  0.00  0.00    -0.180 NA
ATOM      4  C   UNL d   1      58.431  -0.601  29.700  0.00  0.00     0.281 C 
ATOM      5  O   UNL d   1      58.374   0.103  29.271  0.00  0.00    -0.265 OA
BRANCH   4   6
ATOM      6  C   UNL d   1      58.875  -1.226  29.401  0.00  0.00     0.058 A 
ATOM      7  C   UNL d   1      58.506  -1.935  29.177  0.00  0.00     0.005 A 
ATOM      8  C   UNL d   1      58.946  -2.560  28.878  0.00  0.00     0.000 A 
ATOM      9  C   UNL d   1      59.771  -2.480  28.801  0.00  0.00     0.000 A 
ATOM     10  C   UNL d   1      60.141  -1.776  29.024  0.00  0.00     0.000 A 
ATOM     11  C   UNL d   1      59.689  -1.154  29.322  0.00  0.00     0.005 A 
ENDBRANCH   4   6
ENDBRANCH   1   3
BRANCH   1  12
ATOM     12  N   UNL d   1      57.115  -0.157  31.375  0.00  0.00    -0.281 N 
ATOM     13  C   UNL d   1      56.842   0.502  31.793  0.00  0.00     0.082 A 
ATOM     14  C   UNL d   1      56.349   0.392  32.456  0.00  0.00     0.019 A 
ATOM     15  C   UNL d   1      56.137  -0.369  32.691  0.00  0.00     0.003 A 
ATOM     16  C   UNL d   1      56.412  -1.020  32.271  0.00  0.00     0.019 A 
ATOM     17  C   UNL d   1      55.651  -0.478  33.344  0.00  0.00     0.000 C 
ATOM     18  C   UNL d   1      56.901  -0.916  31.613  0.00  0.00     0.082 A 
ENDBRANCH   1  12
TORSDOF 3
ENDMDL
MODEL 3
REMARK VINA RESULT:      -3.9      1.403      4.278
REMARK  3 active torsions:
REMARK  status: ('A' for Active; 'I' for Inactive)
REMARK    1  A    between atoms: N_2  and  C_1 
REMARK    2  A    between atoms: N_3  and  C_1 
REMARK       I    between atoms: C_4  and  N_2 
REMARK    3  A    between atoms: C_9  and  C_4 
ROOT
ATOM      1  C   UNL d   1      57.566   0.313  32.060  0.00  0.00     0.209 C 
ATOM      2  S   UNL d   1      58.189   0.682  32.450  0.00  0.00    -0.038 SA
ENDROOT
BRANCH   1   3
ATOM      3  N   UNL d   1      57.633   0.156  31.248  0.00  0.00    -0.180 NA
ATOM      4  C   UNL d   1      58.365   0.257  30.877  0.00  0.00     0.281 C 
ATOM      5  O   UNL d   1      59.024   0.511  31.307  0.00  0.00    -0.265 OA
BRANCH   4   6
ATOM      6  C   UNL d   1      58.437   0.103  30.073  0.00  0.00     0.058 A 
ATOM      7  C   UNL d   1      58.230   0.681  29.514  0.00  0.00     0.005 A 
ATOM      8  C   UNL d   1      58.300   0.531  28.710  0.00  0.00     0.000 A 
ATOM      9  C   UNL d   1      58.582  -0.209  28.455  0.00  0.00     0.000 A 
ATOM     10  C   UNL d   1      58.789  -0.787  29.009  0.00  0.00     0.000 A 
ATOM     11  C   UNL d   1      58.714  -0.625  29.814  0.00  0.00     0.005 A 
ENDBRANCH   4   6
ENDBRANCH   1   3
BRANCH   1  12
ATOM     12  N   UNL d   1      56.887   0.103  32.468  0.00  0.00    -0.281 N 
ATOM     13  C   UNL d   1      56.670  -0.694  32.520  0.00  0.00     0.082 A 
ATOM     14  C   UNL d   1      55.980  -0.905  32.935  0.00  0.00     0.019 A 
ATOM     15  C   UNL d   1      55.517  -0.322  33.290  0.00  0.00     0.003 A 
ATOM     16  C   UNL d   1      55.738   0.467  33.235  0.00  0.00     0.019 A 
ATOM     17  C   UNL d   1      54.836  -0.530  33.700  0.00  0.00     0.000 C 
ATOM     18  C   UNL d   1      56.423   0.682  32.824  0.00  0.00     0.082 A 
ENDBRANCH   1  12
TORSDOF 3
ENDMDL
MODEL 4
REMARK VINA RESULT:      -2.7      1.844      2.719
REMARK  3 active torsions:
REMARK  status: ('A' for Active; 'I' for Inactive)
REMARK    1  A    between atoms: N_2  and  C_1 
REMARK    2  A    between atoms: N_3  and  C_1 
REMARK       I    between atoms: C_4  and  N_2 
REMARK    3  A    between atoms: C_9  and  C_4 
ROOT
ATOM      1  C   UNL d   1      56.843  -0.744  31.878  0.00  0.00     0.209 C 
ATOM      2  S   UNL d   1      56.699  -1.553  31.841  0.00  0.00    -0.038 SA
ENDROOT
BRANCH   1   3
ATOM      3  N   UNL d   1      56.442  -0.287  32.443  0.00  0.00    -0.180 NA
ATOM      4  C   UNL d   1      55.968  -0.666  33.004  0.00  0.00     0.281 C 
ATOM      5  O   UNL d   1      55.893  -1.490  33.006  0.00  0.00    -0.265 OA
BRANCH   4   6
ATOM      6  C   UNL d   1      55.569  -0.219  33.566  0.00  0.00     0.058 A 
ATOM      7  C   UNL d   1      55.981   0.125  34.201  0.00  0.00     0.005 A 
ATOM      8  C   UNL d   1      55.585   0.572  34.764  0.00  0.00     0.000 A 
ATOM      9  C   UNL d   1      54.763   0.682  34.696  0.00  0.00     0.000 A 
ATOM     10  C   UNL d   1      54.351   0.342  34.066  0.00  0.00     0.000 A 
ATOM     11  C   UNL d   1      54.758  -0.106  33.506  0.00  0.00     0.005 A 
ENDBRANCH   4   6
ENDBRANCH   1   3
BRANCH   1  12
ATOM     12  N   UNL d   1      57.374  -0.393  31.363  0.00  0.00    -0.281 N 
ATOM     13  C   UNL d   1      57.755   0.309  31.582  0.00  0.00     0.082 A 
ATOM     14  C   UNL d   1      58.295   0.663  31.057  0.00  0.00     0.019 A 
ATOM     15  C   UNL d   1      58.447   0.317  30.325  0.00  0.00     0.003 A 
ATOM     16  C   UNL d   1      58.066  -0.379  30.113  0.00  0.00     0.019 A 
ATOM     17  C   UNL d   1      58.980   0.667  29.807  0.00  0.00     0.000 C 
ATOM     18  C   UNL d   1      57.529  -0.736  30.631  0.00  0.00     0.082 A 
ENDBRANCH   1  12
TORSDOF 3
ENDMDL
MODEL 5
REMARK VINA RESULT:      -2.5      1.019      1.325
REMARK  3 active torsions:
REMARK  status: ('A' for Active; 'I' for Inactive)
REMARK    1  A    between atoms: N_2  and  C_1 
REMARK    2  A    between atoms: N_3  and  C_1 
REMARK       I    between atoms: C_4  and  N_2 
REMARK    3  A    between atoms: C_9  and  C_4 
ROOT
ATOM      1  C   UNL d   1      57.994  -0.056  30.764  0.00  0.00     0.209 C 
ATOM      2  S   UNL d   1      58.331   0.682  30.902  0.00  0.00    -0.038 SA
ENDROOT
BRANCH   1   3
ATOM      3  N   UNL d   1      57.338  -0.291  31.215  0.00  0.00    -0.180 NA
ATOM      4  C   UNL d   1      57.221   0.043  31.962  0.00  0.00     0.281 C 
ATOM      5  O   UNL d   1      57.750   0.605  32.260  0.00  0.00    -0.265 OA
BRANCH   4   6
ATOM      6  C   UNL d   1      56.573  -0.186  32.413  0.00  0.00     0.058 A 
ATOM      7  C   UNL d   1      56.075   0.384  32.754  0.00  0.00     0.005 A 
ATOM      8  C   UNL d   1      55.427   0.159  33.205  0.00  0.00     0.000 A 
ATOM      9  C   UNL d   1      55.269  -0.650  33.319  0.00  0.00     0.000 A 
ATOM     10  C   UNL d   1      55.763  -1.220  32.980  0.00  0.00     0.000 A 
ATOM     11  C   UNL d   1      56.411  -0.983  32.529  0.00  0.00     0.005 A 
ENDBRANCH   4   6
ENDBRANCH   1   3
BRANCH   1  12
ATOM     12  N   UNL d   1      58.301  -0.552  30.190  0.00  0.00    -0.281 N 
ATOM     13  C   UNL d   1      58.758  -0.237  29.577  0.00  0.00     0.082 A 
ATOM     14  C   UNL d   1      59.069  -0.744  28.995  0.00  0.00     0.019 A 
ATOM     15  C   UNL d   1      58.921  -1.554  29.031  0.00  0.00     0.003 A 
ATOM     16  C   UNL d   1      58.467  -1.861  29.642  0.00  0.00     0.019 A 
ATOM     17  C   UNL d   1      59.228  -2.055  28.457  0.00  0.00     0.000 C 
ATOM     18  C   UNL d   1      58.155  -1.362  30.223  0.00  0.00     0.082 A 
ENDBRANCH   1  12
TORSDOF 3
ENDMDL
