MODEL 1
REMARK VINA RESULT:       0.1      0.000      0.000
REMARK  8 active torsions:
REMARK  status: ('A' for Active; 'I' for Inactive)
REMARK    1  A    between atoms: C_7  and  C_1 
REMARK    2  A    between atoms: C_2  and  O_5 
REMARK    3  A    between atoms: C_4  and  C_2 
REMARK    4  A    between atoms: O_5  and  C_3 
REMARK    5  A    between atoms: C_6  and  C_7 
REMARK    6  A    between atoms: C_8  and  C_6 
REMARK    7  A    between atoms: C_11  and  C_8 
REMARK    8  A    between atoms: O_22  and  C_18 
ROOT
ATOM      1  C   UNL d   1     -41.352-122.325 -51.397  0.00  0.00     0.062 A 
ATOM      2  C   UNL d   1     -41.670-122.509 -50.648  0.00  0.00     0.106 A 
ATOM      3  C   UNL d   1     -41.172-121.541 -51.579  0.00  0.00     0.012 A 
ATOM      4  C   UNL d   1     -41.800-121.908 -50.104  0.00  0.00     0.025 A 
ATOM      5  C   UNL d   1     -41.304-120.946 -51.029  0.00  0.00     0.035 A 
ATOM      6  C   UNL d   1     -41.620-121.128 -50.287  0.00  0.00     0.009 A 
ATOM      7 BR   UNL d   1     -41.123-120.161 -51.215  0.00  0.00    -0.049 Br
ENDROOT
BRANCH   1   8
ATOM      8  C   UNL d   1     -41.220-122.924 -51.949  0.00  0.00     0.198 C 
ATOM      9  O   UNL d   1     -41.131-123.705 -51.692  0.00  0.00    -0.286 OA
BRANCH   8  10
ATOM     10  C   UNL d   1     -41.176-122.746 -52.751  0.00  0.00     0.042 C 
BRANCH  10  11
ATOM     11  C   UNL d   1     -41.826-122.881 -53.241  0.00  0.00     0.005 C 
BRANCH  11  12
ATOM     12  C   UNL d   1     -41.784-122.696 -54.051  0.00  0.00     0.022 A 
ATOM     13  C   UNL d   1     -42.385-122.206 -54.369  0.00  0.00     0.094 A 
ATOM     14  C   UNL d   1     -42.324-122.031 -55.193  0.00  0.00     0.024 A 
ATOM     15  C   UNL d   1     -41.706-122.328 -55.655  0.00  0.00     0.002 A 
ATOM     16  C   UNL d   1     -41.123-122.815 -55.301  0.00  0.00     0.000 A 
ATOM     17  C   UNL d   1     -41.168-122.996 -54.497  0.00  0.00     0.002 A 
BRANCH  13  18
ATOM     18  O   UNL d   1     -43.002-121.908 -53.913  0.00  0.00    -0.328 OA
ATOM     19  C   UNL d   1     -43.692-121.633 -54.275  0.00  0.00     0.181 C 
ENDBRANCH  13  18
ENDBRANCH  11  12
ENDBRANCH  10  11
ENDBRANCH   8  10
ENDBRANCH   1   8
BRANCH   2  20
ATOM     20  O   UNL d   1     -41.850-123.289 -50.465  0.00  0.00    -0.271 OA
BRANCH  20  21
ATOM     21  C   UNL d   1     -41.870-123.528 -49.673  0.00  0.00     0.323 C 
ATOM     22  O   UNL d   1     -41.166-123.668 -49.257  0.00  0.00    -0.257 OA
BRANCH  21  23
ATOM     23  C   UNL d   1     -42.593-123.630 -49.290  0.00  0.00     0.163 A 
ATOM     24  O   UNL d   1     -42.708-123.645 -48.474  0.00  0.00    -0.300 OA
ATOM     25  C   UNL d   1     -43.525-123.760 -48.334  0.00  0.00     0.123 A 
ATOM     26  C   UNL d   1     -43.904-123.816 -49.065  0.00  0.00     0.029 A 
ATOM     27  C   UNL d   1     -43.328-123.735 -49.656  0.00  0.00     0.032 A 
ENDBRANCH  21  23
ENDBRANCH  20  21
ENDBRANCH   2  20
TORSDOF 8
ENDMDL
