MODEL 1
REMARK VINA RESULT:      -5.2      0.000      0.000
REMARK  5 active torsions:
REMARK  status: ('A' for Active; 'I' for Inactive)
REMARK    1  A    between atoms: N_2  and  S_1 
REMARK    2  A    between atoms: C_6  and  S_1 
REMARK    3  A    between atoms: C_3  and  N_2 
REMARK    4  A    between atoms: N_7  and  C_3 
REMARK    5  A    between atoms: C_9  and  N_7 
ROOT
ATOM      1  N   UNL d   1      57.327  -0.125  31.099  0.00  0.00    -0.128 NA
ENDROOT
BRANCH   1   2
ATOM      2  S   UNL d   1      56.791  -0.125  31.732  0.00  0.00     0.287 S 
ATOM      3  O   UNL d   1      56.933  -0.937  31.866  0.00  0.00    -0.198 OA
ATOM      4  O   UNL d   1      56.636   0.682  31.615  0.00  0.00    -0.198 OA
BRANCH   2   5
ATOM      5  C   UNL d   1      56.251  -0.125  32.370  0.00  0.00     0.105 A 
ATOM      6  C   UNL d   1      56.013  -0.846  32.714  0.00  0.00     0.013 A 
ATOM      7  C   UNL d   1      55.481  -0.847  33.342  0.00  0.00     0.001 A 
ATOM      8  C   UNL d   1      55.184  -0.136  33.631  0.00  0.00     0.000 A 
ATOM      9  C   UNL d   1      55.418   0.584  33.292  0.00  0.00     0.001 A 
ATOM     10  C   UNL d   1      55.951   0.584  32.662  0.00  0.00     0.013 A 
ENDBRANCH   2   5
ENDBRANCH   1   2
BRANCH   1  11
ATOM     11  C   UNL d   1      57.907   0.271  30.644  0.00  0.00     0.232 C 
ATOM     12  S   UNL d   1      58.516   0.677  31.024  0.00  0.00    -0.036 SA
BRANCH  11  13
ATOM     13  N   UNL d   1      57.865   0.251  29.819  0.00  0.00    -0.217 NA
BRANCH  13  14
ATOM     14  C   UNL d   1      58.517  -0.001  29.379  0.00  0.00     0.084 A 
ATOM     15  C   UNL d   1      59.057   0.550  29.093  0.00  0.00     0.019 A 
ATOM     16  C   UNL d   1      59.705   0.302  28.655  0.00  0.00     0.002 A 
ATOM     17  C   UNL d   1      59.820  -0.497  28.500  0.00  0.00     0.000 A 
ATOM     18  C   UNL d   1      59.279  -1.052  28.786  0.00  0.00     0.002 A 
ATOM     19  C   UNL d   1      58.626  -0.806  29.226  0.00  0.00     0.019 A 
ENDBRANCH  13  14
ENDBRANCH  11  13
ENDBRANCH   1  11
TORSDOF 5
ENDMDL
MODEL 2
REMARK VINA RESULT:      -4.5      1.042      4.497
REMARK  5 active torsions:
REMARK  status: ('A' for Active; 'I' for Inactive)
REMARK    1  A    between atoms: N_2  and  S_1 
REMARK    2  A    between atoms: C_6  and  S_1 
REMARK    3  A    between atoms: C_3  and  N_2 
REMARK    4  A    between atoms: N_7  and  C_3 
REMARK    5  A    between atoms: C_9  and  N_7 
ROOT
ATOM      1  N   UNL d   1      57.857   0.004  30.976  0.00  0.00    -0.128 NA
ENDROOT
BRANCH   1   2
ATOM      2  S   UNL d   1      58.393   0.053  30.345  0.00  0.00     0.287 S 
ATOM      3  O   UNL d   1      58.006  -0.576  29.955  0.00  0.00    -0.198 OA
ATOM      4  O   UNL d   1      58.789   0.680  30.717  0.00  0.00    -0.198 OA
BRANCH   2   5
ATOM      5  C   UNL d   1      58.932   0.103  29.709  0.00  0.00     0.105 A 
ATOM      6  C   UNL d   1      59.614  -0.376  29.703  0.00  0.00     0.013 A 
ATOM      7  C   UNL d   1      60.146  -0.327  29.076  0.00  0.00     0.001 A 
ATOM      8  C   UNL d   1      60.004   0.193  28.456  0.00  0.00     0.000 A 
ATOM      9  C   UNL d   1      59.327   0.672  28.457  0.00  0.00     0.001 A 
ATOM     10  C   UNL d   1      58.794   0.623  29.085  0.00  0.00     0.013 A 
ENDBRANCH   2   5
ENDBRANCH   1   2
BRANCH   1  11
ATOM     11  C   UNL d   1      57.484   0.358  31.637  0.00  0.00     0.232 C 
ATOM     12  S   UNL d   1      57.945   0.679  32.241  0.00  0.00    -0.036 SA
BRANCH  11  13
ATOM     13  N   UNL d   1      56.660   0.382  31.678  0.00  0.00    -0.217 NA
BRANCH  13  14
ATOM     14  C   UNL d   1      56.267   0.020  32.308  0.00  0.00     0.084 A 
ATOM     15  C   UNL d   1      56.278  -0.799  32.383  0.00  0.00     0.019 A 
ATOM     16  C   UNL d   1      55.889  -1.161  33.008  0.00  0.00     0.002 A 
ATOM     17  C   UNL d   1      55.486  -0.708  33.563  0.00  0.00     0.000 A 
ATOM     18  C   UNL d   1      55.473   0.114  33.491  0.00  0.00     0.002 A 
ATOM     19  C   UNL d   1      55.863   0.481  32.864  0.00  0.00     0.019 A 
ENDBRANCH  13  14
ENDBRANCH  11  13
ENDBRANCH   1  11
TORSDOF 5
ENDMDL
