MODEL 1
REMARK VINA RESULT:      49.2      0.000      0.000
REMARK  4 active torsions:
REMARK  status: ('A' for Active; 'I' for Inactive)
REMARK    1  A    between atoms: C_7  and  C_2 
REMARK    2  A    between atoms: C_6  and  C_3 
REMARK    3  A    between atoms: C_9  and  C_6 
REMARK    4  A    between atoms: O_15  and  C_10 
ROOT
ATOM      1  N   UNL d   1     -55.830-101.528 -43.873  0.00  0.00    -0.201 NA
ATOM      2  C   UNL d   1     -55.245-100.966 -43.739  0.00  0.00     0.114 A 
ATOM      3  C   UNL d   1     -55.044-101.999 -42.930  0.00  0.00     0.089 A 
ATOM      4  C   UNL d   1     -55.714-102.162 -43.382  0.00  0.00     0.286 A 
ATOM      5  S   UNL d   1     -54.747-101.268 -43.140  0.00  0.00    -0.063 SA
ATOM      6  O   UNL d   1     -56.182-102.841 -43.346  0.00  0.00    -0.265 OA
ENDROOT
BRANCH   3   7
ATOM      7  C   UNL d   1     -54.711-102.483 -42.354  0.00  0.00     0.011 C 
BRANCH   7   8
ATOM      8  C   UNL d   1     -54.751-102.304 -41.547  0.00  0.00     0.001 A 
ATOM      9  C   UNL d   1     -54.794-102.874 -40.978  0.00  0.00     0.002 A 
ATOM     10  C   UNL d   1     -54.832-102.666 -40.190  0.00  0.00     0.024 A 
ATOM     11  C   UNL d   1     -54.829-101.904 -39.953  0.00  0.00     0.094 A 
ATOM     12  C   UNL d   1     -54.785-101.308 -40.526  0.00  0.00     0.024 A 
ATOM     13  C   UNL d   1     -54.745-101.499 -41.326  0.00  0.00     0.002 A 
BRANCH  11  14
ATOM     14  O   UNL d   1     -54.868-101.704 -39.150  0.00  0.00    -0.328 OA
ATOM     15  C   UNL d   1     -55.140-102.244 -38.602  0.00  0.00     0.181 C 
ENDBRANCH  11  14
ENDBRANCH   7   8
ENDBRANCH   3   7
BRANCH   2  16
ATOM     16  C   UNL d   1     -55.163-100.240 -44.123  0.00  0.00     0.024 A 
ATOM     17  C   UNL d   1     -55.314 -99.547 -43.711  0.00  0.00     0.002 A 
ATOM     18  C   UNL d   1     -55.232 -98.821 -44.095  0.00  0.00     0.000 A 
ATOM     19  C   UNL d   1     -54.999 -98.797 -44.886  0.00  0.00     0.000 A 
ATOM     20  C   UNL d   1     -54.849 -99.499 -45.294  0.00  0.00     0.000 A 
ATOM     21  C   UNL d   1     -54.931-100.225 -44.910  0.00  0.00     0.002 A 
ENDBRANCH   2  16
TORSDOF 4
ENDMDL
