MODEL 1
REMARK VINA RESULT:      -3.2      0.000      0.000
REMARK  2 active torsions:
REMARK  status: ('A' for Active; 'I' for Inactive)
REMARK    1  A    between atoms: C_6  and  C_1 
REMARK       I    between atoms: C_7  and  N_8 
REMARK    2  A    between atoms: N_8  and  C_10 
ROOT
ATOM      1  C   UNL d   1      31.652  16.561 -23.777  0.00  0.00     0.025 A 
ATOM      2  C   UNL d   1      31.825  17.345 -23.936  0.00  0.00     0.021 A 
ATOM      3  C   UNL d   1      32.620  17.614 -23.894  0.00  0.00     0.085 A 
ATOM      4  C   UNL d   1      32.273  16.045 -23.575  0.00  0.00     0.002 A 
ATOM      5  C   UNL d   1      33.024  16.302 -23.535  0.00  0.00     0.002 A 
ATOM      6  C   UNL d   1      33.230  17.094 -23.692  0.00  0.00     0.019 A 
ENDROOT
BRANCH   1   7
ATOM      7  C   UNL d   1      30.898  16.309 -23.817  0.00  0.00     0.111 A 
ATOM      8  N   UNL d   1      30.370  16.169 -23.214  0.00  0.00    -0.239 NA
ATOM      9  C   UNL d   1      29.655  15.913 -23.565  0.00  0.00     0.088 A 
ATOM     10  C   UNL d   1      28.927  15.691 -23.228  0.00  0.00     0.020 A 
ATOM     11  C   UNL d   1      29.772  15.904 -24.382  0.00  0.00     0.049 A 
ATOM     12  C   UNL d   1      28.316  15.461 -23.714  0.00  0.00     0.002 A 
ATOM     13  C   UNL d   1      28.439  15.453 -24.568  0.00  0.00     0.001 A 
ATOM     14  C   UNL d   1      29.163  15.674 -24.874  0.00  0.00     0.008 A 
ATOM     15  S   UNL d   1      30.558  16.156 -24.523  0.00  0.00    -0.066 SA
ENDBRANCH   1   7
BRANCH   3  16
ATOM     16  N   UNL d   1      32.782  18.428 -24.062  0.00  0.00    -0.208 NA
ATOM     17  C   UNL d   1      33.079  18.902 -23.451  0.00  0.00     0.279 C 
ATOM     18  O   UNL d   1      33.229  19.675 -23.624  0.00  0.00    -0.265 OA
ATOM     19  C   UNL d   1      33.215  18.602 -22.701  0.00  0.00     0.068 C 
ENDBRANCH   3  16
TORSDOF 2
ENDMDL
MODEL 2
REMARK VINA RESULT:      -2.9      2.500      5.023
REMARK  2 active torsions:
REMARK  status: ('A' for Active; 'I' for Inactive)
REMARK    1  A    between atoms: C_6  and  C_1 
REMARK       I    between atoms: C_7  and  N_8 
REMARK    2  A    between atoms: N_8  and  C_10 
ROOT
ATOM      1  C   UNL d   1      33.034  19.205 -23.072  0.00  0.00     0.025 A 
ATOM      2  C   UNL d   1      32.781  18.454 -22.862  0.00  0.00     0.021 A 
ATOM      3  C   UNL d   1      32.733  17.852 -23.446  0.00  0.00     0.085 A 
ATOM      4  C   UNL d   1      33.240  19.353 -23.864  0.00  0.00     0.002 A 
ATOM      5  C   UNL d   1      33.194  18.781 -24.414  0.00  0.00     0.002 A 
ATOM      6  C   UNL d   1      32.940  18.009 -24.231  0.00  0.00     0.019 A 
ENDROOT
BRANCH   1   7
ATOM      7  C   UNL d   1      33.079  19.773 -22.517  0.00  0.00     0.111 A 
ATOM      8  N   UNL d   1      33.138  19.698 -21.708  0.00  0.00    -0.239 NA
ATOM      9  C   UNL d   1      33.166  20.471 -21.389  0.00  0.00     0.088 A 
ATOM     10  C   UNL d   1      33.226  20.738 -20.603  0.00  0.00     0.020 A 
ATOM     11  C   UNL d   1      33.122  20.999 -22.021  0.00  0.00     0.049 A 
ATOM     12  C   UNL d   1      33.241  21.537 -20.454  0.00  0.00     0.002 A 
ATOM     13  C   UNL d   1      33.194  22.090 -21.115  0.00  0.00     0.001 A 
ATOM     14  C   UNL d   1      33.136  21.802 -21.877  0.00  0.00     0.008 A 
ATOM     15  S   UNL d   1      33.067  20.544 -22.722  0.00  0.00    -0.066 SA
ENDBRANCH   1   7
BRANCH   3  16
ATOM     16  N   UNL d   1      32.469  17.082 -23.213  0.00  0.00    -0.208 NA
ATOM     17  C   UNL d   1      31.822  16.753 -23.612  0.00  0.00     0.279 C 
ATOM     18  O   UNL d   1      31.581  16.019 -23.381  0.00  0.00    -0.265 OA
ATOM     19  C   UNL d   1      31.440  17.153 -24.217  0.00  0.00     0.068 C 
ENDBRANCH   3  16
TORSDOF 2
ENDMDL
MODEL 3
REMARK VINA RESULT:      -2.6      3.515      5.950
REMARK  2 active torsions:
REMARK  status: ('A' for Active; 'I' for Inactive)
REMARK    1  A    between atoms: C_6  and  C_1 
REMARK       I    between atoms: C_7  and  N_8 
REMARK    2  A    between atoms: N_8  and  C_10 
ROOT
ATOM      1  C   UNL d   1      32.990  20.443 -21.813  0.00  0.00     0.025 A 
ATOM      2  C   UNL d   1      32.984  20.427 -22.632  0.00  0.00     0.021 A 
ATOM      3  C   UNL d   1      33.111  19.702 -23.037  0.00  0.00     0.085 A 
ATOM      4  C   UNL d   1      33.121  19.734 -21.398  0.00  0.00     0.002 A 
ATOM      5  C   UNL d   1      33.240  19.049 -21.784  0.00  0.00     0.002 A 
ATOM      6  C   UNL d   1      33.241  19.002 -22.615  0.00  0.00     0.019 A 
ENDROOT
BRANCH   1   7
ATOM      7  C   UNL d   1      32.869  21.132 -21.434  0.00  0.00     0.111 A 
ATOM      8  N   UNL d   1      32.416  21.770 -21.658  0.00  0.00    -0.239 NA
ATOM      9  C   UNL d   1      32.485  22.346 -21.055  0.00  0.00     0.088 A 
ATOM     10  C   UNL d   1      32.149  23.105 -20.981  0.00  0.00     0.020 A 
ATOM     11  C   UNL d   1      32.984  22.037 -20.476  0.00  0.00     0.049 A 
ATOM     12  C   UNL d   1      32.316  23.551 -20.321  0.00  0.00     0.002 A 
ATOM     13  C   UNL d   1      32.838  23.227 -19.715  0.00  0.00     0.001 A 
ATOM     14  C   UNL d   1      33.155  22.481 -19.812  0.00  0.00     0.008 A 
ATOM     15  S   UNL d   1      33.216  21.274 -20.729  0.00  0.00    -0.066 SA
ENDBRANCH   1   7
BRANCH   3  16
ATOM     16  N   UNL d   1      33.102  19.702 -23.883  0.00  0.00    -0.208 NA
ATOM     17  C   UNL d   1      32.662  19.117 -24.270  0.00  0.00     0.279 C 
ATOM     18  O   UNL d   1      32.662  19.129 -25.077  0.00  0.00    -0.265 OA
ATOM     19  C   UNL d   1      32.241  18.549 -23.856  0.00  0.00     0.068 C 
ENDBRANCH   3  16
TORSDOF 2
ENDMDL
MODEL 4
REMARK VINA RESULT:      -1.1      2.363      4.249
REMARK  2 active torsions:
REMARK  status: ('A' for Active; 'I' for Inactive)
REMARK    1  A    between atoms: C_6  and  C_1 
REMARK       I    between atoms: C_7  and  N_8 
REMARK    2  A    between atoms: N_8  and  C_10 
ROOT
ATOM      1  C   UNL d   1      29.927  16.609 -24.328  0.00  0.00     0.025 A 
ATOM      2  C   UNL d   1      29.319  16.090 -24.152  0.00  0.00     0.021 A 
ATOM      3  C   UNL d   1      28.524  16.363 -24.148  0.00  0.00     0.085 A 
ATOM      4  C   UNL d   1      29.741  17.402 -24.501  0.00  0.00     0.002 A 
ATOM      5  C   UNL d   1      28.988  17.657 -24.497  0.00  0.00     0.002 A 
ATOM      6  C   UNL d   1      28.350  17.152 -24.321  0.00  0.00     0.019 A 
ENDROOT
BRANCH   1   7
ATOM      7  C   UNL d   1      30.678  16.348 -24.331  0.00  0.00     0.111 A 
ATOM      8  N   UNL d   1      31.158  16.171 -24.964  0.00  0.00    -0.239 NA
ATOM      9  C   UNL d   1      31.894  15.920 -24.655  0.00  0.00     0.088 A 
ATOM     10  C   UNL d   1      32.592  15.671 -25.034  0.00  0.00     0.020 A 
ATOM     11  C   UNL d   1      31.837  15.952 -23.832  0.00  0.00     0.049 A 
ATOM     12  C   UNL d   1      33.234  15.454 -24.583  0.00  0.00     0.002 A 
ATOM     13  C   UNL d   1      33.175  15.487 -23.723  0.00  0.00     0.001 A 
ATOM     14  C   UNL d   1      32.479  15.735 -23.376  0.00  0.00     0.008 A 
ATOM     15  S   UNL d   1      31.068  16.222 -23.645  0.00  0.00    -0.066 SA
ENDBRANCH   1   7
BRANCH   3  16
ATOM     16  N   UNL d   1      27.907  15.813 -23.963  0.00  0.00    -0.208 NA
ATOM     17  C   UNL d   1      27.392  15.998 -23.342  0.00  0.00     0.279 C 
ATOM     18  O   UNL d   1      26.809  15.466 -23.176  0.00  0.00    -0.265 OA
ATOM     19  C   UNL d   1      27.468  16.690 -22.910  0.00  0.00     0.068 C 
ENDBRANCH   3  16
TORSDOF 2
ENDMDL
MODEL 5
REMARK VINA RESULT:      -0.9      6.335      7.134
REMARK  2 active torsions:
REMARK  status: ('A' for Active; 'I' for Inactive)
REMARK    1  A    between atoms: C_6  and  C_1 
REMARK       I    between atoms: C_7  and  N_8 
REMARK    2  A    between atoms: N_8  and  C_10 
ROOT
ATOM      1  C   UNL d   1      32.933  22.308 -21.256  0.00  0.00     0.025 A 
ATOM      2  C   UNL d   1      33.060  22.871 -20.674  0.00  0.00     0.021 A 
ATOM      3  C   UNL d   1      33.104  22.635 -19.868  0.00  0.00     0.085 A 
ATOM      4  C   UNL d   1      32.850  21.510 -21.033  0.00  0.00     0.002 A 
ATOM      5  C   UNL d   1      32.893  21.291 -20.270  0.00  0.00     0.002 A 
ATOM      6  C   UNL d   1      33.021  21.840 -19.657  0.00  0.00     0.019 A 
ENDROOT
BRANCH   1   7
ATOM      7  C   UNL d   1      32.891  22.534 -22.018  0.00  0.00     0.111 A 
ATOM      8  N   UNL d   1      32.580  23.216 -22.335  0.00  0.00    -0.239 NA
ATOM      9  C   UNL d   1      32.681  23.172 -23.164  0.00  0.00     0.088 A 
ATOM     10  C   UNL d   1      32.473  23.702 -23.771  0.00  0.00     0.020 A 
ATOM     11  C   UNL d   1      33.054  22.455 -23.328  0.00  0.00     0.049 A 
ATOM     12  C   UNL d   1      32.641  23.510 -24.543  0.00  0.00     0.002 A 
ATOM     13  C   UNL d   1      33.032  22.760 -24.715  0.00  0.00     0.001 A 
ATOM     14  C   UNL d   1      33.225  22.257 -24.101  0.00  0.00     0.008 A 
ATOM     15  S   UNL d   1      33.179  22.066 -22.597  0.00  0.00    -0.066 SA
ENDBRANCH   1   7
BRANCH   3  16
ATOM     16  N   UNL d   1      33.235  23.229 -19.279  0.00  0.00    -0.208 NA
ATOM     17  C   UNL d   1      32.879  23.129 -18.538  0.00  0.00     0.279 C 
ATOM     18  O   UNL d   1      33.012  23.701 -17.985  0.00  0.00    -0.265 OA
ATOM     19  C   UNL d   1      32.411  22.479 -18.368  0.00  0.00     0.068 C 
ENDBRANCH   3  16
TORSDOF 2
ENDMDL
