MODEL 1
REMARK VINA RESULT:      71.2      0.000      0.000
REMARK  3 active torsions:
REMARK  status: ('A' for Active; 'I' for Inactive)
REMARK    1  A    between atoms: C_4  and  S_1 
REMARK    2  A    between atoms: N_6  and  S_1 
REMARK    3  A    between atoms: C_2  and  C_8 
ROOT
ATOM      1  C   UNL d   1     -51.108  26.112  33.788  0.00  0.00     0.104 A 
ATOM      2  C   UNL d   1     -50.441  26.492  34.090  0.00  0.00     0.015 A 
ATOM      3  C   UNL d   1     -50.457  27.312  34.211  0.00  0.00     0.025 A 
ATOM      4  C   UNL d   1     -51.787  26.544  33.607  0.00  0.00     0.012 A 
ATOM      5  C   UNL d   1     -51.135  27.746  34.031  0.00  0.00     0.002 A 
ATOM      6  C   UNL d   1     -51.799  27.357  33.729  0.00  0.00     0.001 A 
ATOM      7  C   UNL d   1     -52.451  26.161  33.306  0.00  0.00     0.001 C 
ENDROOT
BRANCH   3   8
ATOM      8  C   UNL d   1     -49.790  27.697  34.513  0.00  0.00     0.111 A 
ATOM      9  N   UNL d   1     -49.614  27.789  35.313  0.00  0.00    -0.239 NA
ATOM     10  C   UNL d   1     -48.899  28.206  35.369  0.00  0.00     0.088 A 
ATOM     11  C   UNL d   1     -48.453  28.458  36.009  0.00  0.00     0.020 A 
ATOM     12  C   UNL d   1     -48.643  28.366  34.599  0.00  0.00     0.049 A 
ATOM     13  C   UNL d   1     -47.756  28.867  35.890  0.00  0.00     0.002 A 
ATOM     14  C   UNL d   1     -47.495  29.030  35.118  0.00  0.00     0.001 A 
ATOM     15  C   UNL d   1     -47.942  28.778  34.473  0.00  0.00     0.008 A 
ATOM     16  S   UNL d   1     -49.201  28.048  34.070  0.00  0.00    -0.066 SA
ENDBRANCH   3   8
BRANCH   1  17
ATOM     17  S   UNL d   1     -51.100  25.291  33.664  0.00  0.00     0.271 S 
ATOM     18  O   UNL d   1     -50.353  25.357  33.306  0.00  0.00    -0.200 OA
ATOM     19  O   UNL d   1     -51.955  25.216  34.073  0.00  0.00    -0.200 OA
BRANCH  17  20
ATOM     20  N   UNL d   1     -51.138  24.477  33.563  0.00  0.00    -0.229 N 
ATOM     21  C   UNL d   1     -51.829  24.030  33.490  0.00  0.00     0.092 A 
ATOM     22  C   UNL d   1     -51.617  23.239  33.398  0.00  0.00     0.021 A 
ATOM     23  C   UNL d   1     -50.786  23.192  33.413  0.00  0.00     0.021 A 
ATOM     24  C   UNL d   1     -50.496  23.957  33.514  0.00  0.00     0.092 A 
ENDBRANCH  17  20
ENDBRANCH   1  17
TORSDOF 3
ENDMDL
