MODEL 1
REMARK VINA RESULT:      41.3      0.000      0.000
REMARK  6 active torsions:
REMARK  status: ('A' for Active; 'I' for Inactive)
REMARK    1  A    between atoms: N_9  and  C_1 
REMARK    2  A    between atoms: C_4  and  S_13 
REMARK    3  A    between atoms: C_14  and  C_8 
REMARK       I    between atoms: C_12  and  N_9 
REMARK    4  A    between atoms: C_17  and  C_10 
REMARK    5  A    between atoms: C_16  and  C_12 
REMARK    6  A    between atoms: S_13  and  C_16 
ROOT
ATOM      1  S   UNL d   1     -54.737-100.785 -40.504  0.00  0.00    -0.043 SA
ENDROOT
BRANCH   1   2
ATOM      2  C   UNL d   1     -54.743-100.386 -41.233  0.00  0.00     0.195 A 
ATOM      3  N   UNL d   1     -54.778-100.733 -41.977  0.00  0.00    -0.220 NA
ATOM      4  C   UNL d   1     -54.771-100.135 -42.531  0.00  0.00     0.103 A 
ATOM      5  C   UNL d   1     -54.731 -99.419 -42.137  0.00  0.00     0.120 A 
ATOM      6  N   UNL d   1     -54.714 -99.579 -41.338  0.00  0.00    -0.218 NA
BRANCH   4   7
ATOM      7  C   UNL d   1     -54.800-100.275 -43.342  0.00  0.00     0.019 A 
ATOM      8  C   UNL d   1     -54.917 -99.647 -43.867  0.00  0.00     0.002 A 
ATOM      9  C   UNL d   1     -54.944 -99.803 -44.679  0.00  0.00     0.000 A 
ATOM     10  C   UNL d   1     -54.854-100.574 -44.955  0.00  0.00     0.000 A 
ATOM     11  C   UNL d   1     -54.739-101.188 -44.435  0.00  0.00     0.000 A 
ATOM     12  C   UNL d   1     -54.711-101.036 -43.615  0.00  0.00     0.002 A 
ENDBRANCH   4   7
ENDBRANCH   1   2
BRANCH   1  13
ATOM     13  C   UNL d   1     -54.790-101.610 -40.490  0.00  0.00     0.101 C 
BRANCH  13  14
ATOM     14  C   UNL d   1     -54.839-102.012 -39.771  0.00  0.00     0.288 C 
ATOM     15  N   UNL d   1     -54.966-101.602 -39.064  0.00  0.00    -0.181 NA
ATOM     16  O   UNL d   1     -54.759-102.842 -39.758  0.00  0.00    -0.265 OA
BRANCH  15  17
ATOM     17  C   UNL d   1     -55.014-102.010 -38.343  0.00  0.00     0.219 A 
ATOM     18  S   UNL d   1     -54.792-101.636 -37.642  0.00  0.00    -0.026 SA
ATOM     19  C   UNL d   1     -54.899-102.174 -37.020  0.00  0.00     0.135 A 
ATOM     20  N   UNL d   1     -55.188-102.878 -37.341  0.00  0.00    -0.139 NA
ATOM     21  N   UNL d   1     -55.260-102.780 -38.157  0.00  0.00    -0.121 NA
BRANCH  19  22
ATOM     22  C   UNL d   1     -54.747-102.037 -36.224  0.00  0.00     0.028 C 
ATOM     23  C   UNL d   1     -55.014-102.579 -35.660  0.00  0.00     0.002 C 
ENDBRANCH  19  22
ENDBRANCH  15  17
ENDBRANCH  13  14
ENDBRANCH   1  13
TORSDOF 6
ENDMDL
