MODEL 1
REMARK VINA RESULT:      -1.8      0.000      0.000
REMARK  5 active torsions:
REMARK  status: ('A' for Active; 'I' for Inactive)
REMARK    1  A    between atoms: C_3  and  C_1 
REMARK    2  A    between atoms: C_7  and  C_2 
REMARK       I    between atoms: N_5  and  C_3 
REMARK    3  A    between atoms: C_6  and  N_5 
REMARK    4  A    between atoms: N_10  and  C_6 
REMARK    5  A    between atoms: C_14  and  N_10 
ROOT
ATOM      1  C   UNL d   1      31.022  16.419 -23.786  0.00  0.00     0.103 A 
ATOM      2  C   UNL d   1      30.198  16.498 -23.737  0.00  0.00     0.116 A 
ATOM      3  N   UNL d   1      29.920  15.900 -23.241  0.00  0.00    -0.126 NA
ATOM      4  O   UNL d   1      30.566  15.453 -22.984  0.00  0.00    -0.211 OA
ATOM      5  C   UNL d   1      31.233  15.777 -23.322  0.00  0.00     0.131 A 
ATOM      6  C   UNL d   1      32.001  15.503 -23.215  0.00  0.00     0.029 C 
ENDROOT
BRANCH   1   7
ATOM      7  C   UNL d   1      31.514  16.905 -24.225  0.00  0.00     0.285 C 
ATOM      8  N   UNL d   1      32.055  17.407 -23.870  0.00  0.00    -0.179 NA
ATOM      9  O   UNL d   1      31.463  16.888 -25.053  0.00  0.00    -0.265 OA
BRANCH   8  10
ATOM     10  C   UNL d   1      32.548  17.894 -24.309  0.00  0.00     0.223 C 
ATOM     11  S   UNL d   1      32.340  18.076 -25.091  0.00  0.00    -0.037 SA
BRANCH  10  12
ATOM     12  N   UNL d   1      33.241  18.202 -23.989  0.00  0.00    -0.217 NA
BRANCH  12  13
ATOM     13  C   UNL d   1      33.216  18.903 -23.572  0.00  0.00     0.084 A 
ATOM     14  C   UNL d   1      33.235  18.882 -22.741  0.00  0.00     0.019 A 
ATOM     15  C   UNL d   1      33.209  19.590 -22.319  0.00  0.00     0.002 A 
ATOM     16  C   UNL d   1      33.164  20.315 -22.720  0.00  0.00     0.000 A 
ATOM     17  C   UNL d   1      33.146  20.329 -23.554  0.00  0.00     0.002 A 
ATOM     18  C   UNL d   1      33.139  21.028 -22.295  0.00  0.00     0.000 C 
ATOM     19  C   UNL d   1      33.171  19.618 -23.978  0.00  0.00     0.019 A 
ENDBRANCH  12  13
ENDBRANCH  10  12
ENDBRANCH   8  10
ENDBRANCH   1   7
BRANCH   2  20
ATOM     20  C   UNL d   1      29.739  17.070 -24.115  0.00  0.00     0.031 A 
ATOM     21  C   UNL d   1      29.220  16.852 -24.713  0.00  0.00     0.059 A 
ATOM     22 CL   UNL d   1      29.160  16.062 -24.935  0.00  0.00    -0.082 Cl
ATOM     23  C   UNL d   1      28.767  17.423 -25.085  0.00  0.00     0.011 A 
ATOM     24  C   UNL d   1      28.827  18.222 -24.863  0.00  0.00     0.001 A 
ATOM     25  C   UNL d   1      29.350  18.432 -24.262  0.00  0.00     0.000 A 
ATOM     26  C   UNL d   1      29.814  17.861 -23.878  0.00  0.00     0.002 A 
ENDBRANCH   2  20
TORSDOF 5
ENDMDL
MODEL 2
REMARK VINA RESULT:      -0.8      1.646      2.787
REMARK  5 active torsions:
REMARK  status: ('A' for Active; 'I' for Inactive)
REMARK    1  A    between atoms: C_3  and  C_1 
REMARK    2  A    between atoms: C_7  and  C_2 
REMARK       I    between atoms: N_5  and  C_3 
REMARK    3  A    between atoms: C_6  and  N_5 
REMARK    4  A    between atoms: N_10  and  C_6 
REMARK    5  A    between atoms: C_14  and  N_10 
ROOT
ATOM      1  C   UNL d   1      31.624  18.123 -24.423  0.00  0.00     0.103 A 
ATOM      2  C   UNL d   1      31.466  17.314 -24.510  0.00  0.00     0.116 A 
ATOM      3  N   UNL d   1      30.756  17.243 -24.926  0.00  0.00    -0.126 NA
ATOM      4  O   UNL d   1      30.475  18.003 -25.094  0.00  0.00    -0.211 OA
ATOM      5  C   UNL d   1      31.012  18.532 -24.784  0.00  0.00     0.131 A 
ATOM      6  C   UNL d   1      30.949  19.351 -24.825  0.00  0.00     0.029 C 
ENDROOT
BRANCH   1   7
ATOM      7  C   UNL d   1      32.279  18.434 -24.041  0.00  0.00     0.285 C 
ATOM      8  N   UNL d   1      32.208  18.908 -23.377  0.00  0.00    -0.179 NA
ATOM      9  O   UNL d   1      33.035  18.263 -24.335  0.00  0.00    -0.265 OA
BRANCH   8  10
ATOM     10  C   UNL d   1      32.863  19.219 -22.995  0.00  0.00     0.223 C 
ATOM     11  S   UNL d   1      33.213  18.787 -22.380  0.00  0.00    -0.037 SA
BRANCH  10  12
ATOM     12  N   UNL d   1      33.178  19.950 -23.209  0.00  0.00    -0.217 NA
BRANCH  12  13
ATOM     13  C   UNL d   1      33.192  20.558 -22.666  0.00  0.00     0.084 A 
ATOM     14  C   UNL d   1      33.227  21.344 -22.936  0.00  0.00     0.019 A 
ATOM     15  C   UNL d   1      33.241  21.959 -22.387  0.00  0.00     0.002 A 
ATOM     16  C   UNL d   1      33.220  21.795 -21.574  0.00  0.00     0.000 A 
ATOM     17  C   UNL d   1      33.185  21.004 -21.309  0.00  0.00     0.002 A 
ATOM     18  C   UNL d   1      33.234  22.414 -21.021  0.00  0.00     0.000 C 
ATOM     19  C   UNL d   1      33.171  20.386 -21.861  0.00  0.00     0.019 A 
ENDBRANCH  12  13
ENDBRANCH  10  12
ENDBRANCH   8  10
ENDBRANCH   1   7
BRANCH   2  20
ATOM     20  C   UNL d   1      31.932  16.693 -24.234  0.00  0.00     0.031 A 
ATOM     21  C   UNL d   1      31.640  16.184 -23.657  0.00  0.00     0.059 A 
ATOM     22 CL   UNL d   1      30.883  16.297 -23.357  0.00  0.00    -0.082 Cl
ATOM     23  C   UNL d   1      32.107  15.569 -23.385  0.00  0.00     0.011 A 
ATOM     24  C   UNL d   1      32.873  15.453 -23.687  0.00  0.00     0.001 A 
ATOM     25  C   UNL d   1      33.157  15.968 -24.265  0.00  0.00     0.000 A 
ATOM     26  C   UNL d   1      32.693  16.595 -24.548  0.00  0.00     0.002 A 
ENDBRANCH   2  20
TORSDOF 5
ENDMDL
MODEL 3
REMARK VINA RESULT:       0.4      2.916      5.236
REMARK  5 active torsions:
REMARK  status: ('A' for Active; 'I' for Inactive)
REMARK    1  A    between atoms: C_3  and  C_1 
REMARK    2  A    between atoms: C_7  and  C_2 
REMARK       I    between atoms: N_5  and  C_3 
REMARK    3  A    between atoms: C_6  and  N_5 
REMARK    4  A    between atoms: N_10  and  C_6 
REMARK    5  A    between atoms: C_14  and  N_10 
ROOT
ATOM      1  C   UNL d   1      32.985  21.017 -21.505  0.00  0.00     0.103 A 
ATOM      2  C   UNL d   1      32.880  21.810 -21.287  0.00  0.00     0.116 A 
ATOM      3  N   UNL d   1      32.945  21.852 -20.465  0.00  0.00    -0.126 NA
ATOM      4  O   UNL d   1      33.089  21.091 -20.176  0.00  0.00    -0.211 OA
ATOM      5  C   UNL d   1      33.111  20.589 -20.818  0.00  0.00     0.131 A 
ATOM      6  C   UNL d   1      33.241  19.778 -20.782  0.00  0.00     0.029 C 
ENDROOT
BRANCH   1   7
ATOM      7  C   UNL d   1      32.962  20.736 -22.275  0.00  0.00     0.285 C 
ATOM      8  N   UNL d   1      32.670  19.992 -22.455  0.00  0.00    -0.179 NA
ATOM      9  O   UNL d   1      33.241  21.218 -22.888  0.00  0.00    -0.265 OA
BRANCH   8  10
ATOM     10  C   UNL d   1      32.647  19.710 -23.224  0.00  0.00     0.223 C 
ATOM     11  S   UNL d   1      32.162  20.092 -23.778  0.00  0.00    -0.037 SA
BRANCH  10  12
ATOM     12  N   UNL d   1      33.094  19.058 -23.456  0.00  0.00    -0.217 NA
BRANCH  12  13
ATOM     13  C   UNL d   1      32.728  18.337 -23.566  0.00  0.00     0.084 A 
ATOM     14  C   UNL d   1      32.076  18.286 -24.080  0.00  0.00     0.019 A 
ATOM     15  C   UNL d   1      31.707  17.558 -24.192  0.00  0.00     0.002 A 
ATOM     16  C   UNL d   1      31.982  16.883 -23.796  0.00  0.00     0.000 A 
ATOM     17  C   UNL d   1      32.637  16.940 -23.281  0.00  0.00     0.002 A 
ATOM     18  C   UNL d   1      31.610  16.150 -23.908  0.00  0.00     0.000 C 
ATOM     19  C   UNL d   1      33.009  17.673 -23.169  0.00  0.00     0.019 A 
ENDBRANCH  12  13
ENDBRANCH  10  12
ENDBRANCH   8  10
ENDBRANCH   1   7
BRANCH   2  20
ATOM     20  C   UNL d   1      32.737  22.442 -21.797  0.00  0.00     0.031 A 
ATOM     21  C   UNL d   1      32.104  22.948 -21.658  0.00  0.00     0.059 A 
ATOM     22 CL   UNL d   1      31.615  22.822 -21.009  0.00  0.00    -0.082 Cl
ATOM     23  C   UNL d   1      31.966  23.574 -22.167  0.00  0.00     0.011 A 
ATOM     24  C   UNL d   1      32.460  23.702 -22.823  0.00  0.00     0.001 A 
ATOM     25  C   UNL d   1      33.092  23.190 -22.955  0.00  0.00     0.000 A 
ATOM     26  C   UNL d   1      33.241  22.553 -22.446  0.00  0.00     0.002 A 
ENDBRANCH   2  20
TORSDOF 5
ENDMDL
