MODEL 1
REMARK VINA RESULT:      -5.5      0.000      0.000
REMARK  3 active torsions:
REMARK  status: ('A' for Active; 'I' for Inactive)
REMARK    1  A    between atoms: S_9  and  C_2 
REMARK    2  A    between atoms: C_15  and  S_9 
REMARK    3  A    between atoms: C_14  and  C_15 
ROOT
ATOM      1  C   UNL d   1     -42.253-121.967 -54.436  0.00  0.00     0.119 A 
ATOM      2  C   UNL d   1     -41.789-122.486 -54.884  0.00  0.00     0.119 A 
ATOM      3  O   UNL d   1     -42.757-121.577 -54.953  0.00  0.00    -0.300 OA
ATOM      4  O   UNL d   1     -42.013-122.411 -55.671  0.00  0.00    -0.300 OA
ATOM      5  C   UNL d   1     -42.607-121.853 -55.709  0.00  0.00     0.304 A 
ATOM      6  C   UNL d   1     -42.151-121.921 -53.626  0.00  0.00     0.027 A 
ATOM      7  C   UNL d   1     -41.232-122.950 -54.513  0.00  0.00     0.026 A 
ATOM      8  C   UNL d   1     -41.586-122.392 -53.252  0.00  0.00     0.009 A 
ATOM      9  C   UNL d   1     -41.123-122.912 -53.700  0.00  0.00     0.003 A 
ENDROOT
BRANCH   8  10
ATOM     10  C   UNL d   1     -41.483-122.348 -52.438  0.00  0.00     0.037 C 
BRANCH  10  11
ATOM     11  S   UNL d   1     -41.466-123.038 -51.979  0.00  0.00    -0.059 SA
BRANCH  11  12
ATOM     12  C   UNL d   1     -41.533-122.990 -51.136  0.00  0.00     0.164 A 
ATOM     13  S   UNL d   1     -41.155-123.498 -50.595  0.00  0.00    -0.039 SA
ATOM     14  C   UNL d   1     -41.377-123.249 -49.816  0.00  0.00     0.134 A 
ATOM     15  N   UNL d   1     -41.882-122.600 -49.897  0.00  0.00    -0.140 NA
ATOM     16  C   UNL d   1     -41.123-123.607 -49.103  0.00  0.00     0.030 C 
ATOM     17  N   UNL d   1     -41.985-122.432 -50.714  0.00  0.00    -0.134 NA
ENDBRANCH  11  12
ENDBRANCH  10  11
ENDBRANCH   8  10
TORSDOF 3
ENDMDL
MODEL 2
REMARK VINA RESULT:      -5.3      2.531      4.371
REMARK  3 active torsions:
REMARK  status: ('A' for Active; 'I' for Inactive)
REMARK    1  A    between atoms: S_9  and  C_2 
REMARK    2  A    between atoms: C_15  and  S_9 
REMARK    3  A    between atoms: C_14  and  C_15 
ROOT
ATOM      1  C   UNL d   1     -41.853-122.725 -50.383  0.00  0.00     0.119 A 
ATOM      2  C   UNL d   1     -41.509-123.475 -50.313  0.00  0.00     0.119 A 
ATOM      3  O   UNL d   1     -42.168-122.527 -49.652  0.00  0.00    -0.300 OA
ATOM      4  O   UNL d   1     -41.617-123.731 -49.539  0.00  0.00    -0.300 OA
ATOM      5  C   UNL d   1     -42.021-123.146 -49.138  0.00  0.00     0.304 A 
ATOM      6  C   UNL d   1     -41.831-122.329 -51.099  0.00  0.00     0.027 A 
ATOM      7  C   UNL d   1     -41.150-123.815 -50.959  0.00  0.00     0.026 A 
ATOM      8  C   UNL d   1     -41.466-122.676 -51.753  0.00  0.00     0.009 A 
ATOM      9  C   UNL d   1     -41.123-123.426 -51.682  0.00  0.00     0.003 A 
ENDROOT
BRANCH   8  10
ATOM     10  C   UNL d   1     -41.443-122.281 -52.472  0.00  0.00     0.037 C 
BRANCH  10  11
ATOM     11  S   UNL d   1     -41.607-122.683 -53.178  0.00  0.00    -0.059 SA
BRANCH  11  12
ATOM     12  C   UNL d   1     -41.859-122.254 -53.864  0.00  0.00     0.164 A 
ATOM     13  S   UNL d   1     -41.876-122.558 -54.640  0.00  0.00    -0.039 SA
ATOM     14  C   UNL d   1     -42.163-121.943 -55.146  0.00  0.00     0.134 A 
ATOM     15  N   UNL d   1     -42.314-121.282 -54.674  0.00  0.00    -0.140 NA
ATOM     16  C   UNL d   1     -42.270-122.008 -55.974  0.00  0.00     0.030 C 
ATOM     17  N   UNL d   1     -42.127-121.467 -53.875  0.00  0.00    -0.134 NA
ENDBRANCH  11  12
ENDBRANCH  10  11
ENDBRANCH   8  10
TORSDOF 3
ENDMDL
MODEL 3
REMARK VINA RESULT:      -5.2      2.555      4.491
REMARK  3 active torsions:
REMARK  status: ('A' for Active; 'I' for Inactive)
REMARK    1  A    between atoms: S_9  and  C_2 
REMARK    2  A    between atoms: C_15  and  S_9 
REMARK    3  A    between atoms: C_14  and  C_15 
ROOT
ATOM      1  C   UNL d   1     -42.375-122.787 -49.673  0.00  0.00     0.119 A 
ATOM      2  C   UNL d   1     -41.884-123.391 -49.390  0.00  0.00     0.119 A 
ATOM      3  O   UNL d   1     -42.940-122.636 -49.098  0.00  0.00    -0.300 OA
ATOM      4  O   UNL d   1     -42.152-123.605 -48.643  0.00  0.00    -0.300 OA
ATOM      5  C   UNL d   1     -42.799-123.139 -48.468  0.00  0.00     0.304 A 
ATOM      6  C   UNL d   1     -42.239-122.462 -50.412  0.00  0.00     0.027 A 
ATOM      7  C   UNL d   1     -41.267-123.657 -49.850  0.00  0.00     0.026 A 
ATOM      8  C   UNL d   1     -41.613-122.734 -50.876  0.00  0.00     0.009 A 
ATOM      9  C   UNL d   1     -41.123-123.337 -50.592  0.00  0.00     0.003 A 
ENDROOT
BRANCH   8  10
ATOM     10  C   UNL d   1     -41.476-122.408 -51.617  0.00  0.00     0.037 C 
BRANCH  10  11
ATOM     11  S   UNL d   1     -41.237-122.889 -52.248  0.00  0.00    -0.059 SA
BRANCH  11  12
ATOM     12  C   UNL d   1     -41.325-122.618 -53.047  0.00  0.00     0.164 A 
ATOM     13  S   UNL d   1     -41.311-123.106 -53.723  0.00  0.00    -0.039 SA
ATOM     14  C   UNL d   1     -41.419-122.605 -54.397  0.00  0.00     0.134 A 
ATOM     15  N   UNL d   1     -41.496-121.830 -54.123  0.00  0.00    -0.140 NA
ATOM     16  C   UNL d   1     -41.442-122.865 -55.193  0.00  0.00     0.030 C 
ATOM     17  N   UNL d   1     -41.438-121.829 -53.284  0.00  0.00    -0.134 NA
ENDBRANCH  11  12
ENDBRANCH  10  11
ENDBRANCH   8  10
TORSDOF 3
ENDMDL
