MODEL 1
REMARK VINA RESULT:      -6.8      0.000      0.000
REMARK  5 active torsions:
REMARK  status: ('A' for Active; 'I' for Inactive)
REMARK    1  A    between atoms: N_6  and  C_1 
REMARK    2  A    between atoms: S_10  and  C_4 
REMARK       I    between atoms: C_7  and  N_6 
REMARK       I    between atoms: N_8  and  C_7 
REMARK    3  A    between atoms: C_11  and  N_8 
REMARK    4  A    between atoms: C_18  and  S_10 
REMARK    5  A    between atoms: C_19  and  C_18 
ROOT
ATOM      1  N   UNL d   1     -47.439  13.505  22.900  0.00  0.00    -0.321 NA
ATOM      2  C   UNL d   1     -47.831  14.006  22.590  0.00  0.00     0.422 C 
ATOM      3  N   UNL d   1     -48.300  14.626  22.188  0.00  0.00    -0.180 NA
ATOM      4  O   UNL d   1     -48.291  13.999  23.118  0.00  0.00    -0.228 OA
ENDROOT
BRANCH   1   5
ATOM      5  C   UNL d   1     -46.854  12.906  23.138  0.00  0.00     0.271 A 
ATOM      6  S   UNL d   1     -46.822  12.201  23.167  0.00  0.00    -0.006 SA
ATOM      7  C   UNL d   1     -46.224  11.895  23.403  0.00  0.00     0.166 A 
ATOM      8  N   UNL d   1     -45.674  12.290  23.606  0.00  0.00    -0.132 NA
ATOM      9  N   UNL d   1     -46.304  13.302  23.341  0.00  0.00    -0.107 NA
BRANCH   7  10
ATOM     10  S   UNL d   1     -46.061  11.193  23.482  0.00  0.00    -0.059 SA
BRANCH  10  11
ATOM     11  C   UNL d   1     -45.278  10.949  23.459  0.00  0.00     0.037 C 
BRANCH  11  12
ATOM     12  C   UNL d   1     -45.087  10.171  23.636  0.00  0.00     0.007 C 
ATOM     13  C   UNL d   1     -44.303   9.939  23.697  0.00  0.00     0.001 C 
ENDBRANCH  11  12
ENDBRANCH  10  11
ENDBRANCH   7  10
ENDBRANCH   1   5
BRANCH   3  14
ATOM     14  C   UNL d   1     -48.995  14.909  22.545  0.00  0.00     0.087 A 
ATOM     15  C   UNL d   1     -49.726  14.590  22.330  0.00  0.00     0.022 A 
ATOM     16  C   UNL d   1     -50.409  14.878  22.691  0.00  0.00     0.031 A 
ATOM     17  C   UNL d   1     -50.370  15.476  23.258  0.00  0.00     0.140 A 
ATOM     18  C   UNL d   1     -49.636  15.790  23.468  0.00  0.00     0.031 A 
ATOM     19  F   UNL d   1     -51.064  15.759  23.615  0.00  0.00    -0.204 F 
ATOM     20  C   UNL d   1     -48.949  15.507  23.112  0.00  0.00     0.022 A 
ENDBRANCH   3  14
TORSDOF 5
ENDMDL
MODEL 2
REMARK VINA RESULT:      -5.8      1.549      1.698
REMARK  5 active torsions:
REMARK  status: ('A' for Active; 'I' for Inactive)
REMARK    1  A    between atoms: N_6  and  C_1 
REMARK    2  A    between atoms: S_10  and  C_4 
REMARK       I    between atoms: C_7  and  N_6 
REMARK       I    between atoms: N_8  and  C_7 
REMARK    3  A    between atoms: C_11  and  N_8 
REMARK    4  A    between atoms: C_18  and  S_10 
REMARK    5  A    between atoms: C_19  and  C_18 
ROOT
ATOM      1  N   UNL d   1     -47.640  13.237  22.909  0.00  0.00    -0.321 NA
ATOM      2  C   UNL d   1     -48.342  13.210  22.988  0.00  0.00     0.422 C 
ATOM      3  N   UNL d   1     -49.210  13.152  23.089  0.00  0.00    -0.180 NA
ATOM      4  O   UNL d   1     -48.400  13.899  22.883  0.00  0.00    -0.228 OA
ENDROOT
BRANCH   1   5
ATOM      5  C   UNL d   1     -46.783  13.096  22.842  0.00  0.00     0.271 A 
ATOM      6  S   UNL d   1     -46.247  13.359  22.465  0.00  0.00    -0.006 SA
ATOM      7  C   UNL d   1     -45.594  13.093  22.564  0.00  0.00     0.166 A 
ATOM      8  N   UNL d   1     -45.487  12.574  23.032  0.00  0.00    -0.132 NA
ATOM      9  N   UNL d   1     -46.676  12.577  23.310  0.00  0.00    -0.107 NA
BRANCH   7  10
ATOM     10  S   UNL d   1     -44.967  13.269  22.249  0.00  0.00    -0.059 SA
BRANCH  10  11
ATOM     11  C   UNL d   1     -44.508  12.688  21.896  0.00  0.00     0.037 C 
BRANCH  11  12
ATOM     12  C   UNL d   1     -43.874  12.901  21.420  0.00  0.00     0.007 C 
ATOM     13  C   UNL d   1     -43.157  12.507  21.482  0.00  0.00     0.001 C 
ENDBRANCH  11  12
ENDBRANCH  10  11
ENDBRANCH   7  10
ENDBRANCH   1   5
BRANCH   3  14
ATOM     14  C   UNL d   1     -49.675  13.837  23.028  0.00  0.00     0.087 A 
ATOM     15  C   UNL d   1     -49.995  14.052  22.297  0.00  0.00     0.022 A 
ATOM     16  C   UNL d   1     -50.455  14.734  22.248  0.00  0.00     0.031 A 
ATOM     17  C   UNL d   1     -50.598  15.200  22.914  0.00  0.00     0.140 A 
ATOM     18  C   UNL d   1     -50.275  14.980  23.641  0.00  0.00     0.031 A 
ATOM     19  F   UNL d   1     -51.063  15.885  22.853  0.00  0.00    -0.204 F 
ATOM     20  C   UNL d   1     -49.814  14.298  23.698  0.00  0.00     0.022 A 
ENDBRANCH   3  14
TORSDOF 5
ENDMDL
MODEL 3
REMARK VINA RESULT:      -5.5      2.795      3.178
REMARK  5 active torsions:
REMARK  status: ('A' for Active; 'I' for Inactive)
REMARK    1  A    between atoms: N_6  and  C_1 
REMARK    2  A    between atoms: S_10  and  C_4 
REMARK       I    between atoms: C_7  and  N_6 
REMARK       I    between atoms: N_8  and  C_7 
REMARK    3  A    between atoms: C_11  and  N_8 
REMARK    4  A    between atoms: C_18  and  S_10 
REMARK    5  A    between atoms: C_19  and  C_18 
ROOT
ATOM      1  N   UNL d   1     -45.385  13.090  22.353  0.00  0.00    -0.321 NA
ATOM      2  C   UNL d   1     -45.970  13.209  22.733  0.00  0.00     0.422 C 
ATOM      3  N   UNL d   1     -46.682  13.346  23.222  0.00  0.00    -0.180 NA
ATOM      4  O   UNL d   1     -46.308  13.452  22.170  0.00  0.00    -0.228 OA
ENDROOT
BRANCH   1   5
ATOM      5  C   UNL d   1     -44.598  12.887  22.040  0.00  0.00     0.271 A 
ATOM      6  S   UNL d   1     -44.146  13.159  21.570  0.00  0.00    -0.006 SA
ATOM      7  C   UNL d   1     -43.529  12.824  21.455  0.00  0.00     0.166 A 
ATOM      8  N   UNL d   1     -43.372  12.230  21.806  0.00  0.00    -0.132 NA
ATOM      9  N   UNL d   1     -44.442  12.294  22.391  0.00  0.00    -0.107 NA
BRANCH   7  10
ATOM     10  S   UNL d   1     -42.985  12.992  21.007  0.00  0.00    -0.059 SA
BRANCH  10  11
ATOM     11  C   UNL d   1     -42.343  13.422  21.285  0.00  0.00     0.037 C 
BRANCH  11  12
ATOM     12  C   UNL d   1     -41.759  13.667  20.763  0.00  0.00     0.007 C 
ATOM     13  C   UNL d   1     -41.162  14.170  21.015  0.00  0.00     0.001 C 
ENDBRANCH  11  12
ENDBRANCH  10  11
ENDBRANCH   7  10
ENDBRANCH   1   5
BRANCH   3  14
ATOM     14  C   UNL d   1     -47.365  13.663  22.870  0.00  0.00     0.087 A 
ATOM     15  C   UNL d   1     -47.922  13.157  22.529  0.00  0.00     0.022 A 
ATOM     16  C   UNL d   1     -48.597  13.482  22.182  0.00  0.00     0.031 A 
ATOM     17  C   UNL d   1     -48.719  14.297  22.173  0.00  0.00     0.140 A 
ATOM     18  C   UNL d   1     -48.158  14.797  22.515  0.00  0.00     0.031 A 
ATOM     19  F   UNL d   1     -49.401  14.614  21.821  0.00  0.00    -0.204 F 
ATOM     20  C   UNL d   1     -47.481  14.480  22.864  0.00  0.00     0.022 A 
ENDBRANCH   3  14
TORSDOF 5
ENDMDL
MODEL 4
REMARK VINA RESULT:      -5.2      2.795      4.914
REMARK  5 active torsions:
REMARK  status: ('A' for Active; 'I' for Inactive)
REMARK    1  A    between atoms: N_6  and  C_1 
REMARK    2  A    between atoms: S_10  and  C_4 
REMARK       I    between atoms: C_7  and  N_6 
REMARK       I    between atoms: N_8  and  C_7 
REMARK    3  A    between atoms: C_11  and  N_8 
REMARK    4  A    between atoms: C_18  and  S_10 
REMARK    5  A    between atoms: C_19  and  C_18 
ROOT
ATOM      1  N   UNL d   1     -47.516  12.189  23.257  0.00  0.00    -0.321 NA
ATOM      2  C   UNL d   1     -46.835  12.316  23.403  0.00  0.00     0.422 C 
ATOM      3  N   UNL d   1     -45.999  12.471  23.608  0.00  0.00    -0.180 NA
ATOM      4  O   UNL d   1     -46.678  12.358  22.722  0.00  0.00    -0.228 OA
ENDROOT
BRANCH   1   5
ATOM      5  C   UNL d   1     -48.371  12.025  23.252  0.00  0.00     0.271 A 
ATOM      6  S   UNL d   1     -48.957  12.360  23.043  0.00  0.00    -0.006 SA
ATOM      7  C   UNL d   1     -49.586  12.038  23.133  0.00  0.00     0.166 A 
ATOM      8  N   UNL d   1     -49.621  11.396  23.427  0.00  0.00    -0.132 NA
ATOM      9  N   UNL d   1     -48.406  11.383  23.546  0.00  0.00    -0.107 NA
BRANCH   7  10
ATOM     10  S   UNL d   1     -50.253  12.265  22.966  0.00  0.00    -0.059 SA
BRANCH  10  11
ATOM     11  C   UNL d   1     -50.403  12.585  22.225  0.00  0.00     0.037 C 
BRANCH  11  12
ATOM     12  C   UNL d   1     -51.051  13.077  22.116  0.00  0.00     0.007 C 
ATOM     13  C   UNL d   1     -51.064  13.614  21.497  0.00  0.00     0.001 C 
ENDBRANCH  11  12
ENDBRANCH  10  11
ENDBRANCH   7  10
ENDBRANCH   1   5
BRANCH   3  14
ATOM     14  C   UNL d   1     -45.444  12.589  23.000  0.00  0.00     0.087 A 
ATOM     15  C   UNL d   1     -45.451  13.294  22.570  0.00  0.00     0.022 A 
ATOM     16  C   UNL d   1     -44.895  13.400  21.970  0.00  0.00     0.031 A 
ATOM     17  C   UNL d   1     -44.340  12.815  21.796  0.00  0.00     0.140 A 
ATOM     18  C   UNL d   1     -44.340  12.113  22.229  0.00  0.00     0.031 A 
ATOM     19  F   UNL d   1     -43.785  12.932  21.189  0.00  0.00    -0.204 F 
ATOM     20  C   UNL d   1     -44.892  11.999  22.832  0.00  0.00     0.022 A 
ENDBRANCH   3  14
TORSDOF 5
ENDMDL
MODEL 5
REMARK VINA RESULT:      -5.1      8.607      9.789
REMARK  5 active torsions:
REMARK  status: ('A' for Active; 'I' for Inactive)
REMARK    1  A    between atoms: N_6  and  C_1 
REMARK    2  A    between atoms: S_10  and  C_4 
REMARK       I    between atoms: C_7  and  N_6 
REMARK       I    between atoms: N_8  and  C_7 
REMARK    3  A    between atoms: C_11  and  N_8 
REMARK    4  A    between atoms: C_18  and  S_10 
REMARK    5  A    between atoms: C_19  and  C_18 
ROOT
ATOM      1  N   UNL d   1     -40.286  14.562  19.385  0.00  0.00    -0.321 NA
ATOM      2  C   UNL d   1     -40.425  14.492  20.074  0.00  0.00     0.422 C 
ATOM      3  N   UNL d   1     -40.621  14.404  20.923  0.00  0.00    -0.180 NA
ATOM      4  O   UNL d   1     -39.748  14.564  20.237  0.00  0.00    -0.228 OA
ENDROOT
BRANCH   1   5
ATOM      5  C   UNL d   1     -40.290  14.628  18.516  0.00  0.00     0.271 A 
ATOM      6  S   UNL d   1     -39.967  15.025  18.030  0.00  0.00    -0.006 SA
ATOM      7  C   UNL d   1     -40.116  14.914  17.342  0.00  0.00     0.166 A 
ATOM      8  N   UNL d   1     -40.579  14.414  17.152  0.00  0.00    -0.132 NA
ATOM      9  N   UNL d   1     -40.752  14.128  18.326  0.00  0.00    -0.107 NA
BRANCH   7  10
ATOM     10  S   UNL d   1     -39.861  15.246  16.751  0.00  0.00    -0.059 SA
BRANCH  10  11
ATOM     11  C   UNL d   1     -39.072  15.160  16.542  0.00  0.00     0.037 C 
BRANCH  11  12
ATOM     12  C   UNL d   1     -38.749  15.640  15.959  0.00  0.00     0.007 C 
ATOM     13  C   UNL d   1     -37.980  15.519  15.701  0.00  0.00     0.001 C 
ENDBRANCH  11  12
ENDBRANCH  10  11
ENDBRANCH   7  10
ENDBRANCH   1   5
BRANCH   3  14
ATOM     14  C   UNL d   1     -40.014  14.436  21.488  0.00  0.00     0.087 A 
ATOM     15  C   UNL d   1     -39.768  15.167  21.784  0.00  0.00     0.022 A 
ATOM     16  C   UNL d   1     -39.164  15.187  22.346  0.00  0.00     0.031 A 
ATOM     17  C   UNL d   1     -38.807  14.493  22.611  0.00  0.00     0.140 A 
ATOM     18  C   UNL d   1     -39.058  13.766  22.311  0.00  0.00     0.031 A 
ATOM     19  F   UNL d   1     -38.199  14.525  23.177  0.00  0.00    -0.204 F 
ATOM     20  C   UNL d   1     -39.661  13.737  21.750  0.00  0.00     0.022 A 
ENDBRANCH   3  14
TORSDOF 5
ENDMDL
MODEL 6
REMARK VINA RESULT:      -4.9      9.185     10.029
REMARK  5 active torsions:
REMARK  status: ('A' for Active; 'I' for Inactive)
REMARK    1  A    between atoms: N_6  and  C_1 
REMARK    2  A    between atoms: S_10  and  C_4 
REMARK       I    between atoms: C_7  and  N_6 
REMARK       I    between atoms: N_8  and  C_7 
REMARK    3  A    between atoms: C_11  and  N_8 
REMARK    4  A    between atoms: C_18  and  S_10 
REMARK    5  A    between atoms: C_19  and  C_18 
ROOT
ATOM      1  N   UNL d   1     -39.650  14.236  19.459  0.00  0.00    -0.321 NA
ATOM      2  C   UNL d   1     -39.805  14.025  18.802  0.00  0.00     0.422 C 
ATOM      3  N   UNL d   1     -40.017  13.755  17.997  0.00  0.00    -0.180 NA
ATOM      4  O   UNL d   1     -39.207  14.295  18.555  0.00  0.00    -0.228 OA
ENDROOT
BRANCH   1   5
ATOM      5  C   UNL d   1     -39.615  14.421  20.309  0.00  0.00     0.271 A 
ATOM      6  S   UNL d   1     -39.149  14.342  20.834  0.00  0.00    -0.006 SA
ATOM      7  C   UNL d   1     -39.323  14.571  21.486  0.00  0.00     0.166 A 
ATOM      8  N   UNL d   1     -39.952  14.872  21.603  0.00  0.00    -0.132 NA
ATOM      9  N   UNL d   1     -40.244  14.722  20.427  0.00  0.00    -0.107 NA
BRANCH   7  10
ATOM     10  S   UNL d   1     -38.944  14.552  22.102  0.00  0.00    -0.059 SA
BRANCH  10  11
ATOM     11  C   UNL d   1     -38.950  13.875  22.566  0.00  0.00     0.037 C 
BRANCH  11  12
ATOM     12  C   UNL d   1     -38.541  13.864  23.278  0.00  0.00     0.007 C 
ATOM     13  C   UNL d   1     -38.458  13.165  23.698  0.00  0.00     0.001 C 
ENDBRANCH  11  12
ENDBRANCH  10  11
ENDBRANCH   7  10
ENDBRANCH   1   5
BRANCH   3  14
ATOM     14  C   UNL d   1     -39.499  13.907  17.366  0.00  0.00     0.087 A 
ATOM     15  C   UNL d   1     -39.569  14.610  16.938  0.00  0.00     0.022 A 
ATOM     16  C   UNL d   1     -39.050  14.751  16.313  0.00  0.00     0.031 A 
ATOM     17  C   UNL d   1     -38.468  14.202  16.112  0.00  0.00     0.140 A 
ATOM     18  C   UNL d   1     -38.404  13.501  16.543  0.00  0.00     0.031 A 
ATOM     19  F   UNL d   1     -37.951  14.353  15.480  0.00  0.00    -0.204 F 
ATOM     20  C   UNL d   1     -38.919  13.353  17.170  0.00  0.00     0.022 A 
ENDBRANCH   3  14
TORSDOF 5
ENDMDL
