MODEL 1
REMARK VINA RESULT:      -3.4      0.000      0.000
REMARK  5 active torsions:
REMARK  status: ('A' for Active; 'I' for Inactive)
REMARK    1  A    between atoms: N_5  and  C_1 
REMARK    2  A    between atoms: N_6  and  C_1 
REMARK       I    between atoms: C_2  and  N_3 
REMARK    3  A    between atoms: C_4  and  C_2 
REMARK    4  A    between atoms: N_3  and  N_5 
REMARK    5  A    between atoms: C_11  and  N_6 
ROOT
ATOM      1  N   UNL d   1      32.894  20.406 -21.999  0.00  0.00    -0.273 N 
ATOM      2  H   UNL d   1      33.045  20.966 -22.577  0.00  0.00     0.189 HD
ENDROOT
BRANCH   1   3
ATOM      3  N   UNL d   1      32.856  19.602 -22.210  0.00  0.00    -0.264 N 
ATOM      4  C   UNL d   1      32.906  19.367 -22.997  0.00  0.00     0.272 C 
ATOM      5  O   UNL d   1      32.995  19.931 -23.583  0.00  0.00    -0.266 OA
ATOM      6  H   UNL d   1      32.764  19.025 -21.610  0.00  0.00     0.190 HD
BRANCH   4   7
ATOM      7  C   UNL d   1      32.868  18.571 -23.200  0.00  0.00     0.058 A 
ATOM      8  C   UNL d   1      32.452  18.332 -23.881  0.00  0.00     0.011 A 
ATOM      9  C   UNL d   1      32.421  17.533 -24.075  0.00  0.00     0.035 A 
ATOM     10 BR   UNL d   1      32.012  17.291 -24.746  0.00  0.00    -0.049 Br
ATOM     11  C   UNL d   1      32.794  16.976 -23.604  0.00  0.00     0.007 A 
ATOM     12  C   UNL d   1      33.206  17.207 -22.930  0.00  0.00     0.001 A 
ATOM     13  C   UNL d   1      33.241  18.014 -22.730  0.00  0.00     0.005 A 
ENDBRANCH   4   7
ENDBRANCH   1   3
BRANCH   1  14
ATOM     14  C   UNL d   1      32.780  20.630 -21.220  0.00  0.00     0.191 C 
ATOM     15  S   UNL d   1      33.241  20.307 -20.616  0.00  0.00    -0.039 SA
BRANCH  14  16
ATOM     16  N   UNL d   1      32.193  21.187 -21.046  0.00  0.00    -0.331 N 
ATOM     17  H   UNL d   1      31.401  20.985 -21.100  0.00  0.00     0.168 HD
BRANCH  16  18
ATOM     18  C   UNL d   1      32.421  21.935 -20.822  0.00  0.00     0.058 A 
ATOM     19  C   UNL d   1      32.165  22.592 -21.277  0.00  0.00     0.017 A 
ATOM     20  C   UNL d   1      32.392  23.357 -21.055  0.00  0.00     0.002 A 
ATOM     21  C   UNL d   1      32.868  23.475 -20.391  0.00  0.00     0.000 A 
ATOM     22  C   UNL d   1      33.123  22.819 -19.938  0.00  0.00     0.002 A 
ATOM     23  C   UNL d   1      32.896  22.053 -20.158  0.00  0.00     0.017 A 
ENDBRANCH  16  18
ENDBRANCH  14  16
ENDBRANCH   1  14
TORSDOF 5
ENDMDL
MODEL 2
REMARK VINA RESULT:      -3.3      2.126      5.110
REMARK  5 active torsions:
REMARK  status: ('A' for Active; 'I' for Inactive)
REMARK    1  A    between atoms: N_5  and  C_1 
REMARK    2  A    between atoms: N_6  and  C_1 
REMARK       I    between atoms: C_2  and  N_3 
REMARK    3  A    between atoms: C_4  and  C_2 
REMARK    4  A    between atoms: N_3  and  N_5 
REMARK    5  A    between atoms: C_11  and  N_6 
ROOT
ATOM      1  N   UNL d   1      32.567  20.283 -22.119  0.00  0.00    -0.273 N 
ATOM      2  H   UNL d   1      31.932  19.871 -21.807  0.00  0.00     0.189 HD
ENDROOT
BRANCH   1   3
ATOM      3  N   UNL d   1      32.758  21.032 -21.809  0.00  0.00    -0.264 N 
ATOM      4  C   UNL d   1      32.297  21.378 -21.222  0.00  0.00     0.272 C 
ATOM      5  O   UNL d   1      31.641  20.981 -20.935  0.00  0.00    -0.266 OA
ATOM      6  H   UNL d   1      33.429  21.438 -22.102  0.00  0.00     0.190 HD
BRANCH   4   7
ATOM      7  C   UNL d   1      32.490  22.119 -20.919  0.00  0.00     0.058 A 
ATOM      8  C   UNL d   1      32.712  22.200 -20.121  0.00  0.00     0.011 A 
ATOM      9  C   UNL d   1      32.902  22.946 -19.829  0.00  0.00     0.035 A 
ATOM     10 BR   UNL d   1      33.123  23.033 -19.043  0.00  0.00    -0.049 Br
ATOM     11  C   UNL d   1      32.874  23.603 -20.318  0.00  0.00     0.007 A 
ATOM     12  C   UNL d   1      32.654  23.528 -21.107  0.00  0.00     0.001 A 
ATOM     13  C   UNL d   1      32.461  22.776 -21.407  0.00  0.00     0.005 A 
ENDBRANCH   4   7
ENDBRANCH   1   3
BRANCH   1  14
ATOM     14  C   UNL d   1      33.014  19.967 -22.727  0.00  0.00     0.191 C 
ATOM     15  S   UNL d   1      33.236  20.431 -23.373  0.00  0.00    -0.039 SA
BRANCH  14  16
ATOM     16  N   UNL d   1      33.241  19.172 -22.684  0.00  0.00    -0.331 N 
ATOM     17  H   UNL d   1      33.821  18.935 -22.158  0.00  0.00     0.168 HD
BRANCH  16  18
ATOM     18  C   UNL d   1      32.876  18.637 -23.175  0.00  0.00     0.058 A 
ATOM     19  C   UNL d   1      32.499  17.967 -22.838  0.00  0.00     0.017 A 
ATOM     20  C   UNL d   1      32.124  17.417 -23.331  0.00  0.00     0.002 A 
ATOM     21  C   UNL d   1      32.120  17.524 -24.149  0.00  0.00     0.000 A 
ATOM     22  C   UNL d   1      32.497  18.192 -24.485  0.00  0.00     0.002 A 
ATOM     23  C   UNL d   1      32.872  18.744 -23.993  0.00  0.00     0.017 A 
ENDBRANCH  16  18
ENDBRANCH  14  16
ENDBRANCH   1  14
TORSDOF 5
ENDMDL
MODEL 3
REMARK VINA RESULT:      -3.1      0.996      1.373
REMARK  5 active torsions:
REMARK  status: ('A' for Active; 'I' for Inactive)
REMARK    1  A    between atoms: N_5  and  C_1 
REMARK    2  A    between atoms: N_6  and  C_1 
REMARK       I    between atoms: C_2  and  N_3 
REMARK    3  A    between atoms: C_4  and  C_2 
REMARK    4  A    between atoms: N_3  and  N_5 
REMARK    5  A    between atoms: C_11  and  N_6 
ROOT
ATOM      1  N   UNL d   1      32.984  19.617 -22.114  0.00  0.00    -0.273 N 
ATOM      2  H   UNL d   1      33.377  19.169 -21.553  0.00  0.00     0.189 HD
ENDROOT
BRANCH   1   3
ATOM      3  N   UNL d   1      32.694  19.246 -22.800  0.00  0.00    -0.264 N 
ATOM      4  C   UNL d   1      32.819  18.444 -22.935  0.00  0.00     0.272 C 
ATOM      5  O   UNL d   1      33.236  18.002 -22.386  0.00  0.00    -0.266 OA
ATOM      6  H   UNL d   1      32.267  19.699 -23.361  0.00  0.00     0.190 HD
BRANCH   4   7
ATOM      7  C   UNL d   1      32.531  18.082 -23.615  0.00  0.00     0.058 A 
ATOM      8  C   UNL d   1      31.785  17.712 -23.608  0.00  0.00     0.011 A 
ATOM      9  C   UNL d   1      31.507  17.353 -24.294  0.00  0.00     0.035 A 
ATOM     10 BR   UNL d   1      30.771  16.986 -24.294  0.00  0.00    -0.049 Br
ATOM     11  C   UNL d   1      31.957  17.359 -24.979  0.00  0.00     0.007 A 
ATOM     12  C   UNL d   1      32.694  17.724 -24.991  0.00  0.00     0.001 A 
ATOM     13  C   UNL d   1      32.981  18.088 -24.299  0.00  0.00     0.005 A 
ENDBRANCH   4   7
ENDBRANCH   1   3
BRANCH   1  14
ATOM     14  C   UNL d   1      32.874  20.421 -22.007  0.00  0.00     0.191 C 
ATOM     15  S   UNL d   1      33.223  20.967 -22.518  0.00  0.00    -0.039 SA
BRANCH  14  16
ATOM     16  N   UNL d   1      32.405  20.679 -21.375  0.00  0.00    -0.331 N 
ATOM     17  H   UNL d   1      31.742  20.255 -21.151  0.00  0.00     0.168 HD
BRANCH  16  18
ATOM     18  C   UNL d   1      32.619  21.360 -20.985  0.00  0.00     0.058 A 
ATOM     19  C   UNL d   1      32.948  21.302 -20.215  0.00  0.00     0.017 A 
ATOM     20  C   UNL d   1      33.168  21.990 -19.811  0.00  0.00     0.002 A 
ATOM     21  C   UNL d   1      33.065  22.731 -20.161  0.00  0.00     0.000 A 
ATOM     22  C   UNL d   1      32.737  22.788 -20.929  0.00  0.00     0.002 A 
ATOM     23  C   UNL d   1      32.516  22.100 -21.335  0.00  0.00     0.017 A 
ENDBRANCH  16  18
ENDBRANCH  14  16
ENDBRANCH   1  14
TORSDOF 5
ENDMDL
MODEL 4
REMARK VINA RESULT:      -2.4      2.186      5.196
REMARK  5 active torsions:
REMARK  status: ('A' for Active; 'I' for Inactive)
REMARK    1  A    between atoms: N_5  and  C_1 
REMARK    2  A    between atoms: N_6  and  C_1 
REMARK       I    between atoms: C_2  and  N_3 
REMARK    3  A    between atoms: C_4  and  C_2 
REMARK    4  A    between atoms: N_3  and  N_5 
REMARK    5  A    between atoms: C_11  and  N_6 
ROOT
ATOM      1  N   UNL d   1      32.717  18.202 -23.485  0.00  0.00    -0.273 N 
ATOM      2  H   UNL d   1      32.763  18.509 -24.243  0.00  0.00     0.189 HD
ENDROOT
BRANCH   1   3
ATOM      3  N   UNL d   1      32.833  18.707 -22.834  0.00  0.00    -0.264 N 
ATOM      4  C   UNL d   1      32.893  19.521 -22.933  0.00  0.00     0.272 C 
ATOM      5  O   UNL d   1      32.837  19.843 -23.685  0.00  0.00    -0.266 OA
ATOM      6  H   UNL d   1      32.890  18.378 -22.066  0.00  0.00     0.190 HD
BRANCH   4   7
ATOM      7  C   UNL d   1      33.007  20.016 -22.286  0.00  0.00     0.058 A 
ATOM      8  C   UNL d   1      33.019  20.843 -22.388  0.00  0.00     0.011 A 
ATOM      9  C   UNL d   1      33.134  21.328 -21.733  0.00  0.00     0.035 A 
ATOM     10 BR   UNL d   1      33.146  22.144 -21.826  0.00  0.00    -0.049 Br
ATOM     11  C   UNL d   1      33.238  21.003 -20.988  0.00  0.00     0.007 A 
ATOM     12  C   UNL d   1      33.228  20.187 -20.882  0.00  0.00     0.001 A 
ATOM     13  C   UNL d   1      33.111  19.692 -21.541  0.00  0.00     0.005 A 
ENDBRANCH   4   7
ENDBRANCH   1   3
BRANCH   1  14
ATOM     14  C   UNL d   1      32.559  17.408 -23.364  0.00  0.00     0.191 C 
ATOM     15  S   UNL d   1      33.171  16.857 -23.318  0.00  0.00    -0.039 SA
BRANCH  14  16
ATOM     16  N   UNL d   1      31.771  17.166 -23.286  0.00  0.00    -0.331 N 
ATOM     17  H   UNL d   1      31.334  17.382 -22.628  0.00  0.00     0.168 HD
BRANCH  16  18
ATOM     18  C   UNL d   1      31.444  16.712 -23.876  0.00  0.00     0.058 A 
ATOM     19  C   UNL d   1      31.713  15.923 -23.979  0.00  0.00     0.017 A 
ATOM     20  C   UNL d   1      31.385  15.454 -24.577  0.00  0.00     0.002 A 
ATOM     21  C   UNL d   1      30.797  15.757 -25.070  0.00  0.00     0.000 A 
ATOM     22  C   UNL d   1      30.529  16.543 -24.967  0.00  0.00     0.002 A 
ATOM     23  C   UNL d   1      30.856  17.014 -24.369  0.00  0.00     0.017 A 
ENDBRANCH  16  18
ENDBRANCH  14  16
ENDBRANCH   1  14
TORSDOF 5
ENDMDL
MODEL 5
REMARK VINA RESULT:      -2.1      3.042      5.536
REMARK  5 active torsions:
REMARK  status: ('A' for Active; 'I' for Inactive)
REMARK    1  A    between atoms: N_5  and  C_1 
REMARK    2  A    between atoms: N_6  and  C_1 
REMARK       I    between atoms: C_2  and  N_3 
REMARK    3  A    between atoms: C_4  and  C_2 
REMARK    4  A    between atoms: N_3  and  N_5 
REMARK    5  A    between atoms: C_11  and  N_6 
ROOT
ATOM      1  N   UNL d   1      31.511  16.830 -23.806  0.00  0.00    -0.273 N 
ATOM      2  H   UNL d   1      31.681  16.617 -24.578  0.00  0.00     0.189 HD
ENDROOT
BRANCH   1   3
ATOM      3  N   UNL d   1      31.822  17.540 -23.502  0.00  0.00    -0.264 N 
ATOM      4  C   UNL d   1      32.326  18.010 -23.952  0.00  0.00     0.272 C 
ATOM      5  O   UNL d   1      32.526  17.778 -24.711  0.00  0.00    -0.266 OA
ATOM      6  H   UNL d   1      31.617  17.777 -22.726  0.00  0.00     0.190 HD
BRANCH   4   7
ATOM      7  C   UNL d   1      32.631  18.711 -23.647  0.00  0.00     0.058 A 
ATOM      8  C   UNL d   1      32.780  18.782 -22.831  0.00  0.00     0.011 A 
ATOM      9  C   UNL d   1      33.085  19.488 -22.537  0.00  0.00     0.035 A 
ATOM     10 BR   UNL d   1      33.234  19.565 -21.732  0.00  0.00    -0.049 Br
ATOM     11  C   UNL d   1      33.241  20.115 -23.040  0.00  0.00     0.007 A 
ATOM     12  C   UNL d   1      33.095  20.049 -23.848  0.00  0.00     0.001 A 
ATOM     13  C   UNL d   1      32.787  19.338 -24.150  0.00  0.00     0.005 A 
ENDBRANCH   4   7
ENDBRANCH   1   3
BRANCH   1  14
ATOM     14  C   UNL d   1      31.042  16.355 -23.333  0.00  0.00     0.191 C 
ATOM     15  S   UNL d   1      31.344  15.667 -22.993  0.00  0.00    -0.039 SA
BRANCH  14  16
ATOM     16  N   UNL d   1      30.255  16.577 -23.202  0.00  0.00    -0.331 N 
ATOM     17  H   UNL d   1      30.074  17.153 -22.649  0.00  0.00     0.168 HD
BRANCH  16  18
ATOM     18  C   UNL d   1      29.670  16.210 -23.632  0.00  0.00     0.058 A 
ATOM     19  C   UNL d   1      29.044  15.828 -23.225  0.00  0.00     0.017 A 
ATOM     20  C   UNL d   1      28.445  15.453 -23.656  0.00  0.00     0.002 A 
ATOM     21  C   UNL d   1      28.461  15.453 -24.481  0.00  0.00     0.000 A 
ATOM     22  C   UNL d   1      29.086  15.835 -24.887  0.00  0.00     0.002 A 
ATOM     23  C   UNL d   1      29.686  16.211 -24.457  0.00  0.00     0.017 A 
ENDBRANCH  16  18
ENDBRANCH  14  16
ENDBRANCH   1  14
TORSDOF 5
ENDMDL
MODEL 6
REMARK VINA RESULT:      -1.8      2.094      2.977
REMARK  5 active torsions:
REMARK  status: ('A' for Active; 'I' for Inactive)
REMARK    1  A    between atoms: N_5  and  C_1 
REMARK    2  A    between atoms: N_6  and  C_1 
REMARK       I    between atoms: C_2  and  N_3 
REMARK    3  A    between atoms: C_4  and  C_2 
REMARK    4  A    between atoms: N_3  and  N_5 
REMARK    5  A    between atoms: C_11  and  N_6 
ROOT
ATOM      1  N   UNL d   1      32.301  18.508 -23.749  0.00  0.00    -0.273 N 
ATOM      2  H   UNL d   1      32.330  18.969 -24.425  0.00  0.00     0.189 HD
ENDROOT
BRANCH   1   3
ATOM      3  N   UNL d   1      31.756  17.880 -23.708  0.00  0.00    -0.264 N 
ATOM      4  C   UNL d   1      31.300  17.670 -24.360  0.00  0.00     0.272 C 
ATOM      5  O   UNL d   1      31.383  18.083 -25.062  0.00  0.00    -0.266 OA
ATOM      6  H   UNL d   1      31.672  17.458 -22.990  0.00  0.00     0.190 HD
BRANCH   4   7
ATOM      7  C   UNL d   1      30.763  17.049 -24.314  0.00  0.00     0.058 A 
ATOM      8  C   UNL d   1      29.990  17.183 -24.036  0.00  0.00     0.011 A 
ATOM      9  C   UNL d   1      29.461  16.554 -23.994  0.00  0.00     0.035 A 
ATOM     10 BR   UNL d   1      28.696  16.681 -23.720  0.00  0.00    -0.049 Br
ATOM     11  C   UNL d   1      29.690  15.802 -24.223  0.00  0.00     0.007 A 
ATOM     12  C   UNL d   1      30.453  15.664 -24.499  0.00  0.00     0.001 A 
ATOM     13  C   UNL d   1      30.992  16.297 -24.543  0.00  0.00     0.005 A 
ENDBRANCH   4   7
ENDBRANCH   1   3
BRANCH   1  14
ATOM     14  C   UNL d   1      32.800  18.658 -23.118  0.00  0.00     0.191 C 
ATOM     15  S   UNL d   1      32.867  18.120 -22.495  0.00  0.00    -0.039 SA
BRANCH  14  16
ATOM     16  N   UNL d   1      33.238  19.360 -23.113  0.00  0.00    -0.331 N 
ATOM     17  H   UNL d   1      33.767  19.523 -23.717  0.00  0.00     0.168 HD
BRANCH  16  18
ATOM     18  C   UNL d   1      33.130  19.882 -22.499  0.00  0.00     0.058 A 
ATOM     19  C   UNL d   1      33.241  19.613 -21.712  0.00  0.00     0.017 A 
ATOM     20  C   UNL d   1      33.133  20.138 -21.081  0.00  0.00     0.002 A 
ATOM     21  C   UNL d   1      32.919  20.922 -21.222  0.00  0.00     0.000 A 
ATOM     22  C   UNL d   1      32.808  21.190 -22.007  0.00  0.00     0.002 A 
ATOM     23  C   UNL d   1      32.915  20.666 -22.640  0.00  0.00     0.017 A 
ENDBRANCH  16  18
ENDBRANCH  14  16
ENDBRANCH   1  14
TORSDOF 5
ENDMDL
MODEL 7
REMARK VINA RESULT:      -1.8      3.239      4.350
REMARK  5 active torsions:
REMARK  status: ('A' for Active; 'I' for Inactive)
REMARK    1  A    between atoms: N_5  and  C_1 
REMARK    2  A    between atoms: N_6  and  C_1 
REMARK       I    between atoms: C_2  and  N_3 
REMARK    3  A    between atoms: C_4  and  C_2 
REMARK    4  A    between atoms: N_3  and  N_5 
REMARK    5  A    between atoms: C_11  and  N_6 
ROOT
ATOM      1  N   UNL d   1      32.443  22.502 -19.199  0.00  0.00    -0.273 N 
ATOM      2  H   UNL d   1      32.123  21.801 -18.922  0.00  0.00     0.189 HD
ENDROOT
BRANCH   1   3
ATOM      3  N   UNL d   1      32.703  22.547 -19.988  0.00  0.00    -0.264 N 
ATOM      4  C   UNL d   1      32.319  22.134 -20.586  0.00  0.00     0.272 C 
ATOM      5  O   UNL d   1      31.669  21.669 -20.405  0.00  0.00    -0.266 OA
ATOM      6  H   UNL d   1      33.367  23.022 -20.174  0.00  0.00     0.190 HD
BRANCH   4   7
ATOM      7  C   UNL d   1      32.580  22.182 -21.365  0.00  0.00     0.058 A 
ATOM      8  C   UNL d   1      32.452  22.875 -21.808  0.00  0.00     0.011 A 
ATOM      9  C   UNL d   1      32.718  22.911 -22.586  0.00  0.00     0.035 A 
ATOM     10 BR   UNL d   1      32.594  23.593 -23.028  0.00  0.00    -0.049 Br
ATOM     11  C   UNL d   1      33.105  22.273 -22.924  0.00  0.00     0.007 A 
ATOM     12  C   UNL d   1      33.234  21.586 -22.490  0.00  0.00     0.001 A 
ATOM     13  C   UNL d   1      32.967  21.544 -21.702  0.00  0.00     0.005 A 
ENDBRANCH   4   7
ENDBRANCH   1   3
BRANCH   1  14
ATOM     14  C   UNL d   1      32.509  23.155 -18.709  0.00  0.00     0.191 C 
ATOM     15  S   UNL d   1      31.887  23.693 -18.637  0.00  0.00    -0.039 SA
BRANCH  14  16
ATOM     16  N   UNL d   1      33.211  23.267 -18.286  0.00  0.00    -0.331 N 
ATOM     17  H   UNL d   1      33.883  23.543 -18.665  0.00  0.00     0.168 HD
BRANCH  16  18
ATOM     18  C   UNL d   1      33.218  23.099 -17.491  0.00  0.00     0.058 A 
ATOM     19  C   UNL d   1      33.220  22.296 -17.245  0.00  0.00     0.017 A 
ATOM     20  C   UNL d   1      33.227  22.116 -16.437  0.00  0.00     0.002 A 
ATOM     21  C   UNL d   1      33.232  22.719 -15.874  0.00  0.00     0.000 A 
ATOM     22  C   UNL d   1      33.230  23.520 -16.120  0.00  0.00     0.002 A 
ATOM     23  C   UNL d   1      33.223  23.702 -16.928  0.00  0.00     0.017 A 
ENDBRANCH  16  18
ENDBRANCH  14  16
ENDBRANCH   1  14
TORSDOF 5
ENDMDL
