MODEL 1
REMARK VINA RESULT:      48.3      0.000      0.000
REMARK  4 active torsions:
REMARK  status: ('A' for Active; 'I' for Inactive)
REMARK    1  A    between atoms: C_17  and  N_3 
REMARK    2  A    between atoms: C_9  and  C_5 
REMARK    3  A    between atoms: O_21  and  C_12 
REMARK    4  A    between atoms: C_19  and  C_17 
ROOT
ATOM      1  C   UNL d   1      46.024 -17.465  43.345  0.00  0.00     0.083 A 
ATOM      2  C   UNL d   1      46.181 -17.601  44.139  0.00  0.00     0.161 A 
ATOM      3  N   UNL d   1      46.341 -18.780  43.499  0.00  0.00    -0.272 N 
ATOM      4  C   UNL d   1      46.374 -18.398  44.239  0.00  0.00     0.288 A 
ATOM      5  C   UNL d   1      46.123 -18.209  42.935  0.00  0.00     0.072 A 
ATOM      6  C   UNL d   1      45.813 -16.714  43.074  0.00  0.00     0.201 A 
ATOM      7  O   UNL d   1      46.126 -16.964  44.677  0.00  0.00    -0.302 OA
ATOM      8  C   UNL d   1      45.760 -16.086  43.610  0.00  0.00     0.062 A 
ATOM      9  C   UNL d   1      45.917 -16.212  44.419  0.00  0.00     0.103 A 
ATOM     10  O   UNL d   1      46.571 -18.766  44.955  0.00  0.00    -0.264 OA
ATOM     11  O   UNL d   1      45.657 -16.590  42.273  0.00  0.00    -0.286 OA
ATOM     12  C   UNL d   1      45.549 -15.329  43.345  0.00  0.00     0.005 A 
ATOM     13  C   UNL d   1      45.862 -15.579  44.952  0.00  0.00     0.025 A 
ATOM     14  C   UNL d   1      45.497 -14.704  43.885  0.00  0.00     0.000 A 
ATOM     15  C   UNL d   1      45.653 -14.829  44.685  0.00  0.00     0.002 A 
ENDROOT
BRANCH   5  16
ATOM     16  C   UNL d   1      46.021 -18.332  42.129  0.00  0.00     0.019 A 
ATOM     17  C   UNL d   1      45.296 -18.186  41.781  0.00  0.00     0.029 A 
ATOM     18  C   UNL d   1      45.182 -18.305  40.976  0.00  0.00     0.133 A 
ATOM     19  C   UNL d   1      45.810 -18.576  40.515  0.00  0.00     0.218 A 
ATOM     20  C   UNL d   1      46.549 -18.725  40.866  0.00  0.00     0.044 A 
ATOM     21  O   UNL d   1      45.709 -18.700  39.705  0.00  0.00    -0.284 OA
ATOM     22  C   UNL d   1      46.647 -18.602  41.668  0.00  0.00     0.005 A 
BRANCH  18  23
ATOM     23  O   UNL d   1      44.455 -18.159  40.627  0.00  0.00    -0.325 OA
ATOM     24  C   UNL d   1      44.310 -17.430  40.262  0.00  0.00     0.181 C 
ENDBRANCH  18  23
ENDBRANCH   5  16
BRANCH   3  25
ATOM     25  C   UNL d   1      46.493 -19.576  43.345  0.00  0.00     0.083 C 
BRANCH  25  26
ATOM     26  C   UNL d   1      46.009 -20.158  43.667  0.00  0.00     0.019 C 
ATOM     27  C   UNL d   1      46.045 -20.327  44.473  0.00  0.00     0.002 C 
ENDBRANCH  25  26
ENDBRANCH   3  25
TORSDOF 4
ENDMDL
