MODEL 1
REMARK VINA RESULT:      -2.7      0.000      0.000
REMARK  3 active torsions:
REMARK  status: ('A' for Active; 'I' for Inactive)
REMARK    1  A    between atoms: S_9  and  C_6 
REMARK    2  A    between atoms: C_13  and  S_9 
REMARK    3  A    between atoms: C_11  and  C_13 
ROOT
ATOM      1  C   UNL d   1      31.157  15.860 -23.596  0.00  0.00     0.114 A 
ATOM      2  C   UNL d   1      31.257  16.619 -23.874  0.00  0.00     0.048 A 
ATOM      3  S   UNL d   1      30.380  15.634 -23.703  0.00  0.00    -0.068 SA
ATOM      4  C   UNL d   1      30.525  16.876 -24.163  0.00  0.00     0.010 A 
ATOM      5  C   UNL d   1      29.980  16.294 -24.069  0.00  0.00     0.031 A 
ATOM      6  C   UNL d   1      32.004  16.980 -23.829  0.00  0.00     0.111 A 
ATOM      7  N   UNL d   1      31.799  15.453 -23.270  0.00  0.00    -0.217 NA
ATOM      8  N   UNL d   1      32.646  16.583 -23.507  0.00  0.00    -0.218 NA
ATOM      9  C   UNL d   1      32.542  15.815 -23.226  0.00  0.00     0.200 A 
ATOM     10  C   UNL d   1      30.309  17.596 -24.506  0.00  0.00     0.001 A 
ATOM     11  C   UNL d   1      29.195  16.393 -24.308  0.00  0.00     0.006 A 
ATOM     12  C   UNL d   1      29.528  17.699 -24.746  0.00  0.00     0.000 A 
ATOM     13  C   UNL d   1      28.983  17.122 -24.653  0.00  0.00     0.001 A 
ENDROOT
BRANCH   6  14
ATOM     14  S   UNL d   1      32.117  17.766 -24.115  0.00  0.00    -0.083 SA
BRANCH  14  15
ATOM     15  C   UNL d   1      32.850  18.096 -24.078  0.00  0.00     0.161 C 
BRANCH  15  16
ATOM     16  C   UNL d   1      32.946  18.871 -24.326  0.00  0.00     0.197 C 
ATOM     17  O   UNL d   1      32.902  19.471 -23.775  0.00  0.00    -0.647 OA
ATOM     18  O   UNL d   1      33.080  19.047 -25.095  0.00  0.00    -0.647 OA
ENDBRANCH  15  16
ENDBRANCH  14  15
ENDBRANCH   6  14
TORSDOF 3
ENDMDL
MODEL 2
REMARK VINA RESULT:      -2.2      1.800      3.025
REMARK  3 active torsions:
REMARK  status: ('A' for Active; 'I' for Inactive)
REMARK    1  A    between atoms: S_9  and  C_6 
REMARK    2  A    between atoms: C_13  and  S_9 
REMARK    3  A    between atoms: C_11  and  C_13 
ROOT
ATOM      1  C   UNL d   1      32.371  16.532 -23.611  0.00  0.00     0.114 A 
ATOM      2  C   UNL d   1      31.734  16.897 -23.963  0.00  0.00     0.048 A 
ATOM      3  S   UNL d   1      33.045  16.973 -23.750  0.00  0.00    -0.068 SA
ATOM      4  C   UNL d   1      32.014  17.583 -24.332  0.00  0.00     0.010 A 
ATOM      5  C   UNL d   1      32.806  17.648 -24.215  0.00  0.00     0.031 A 
ATOM      6  C   UNL d   1      30.978  16.558 -23.902  0.00  0.00     0.111 A 
ATOM      7  N   UNL d   1      32.263  15.826 -23.194  0.00  0.00    -0.217 NA
ATOM      8  N   UNL d   1      30.862  15.857 -23.491  0.00  0.00    -0.218 NA
ATOM      9  C   UNL d   1      31.509  15.490 -23.136  0.00  0.00     0.200 A 
ATOM     10  C   UNL d   1      31.611  18.158 -24.768  0.00  0.00     0.001 A 
ATOM     11  C   UNL d   1      33.239  18.281 -24.522  0.00  0.00     0.006 A 
ATOM     12  C   UNL d   1      32.039  18.791 -25.076  0.00  0.00     0.000 A 
ATOM     13  C   UNL d   1      32.826  18.857 -24.961  0.00  0.00     0.001 A 
ENDROOT
BRANCH   6  14
ATOM     14  S   UNL d   1      30.312  16.929 -24.264  0.00  0.00    -0.083 SA
BRANCH  14  15
ATOM     15  C   UNL d   1      29.582  16.603 -24.171  0.00  0.00     0.161 C 
BRANCH  15  16
ATOM     16  C   UNL d   1      28.926  17.033 -24.408  0.00  0.00     0.197 C 
ATOM     17  O   UNL d   1      28.543  16.823 -25.097  0.00  0.00    -0.647 OA
ATOM     18  O   UNL d   1      28.658  17.652 -23.977  0.00  0.00    -0.647 OA
ENDBRANCH  15  16
ENDBRANCH  14  15
ENDBRANCH   6  14
TORSDOF 3
ENDMDL
MODEL 3
REMARK VINA RESULT:      -1.8      2.250      3.595
REMARK  3 active torsions:
REMARK  status: ('A' for Active; 'I' for Inactive)
REMARK    1  A    between atoms: S_9  and  C_6 
REMARK    2  A    between atoms: C_13  and  S_9 
REMARK    3  A    between atoms: C_11  and  C_13 
ROOT
ATOM      1  C   UNL d   1      31.897  17.730 -24.572  0.00  0.00     0.114 A 
ATOM      2  C   UNL d   1      31.398  17.166 -24.263  0.00  0.00     0.048 A 
ATOM      3  S   UNL d   1      32.669  17.535 -24.391  0.00  0.00    -0.068 SA
ATOM      4  C   UNL d   1      31.867  16.602 -23.879  0.00  0.00     0.010 A 
ATOM      5  C   UNL d   1      32.641  16.807 -23.945  0.00  0.00     0.031 A 
ATOM      6  C   UNL d   1      30.577  17.237 -24.371  0.00  0.00     0.111 A 
ATOM      7  N   UNL d   1      31.585  18.371 -24.991  0.00  0.00    -0.217 NA
ATOM      8  N   UNL d   1      30.260  17.870 -24.786  0.00  0.00    -0.218 NA
ATOM      9  C   UNL d   1      30.767  18.439 -25.097  0.00  0.00     0.200 A 
ATOM     10  C   UNL d   1      31.653  15.916 -23.473  0.00  0.00     0.001 A 
ATOM     11  C   UNL d   1      33.241  16.346 -23.614  0.00  0.00     0.006 A 
ATOM     12  C   UNL d   1      32.248  15.453 -23.140  0.00  0.00     0.000 A 
ATOM     13  C   UNL d   1      33.019  15.654 -23.205  0.00  0.00     0.001 A 
ENDROOT
BRANCH   6  14
ATOM     14  S   UNL d   1      30.052  16.657 -24.054  0.00  0.00    -0.083 SA
BRANCH  14  15
ATOM     15  C   UNL d   1      29.267  16.705 -24.222  0.00  0.00     0.161 C 
BRANCH  15  16
ATOM     16  C   UNL d   1      28.799  16.042 -24.106  0.00  0.00     0.197 C 
ATOM     17  O   UNL d   1      28.553  15.614 -24.756  0.00  0.00    -0.647 OA
ATOM     18  O   UNL d   1      28.581  15.810 -23.372  0.00  0.00    -0.647 OA
ENDBRANCH  15  16
ENDBRANCH  14  15
ENDBRANCH   6  14
TORSDOF 3
ENDMDL
MODEL 4
REMARK VINA RESULT:      -1.6      4.444      5.524
REMARK  3 active torsions:
REMARK  status: ('A' for Active; 'I' for Inactive)
REMARK    1  A    between atoms: S_9  and  C_6 
REMARK    2  A    between atoms: C_13  and  S_9 
REMARK    3  A    between atoms: C_11  and  C_13 
ROOT
ATOM      1  C   UNL d   1      33.109  21.136 -20.722  0.00  0.00     0.114 A 
ATOM      2  C   UNL d   1      33.123  21.323 -21.515  0.00  0.00     0.048 A 
ATOM      3  S   UNL d   1      33.140  20.324 -20.637  0.00  0.00    -0.068 SA
ATOM      4  C   UNL d   1      33.163  20.612 -21.937  0.00  0.00     0.010 A 
ATOM      5  C   UNL d   1      33.174  19.995 -21.424  0.00  0.00     0.031 A 
ATOM      6  C   UNL d   1      33.097  22.119 -21.751  0.00  0.00     0.111 A 
ATOM      7  N   UNL d   1      33.069  21.738 -20.157  0.00  0.00    -0.217 NA
ATOM      8  N   UNL d   1      33.057  22.723 -21.197  0.00  0.00    -0.218 NA
ATOM      9  C   UNL d   1      33.044  22.530 -20.396  0.00  0.00     0.200 A 
ATOM     10  C   UNL d   1      33.190  20.476 -22.751  0.00  0.00     0.001 A 
ATOM     11  C   UNL d   1      33.213  19.213 -21.689  0.00  0.00     0.006 A 
ATOM     12  C   UNL d   1      33.229  19.698 -23.020  0.00  0.00     0.000 A 
ATOM     13  C   UNL d   1      33.241  19.082 -22.511  0.00  0.00     0.001 A 
ENDROOT
BRANCH   6  14
ATOM     14  S   UNL d   1      33.110  22.323 -22.570  0.00  0.00    -0.083 SA
BRANCH  14  15
ATOM     15  C   UNL d   1      32.980  23.087 -22.787  0.00  0.00     0.161 C 
BRANCH  15  16
ATOM     16  C   UNL d   1      32.760  23.244 -23.560  0.00  0.00     0.197 C 
ATOM     17  O   UNL d   1      32.036  23.593 -23.702  0.00  0.00    -0.647 OA
ATOM     18  O   UNL d   1      33.241  23.062 -24.174  0.00  0.00    -0.647 OA
ENDBRANCH  15  16
ENDBRANCH  14  15
ENDBRANCH   6  14
TORSDOF 3
ENDMDL
MODEL 5
REMARK VINA RESULT:      -1.6      4.594      6.273
REMARK  3 active torsions:
REMARK  status: ('A' for Active; 'I' for Inactive)
REMARK    1  A    between atoms: S_9  and  C_6 
REMARK    2  A    between atoms: C_13  and  S_9 
REMARK    3  A    between atoms: C_11  and  C_13 
ROOT
ATOM      1  C   UNL d   1      32.909  22.967 -22.341  0.00  0.00     0.114 A 
ATOM      2  C   UNL d   1      32.934  22.239 -21.977  0.00  0.00     0.048 A 
ATOM      3  S   UNL d   1      32.792  23.546 -21.777  0.00  0.00    -0.068 SA
ATOM      4  C   UNL d   1      32.830  22.364 -21.165  0.00  0.00     0.010 A 
ATOM      5  C   UNL d   1      32.742  23.150 -21.023  0.00  0.00     0.031 A 
ATOM      6  C   UNL d   1      33.048  21.553 -22.432  0.00  0.00     0.111 A 
ATOM      7  N   UNL d   1      32.998  23.020 -23.162  0.00  0.00    -0.217 NA
ATOM      8  N   UNL d   1      33.137  21.598 -23.247  0.00  0.00    -0.218 NA
ATOM      9  C   UNL d   1      33.112  22.336 -23.612  0.00  0.00     0.200 A 
ATOM     10  C   UNL d   1      32.808  21.824 -20.540  0.00  0.00     0.001 A 
ATOM     11  C   UNL d   1      32.629  23.441 -20.258  0.00  0.00     0.006 A 
ATOM     12  C   UNL d   1      32.694  22.110 -19.776  0.00  0.00     0.000 A 
ATOM     13  C   UNL d   1      32.607  22.891 -19.632  0.00  0.00     0.001 A 
ENDROOT
BRANCH   6  14
ATOM     14  S   UNL d   1      33.075  20.795 -22.063  0.00  0.00    -0.083 SA
BRANCH  14  15
ATOM     15  C   UNL d   1      33.225  20.144 -22.513  0.00  0.00     0.161 C 
BRANCH  15  16
ATOM     16  C   UNL d   1      32.988  19.411 -22.235  0.00  0.00     0.197 C 
ATOM     17  O   UNL d   1      32.489  18.957 -22.693  0.00  0.00    -0.647 OA
ATOM     18  O   UNL d   1      33.237  19.135 -21.526  0.00  0.00    -0.647 OA
ENDBRANCH  15  16
ENDBRANCH  14  15
ENDBRANCH   6  14
TORSDOF 3
ENDMDL
MODEL 6
REMARK VINA RESULT:      -1.5      2.842      4.711
REMARK  3 active torsions:
REMARK  status: ('A' for Active; 'I' for Inactive)
REMARK    1  A    between atoms: S_9  and  C_6 
REMARK    2  A    between atoms: C_13  and  S_9 
REMARK    3  A    between atoms: C_11  and  C_13 
ROOT
ATOM      1  C   UNL d   1      33.204  21.068 -23.597  0.00  0.00     0.114 A 
ATOM      2  C   UNL d   1      33.134  20.333 -23.255  0.00  0.00     0.048 A 
ATOM      3  S   UNL d   1      33.228  21.636 -23.010  0.00  0.00    -0.068 SA
ATOM      4  C   UNL d   1      33.112  20.441 -22.435  0.00  0.00     0.010 A 
ATOM      5  C   UNL d   1      33.167  21.224 -22.265  0.00  0.00     0.031 A 
ATOM      6  C   UNL d   1      33.098  19.656 -23.736  0.00  0.00     0.111 A 
ATOM      7  N   UNL d   1      33.240  21.139 -24.420  0.00  0.00    -0.217 NA
ATOM      8  N   UNL d   1      33.133  19.717 -24.553  0.00  0.00    -0.218 NA
ATOM      9  C   UNL d   1      33.205  20.463 -24.896  0.00  0.00     0.200 A 
ATOM     10  C   UNL d   1      33.046  19.888 -21.824  0.00  0.00     0.001 A 
ATOM     11  C   UNL d   1      33.160  21.500 -21.486  0.00  0.00     0.006 A 
ATOM     12  C   UNL d   1      33.038  20.159 -21.046  0.00  0.00     0.000 A 
ATOM     13  C   UNL d   1      33.093  20.937 -20.875  0.00  0.00     0.001 A 
ENDROOT
BRANCH   6  14
ATOM     14  S   UNL d   1      33.025  18.889 -23.390  0.00  0.00    -0.083 SA
BRANCH  14  15
ATOM     15  C   UNL d   1      32.804  18.269 -23.853  0.00  0.00     0.161 C 
BRANCH  15  16
ATOM     16  C   UNL d   1      32.648  17.548 -23.497  0.00  0.00     0.197 C 
ATOM     17  O   UNL d   1      31.874  17.346 -23.336  0.00  0.00    -0.647 OA
ATOM     18  O   UNL d   1      33.239  17.043 -23.306  0.00  0.00    -0.647 OA
ENDBRANCH  15  16
ENDBRANCH  14  15
ENDBRANCH   6  14
TORSDOF 3
ENDMDL
MODEL 7
REMARK VINA RESULT:      -1.4      3.893      5.664
REMARK  3 active torsions:
REMARK  status: ('A' for Active; 'I' for Inactive)
REMARK    1  A    between atoms: S_9  and  C_6 
REMARK    2  A    between atoms: C_13  and  S_9 
REMARK    3  A    between atoms: C_11  and  C_13 
ROOT
ATOM      1  C   UNL d   1      33.184  21.920 -21.175  0.00  0.00     0.114 A 
ATOM      2  C   UNL d   1      33.186  21.579 -21.915  0.00  0.00     0.048 A 
ATOM      3  S   UNL d   1      33.199  22.733 -21.253  0.00  0.00    -0.068 SA
ATOM      4  C   UNL d   1      33.202  22.193 -22.471  0.00  0.00     0.010 A 
ATOM      5  C   UNL d   1      33.210  22.901 -22.090  0.00  0.00     0.031 A 
ATOM      6  C   UNL d   1      33.172  20.752 -21.989  0.00  0.00     0.111 A 
ATOM      7  N   UNL d   1      33.169  21.440 -20.501  0.00  0.00    -0.217 NA
ATOM      8  N   UNL d   1      33.157  20.269 -21.326  0.00  0.00    -0.218 NA
ATOM      9  C   UNL d   1      33.155  20.616 -20.579  0.00  0.00     0.200 A 
ATOM     10  C   UNL d   1      33.210  22.167 -23.296  0.00  0.00     0.001 A 
ATOM     11  C   UNL d   1      33.227  23.615 -22.504  0.00  0.00     0.006 A 
ATOM     12  C   UNL d   1      33.227  22.877 -23.713  0.00  0.00     0.000 A 
ATOM     13  C   UNL d   1      33.235  23.582 -23.337  0.00  0.00     0.001 A 
ENDROOT
BRANCH   6  14
ATOM     14  S   UNL d   1      33.174  20.391 -22.752  0.00  0.00    -0.083 SA
BRANCH  14  15
ATOM     15  C   UNL d   1      33.241  19.591 -22.808  0.00  0.00     0.161 C 
BRANCH  15  16
ATOM     16  C   UNL d   1      32.878  19.209 -23.435  0.00  0.00     0.197 C 
ATOM     17  O   UNL d   1      33.217  19.258 -24.176  0.00  0.00    -0.647 OA
ATOM     18  O   UNL d   1      32.202  18.792 -23.334  0.00  0.00    -0.647 OA
ENDBRANCH  15  16
ENDBRANCH  14  15
ENDBRANCH   6  14
TORSDOF 3
ENDMDL
MODEL 8
REMARK VINA RESULT:      -1.4      3.605      4.438
REMARK  3 active torsions:
REMARK  status: ('A' for Active; 'I' for Inactive)
REMARK    1  A    between atoms: S_9  and  C_6 
REMARK    2  A    between atoms: C_13  and  S_9 
REMARK    3  A    between atoms: C_11  and  C_13 
ROOT
ATOM      1  C   UNL d   1      33.221  19.303 -22.376  0.00  0.00     0.114 A 
ATOM      2  C   UNL d   1      33.227  20.060 -22.678  0.00  0.00     0.048 A 
ATOM      3  S   UNL d   1      33.217  18.767 -22.992  0.00  0.00    -0.068 SA
ATOM      4  C   UNL d   1      33.228  19.997 -23.504  0.00  0.00     0.010 A 
ATOM      5  C   UNL d   1      33.221  19.222 -23.715  0.00  0.00     0.031 A 
ATOM      6  C   UNL d   1      33.232  20.711 -22.162  0.00  0.00     0.111 A 
ATOM      7  N   UNL d   1      33.219  19.187 -21.557  0.00  0.00    -0.217 NA
ATOM      8  N   UNL d   1      33.230  20.604 -21.348  0.00  0.00    -0.218 NA
ATOM      9  C   UNL d   1      33.223  19.837 -21.046  0.00  0.00     0.200 A 
ATOM     10  C   UNL d   1      33.233  20.585 -24.084  0.00  0.00     0.001 A 
ATOM     11  C   UNL d   1      33.220  18.990 -24.508  0.00  0.00     0.006 A 
ATOM     12  C   UNL d   1      33.232  20.358 -24.876  0.00  0.00     0.000 A 
ATOM     13  C   UNL d   1      33.226  19.588 -25.088  0.00  0.00     0.001 A 
ENDROOT
BRANCH   6  14
ATOM     14  S   UNL d   1      33.239  21.498 -22.466  0.00  0.00    -0.083 SA
BRANCH  14  15
ATOM     15  C   UNL d   1      33.226  22.117 -21.953  0.00  0.00     0.161 C 
BRANCH  15  16
ATOM     16  C   UNL d   1      32.911  22.830 -22.204  0.00  0.00     0.197 C 
ATOM     17  O   UNL d   1      32.248  23.124 -21.829  0.00  0.00    -0.647 OA
ATOM     18  O   UNL d   1      33.239  23.240 -22.809  0.00  0.00    -0.647 OA
ENDBRANCH  15  16
ENDBRANCH  14  15
ENDBRANCH   6  14
TORSDOF 3
ENDMDL
MODEL 9
REMARK VINA RESULT:      -1.2      4.856      6.324
REMARK  3 active torsions:
REMARK  status: ('A' for Active; 'I' for Inactive)
REMARK    1  A    between atoms: S_9  and  C_6 
REMARK    2  A    between atoms: C_13  and  S_9 
REMARK    3  A    between atoms: C_11  and  C_13 
ROOT
ATOM      1  C   UNL d   1      33.090  21.055 -21.078  0.00  0.00     0.114 A 
ATOM      2  C   UNL d   1      33.123  21.785 -21.439  0.00  0.00     0.048 A 
ATOM      3  S   UNL d   1      33.106  21.155 -20.267  0.00  0.00    -0.068 SA
ATOM      4  C   UNL d   1      33.160  22.356 -20.840  0.00  0.00     0.010 A 
ATOM      5  C   UNL d   1      33.151  21.995 -20.123  0.00  0.00     0.031 A 
ATOM      6  C   UNL d   1      33.115  21.836 -22.268  0.00  0.00     0.111 A 
ATOM      7  N   UNL d   1      33.049  20.369 -21.539  0.00  0.00    -0.217 NA
ATOM      8  N   UNL d   1      33.074  21.161 -22.732  0.00  0.00    -0.218 NA
ATOM      9  C   UNL d   1      33.041  20.425 -22.365  0.00  0.00     0.200 A 
ATOM     10  C   UNL d   1      33.202  23.179 -20.890  0.00  0.00     0.001 A 
ATOM     11  C   UNL d   1      33.182  22.428 -19.420  0.00  0.00     0.006 A 
ATOM     12  C   UNL d   1      33.234  23.615 -20.191  0.00  0.00     0.000 A 
ATOM     13  C   UNL d   1      33.224  23.258 -19.476  0.00  0.00     0.001 A 
ENDROOT
BRANCH   6  14
ATOM     14  S   UNL d   1      33.149  22.588 -22.650  0.00  0.00    -0.083 SA
BRANCH  14  15
ATOM     15  C   UNL d   1      33.106  22.623 -23.453  0.00  0.00     0.161 C 
BRANCH  15  16
ATOM     16  C   UNL d   1      32.838  23.314 -23.803  0.00  0.00     0.197 C 
ATOM     17  O   UNL d   1      33.241  23.613 -24.446  0.00  0.00    -0.647 OA
ATOM     18  O   UNL d   1      32.192  23.696 -23.525  0.00  0.00    -0.647 OA
ENDBRANCH  15  16
ENDBRANCH  14  15
ENDBRANCH   6  14
TORSDOF 3
ENDMDL
