MODEL 1
REMARK VINA RESULT:      80.3      0.000      0.000
REMARK  5 active torsions:
REMARK  status: ('A' for Active; 'I' for Inactive)
REMARK    1  A    between atoms: N_7  and  C_1 
REMARK    2  A    between atoms: C_14  and  N_4 
REMARK    3  A    between atoms: C_6  and  N_7 
REMARK    4  A    between atoms: C_13  and  N_8 
REMARK    5  A    between atoms: C_17  and  C_13 
ROOT
ATOM      1  C   UNL d   1      59.603  49.543  50.601  0.00  0.00     0.159 A 
ATOM      2  C   UNL d   1      58.999  49.522  50.043  0.00  0.00     0.298 A 
ATOM      3  N   UNL d   1      58.446  49.632  51.238  0.00  0.00    -0.238 N 
ATOM      4  N   UNL d   1      58.282  49.578  50.440  0.00  0.00    -0.209 N 
ATOM      5  C   UNL d   1      59.259  49.611  51.342  0.00  0.00     0.104 A 
ATOM      6  O   UNL d   1      59.097  49.457  49.227  0.00  0.00    -0.263 OA
ATOM      7  C   UNL d   1      57.888  49.698  51.843  0.00  0.00     0.120 C 
ATOM      8  C   UNL d   1      59.658  49.651  52.058  0.00  0.00     0.022 C 
ENDROOT
BRANCH   1   9
ATOM      9  N   UNL d   1      60.407  49.502  50.440  0.00  0.00    -0.216 NA
BRANCH   9  10
ATOM     10  C   UNL d   1      60.901  49.049  50.920  0.00  0.00     0.180 A 
ATOM     11  N   UNL d   1      61.318  48.378  50.695  0.00  0.00    -0.285 N 
ATOM     12  C   UNL d   1      61.736  48.109  51.349  0.00  0.00     0.072 A 
ATOM     13  C   UNL d   1      62.229  47.446  51.367  0.00  0.00     0.020 C 
ATOM     14  C   UNL d   1      61.581  48.608  51.977  0.00  0.00     0.056 A 
ATOM     15  S   UNL d   1      61.063  49.195  51.719  0.00  0.00    -0.048 SA
BRANCH  11  16
ATOM     16  C   UNL d   1      61.319  48.035  49.951  0.00  0.00     0.082 C 
BRANCH  16  17
ATOM     17  C   UNL d   1      61.498  47.228  49.856  0.00  0.00     0.018 A 
ATOM     18  C   UNL d   1      62.130  46.812  50.196  0.00  0.00     0.002 A 
ATOM     19  C   UNL d   1      62.232  45.993  50.043  0.00  0.00     0.000 A 
ATOM     20  C   UNL d   1      61.690  45.596  49.545  0.00  0.00     0.000 A 
ATOM     21  C   UNL d   1      61.050  46.016  49.201  0.00  0.00     0.000 A 
ATOM     22  C   UNL d   1      60.952  46.831  49.356  0.00  0.00     0.002 A 
ENDBRANCH  16  17
ENDBRANCH  11  16
ENDBRANCH   9  10
ENDBRANCH   1   9
BRANCH   4  23
ATOM     23  C   UNL d   1      57.535  49.578  50.094  0.00  0.00     0.085 A 
ATOM     24  C   UNL d   1      57.458  49.707  49.289  0.00  0.00     0.019 A 
ATOM     25  C   UNL d   1      56.712  49.707  48.946  0.00  0.00     0.002 A 
ATOM     26  C   UNL d   1      56.038  49.579  49.401  0.00  0.00     0.000 A 
ATOM     27  C   UNL d   1      56.118  49.450  50.214  0.00  0.00     0.002 A 
ATOM     28  C   UNL d   1      56.866  49.449  50.561  0.00  0.00     0.019 A 
ENDBRANCH   4  23
TORSDOF 5
ENDMDL
