MODEL 1
REMARK VINA RESULT:      70.0      0.000      0.000
REMARK  3 active torsions:
REMARK  status: ('A' for Active; 'I' for Inactive)
REMARK    1  A    between atoms: N_4  and  C_1 
REMARK    2  A    between atoms: C_5  and  C_3 
REMARK       I    between atoms: C_8  and  N_4 
REMARK    3  A    between atoms: C_9  and  C_8 
ROOT
ATOM      1  C   UNL d   1      60.153  48.636  50.658  0.00  0.00     0.204 A 
ATOM      2  S   UNL d   1      59.436  48.546  50.458  0.00  0.00    -0.031 SA
ATOM      3  C   UNL d   1      58.963  49.237  50.768  0.00  0.00     0.119 A 
ATOM      4  N   UNL d   1      60.247  49.372  51.112  0.00  0.00    -0.123 NA
ATOM      5  N   UNL d   1      59.537  49.706  51.162  0.00  0.00    -0.143 NA
ENDROOT
BRANCH   3   6
ATOM      6  C   UNL d   1      58.193  49.354  50.678  0.00  0.00     0.081 A 
ATOM      7  C   UNL d   1      58.164  49.394  49.620  0.00  0.00     0.023 A 
ATOM      8  C   UNL d   1      57.412  49.516  49.301  0.00  0.00     0.045 A 
ATOM      9  C   UNL d   1      56.751  49.595  49.861  0.00  0.00    -0.022 A 
ATOM     10  C   UNL d   1      56.289  49.668  49.705  0.00  0.00    -0.022 A 
ATOM     11  C   UNL d   1      56.749  49.568  50.660  0.00  0.00    -0.008 A 
ATOM     12  C   UNL d   1      57.595  49.423  51.238  0.00  0.00    -0.017 A 
ATOM     13  C   UNL d   1      56.132  49.642  51.153  0.00  0.00    -0.001 A 
ATOM     14  C   UNL d   1      56.578  49.599  50.473  0.00  0.00    -0.008 A 
ATOM     15  C   UNL d   1      57.330  49.477  50.791  0.00  0.00    -0.017 A 
ENDBRANCH   3   6
BRANCH   1  16
ATOM     16  N   UNL d   1      60.829  48.189  50.534  0.00  0.00    -0.248 N 
ATOM     17  C   UNL d   1      60.837  47.469  50.134  0.00  0.00     0.289 C 
ATOM     18  O   UNL d   1      60.114  47.168  49.833  0.00  0.00    -0.264 OA
ATOM     19  C   UNL d   1      61.515  48.460  50.812  0.00  0.00     0.104 C 
BRANCH  17  20
ATOM     20  C   UNL d   1      61.540  47.043  50.026  0.00  0.00     0.156 A 
ATOM     21  O   UNL d   1      62.336  47.273  50.011  0.00  0.00    -0.300 OA
ATOM     22  C   UNL d   1      62.796  46.564  49.876  0.00  0.00     0.123 A 
ATOM     23  C   UNL d   1      62.307  45.946  49.814  0.00  0.00     0.029 A 
ATOM     24  C   UNL d   1      61.537  46.215  49.903  0.00  0.00     0.032 A 
ENDBRANCH  17  20
ENDBRANCH   1  16
TORSDOF 3
ENDMDL
