MODEL 1
REMARK VINA RESULT:      -3.6      0.000      0.000
REMARK  3 active torsions:
REMARK  status: ('A' for Active; 'I' for Inactive)
REMARK    1  A    between atoms: N_3  and  C_1 
REMARK       I    between atoms: C_5  and  N_3 
REMARK    2  A    between atoms: C_9  and  C_5 
REMARK    3  A    between atoms: O_22  and  C_20 
ROOT
ATOM      1  N   UNL d   1      33.233  20.997 -21.876  0.00  0.00    -0.183 NA
ATOM      2  C   UNL d   1      32.637  21.174 -21.334  0.00  0.00     0.281 C 
ATOM      3  O   UNL d   1      31.960  20.672 -21.280  0.00  0.00    -0.265 OA
ENDROOT
BRANCH   1   4
ATOM      4  C   UNL d   1      33.177  20.336 -22.366  0.00  0.00     0.197 A 
ATOM      5  N   UNL d   1      33.073  20.363 -23.189  0.00  0.00    -0.221 NA
ATOM      6  C   UNL d   1      33.047  19.576 -23.455  0.00  0.00     0.090 A 
ATOM      7  C   UNL d   1      32.954  19.261 -24.212  0.00  0.00     0.022 A 
ATOM      8  C   UNL d   1      33.134  19.083 -22.799  0.00  0.00     0.052 A 
ATOM      9  C   UNL d   1      32.950  18.435 -24.303  0.00  0.00     0.026 A 
ATOM     10  C   UNL d   1      33.036  17.947 -23.654  0.00  0.00     0.095 A 
ATOM     11  C   UNL d   1      33.130  18.257 -22.889  0.00  0.00     0.032 A 
ATOM     12  S   UNL d   1      33.213  19.559 -22.140  0.00  0.00    -0.047 SA
BRANCH  10  13
ATOM     13  O   UNL d   1      33.033  17.095 -23.740  0.00  0.00    -0.328 OA
ATOM     14  C   UNL d   1      32.454  16.738 -24.233  0.00  0.00     0.181 C 
ENDBRANCH  10  13
ENDBRANCH   1   4
BRANCH   2  15
ATOM     15  C   UNL d   1      32.692  21.835 -20.844  0.00  0.00     0.059 A 
ATOM     16  C   UNL d   1      32.934  21.743 -20.064  0.00  0.00     0.013 A 
ATOM     17  C   UNL d   1      32.994  22.391 -19.568  0.00  0.00     0.049 A 
ATOM     18  S   UNL d   1      33.218  22.466 -18.771  0.00  0.00    -0.064 SA
ATOM     19  C   UNL d   1      32.806  23.157 -19.858  0.00  0.00     0.088 A 
ATOM     20  C   UNL d   1      33.166  23.272 -18.581  0.00  0.00     0.135 A 
ATOM     21  N   UNL d   1      32.917  23.702 -19.234  0.00  0.00    -0.236 NA
ATOM     22  C   UNL d   1      32.561  23.263 -20.644  0.00  0.00     0.020 A 
ATOM     23  C   UNL d   1      32.505  22.601 -21.133  0.00  0.00     0.006 A 
ENDBRANCH   2  15
TORSDOF 3
ENDMDL
MODEL 2
REMARK VINA RESULT:      -2.9      1.768      5.634
REMARK  3 active torsions:
REMARK  status: ('A' for Active; 'I' for Inactive)
REMARK    1  A    between atoms: N_3  and  C_1 
REMARK       I    between atoms: C_5  and  N_3 
REMARK    2  A    between atoms: C_9  and  C_5 
REMARK    3  A    between atoms: O_22  and  C_20 
ROOT
ATOM      1  N   UNL d   1      33.025  18.765 -22.615  0.00  0.00    -0.183 NA
ATOM      2  C   UNL d   1      32.579  18.554 -23.277  0.00  0.00     0.281 C 
ATOM      3  O   UNL d   1      32.146  19.147 -23.693  0.00  0.00    -0.265 OA
ENDROOT
BRANCH   1   4
ATOM      4  C   UNL d   1      33.052  19.547 -22.354  0.00  0.00     0.197 A 
ATOM      5  N   UNL d   1      33.167  20.206 -22.845  0.00  0.00    -0.221 NA
ATOM      6  C   UNL d   1      33.156  20.877 -22.355  0.00  0.00     0.090 A 
ATOM      7  C   UNL d   1      33.241  21.679 -22.529  0.00  0.00     0.022 A 
ATOM      8  C   UNL d   1      33.035  20.623 -21.579  0.00  0.00     0.052 A 
ATOM      9  C   UNL d   1      33.203  22.229 -21.907  0.00  0.00     0.026 A 
ATOM     10  C   UNL d   1      33.084  21.977 -21.139  0.00  0.00     0.095 A 
ATOM     11  C   UNL d   1      32.997  21.172 -20.957  0.00  0.00     0.032 A 
ATOM     12  S   UNL d   1      32.973  19.808 -21.592  0.00  0.00    -0.047 SA
BRANCH  10  13
ATOM     13  O   UNL d   1      33.044  22.538 -20.493  0.00  0.00    -0.328 OA
ATOM     14  C   UNL d   1      33.198  23.349 -20.649  0.00  0.00     0.181 C 
ENDBRANCH  10  13
ENDBRANCH   1   4
BRANCH   2  15
ATOM     15  C   UNL d   1      32.552  17.772 -23.537  0.00  0.00     0.059 A 
ATOM     16  C   UNL d   1      31.846  17.465 -23.824  0.00  0.00     0.013 A 
ATOM     17  C   UNL d   1      31.805  16.690 -24.085  0.00  0.00     0.049 A 
ATOM     18  S   UNL d   1      31.181  16.237 -24.396  0.00  0.00    -0.064 SA
ATOM     19  C   UNL d   1      32.491  16.205 -24.061  0.00  0.00     0.088 A 
ATOM     20  C   UNL d   1      31.489  15.484 -24.560  0.00  0.00     0.135 A 
ATOM     21  N   UNL d   1      32.285  15.453 -24.359  0.00  0.00    -0.236 NA
ATOM     22  C   UNL d   1      33.210  16.505 -23.774  0.00  0.00     0.020 A 
ATOM     23  C   UNL d   1      33.237  17.287 -23.514  0.00  0.00     0.006 A 
ENDBRANCH   2  15
TORSDOF 3
ENDMDL
MODEL 3
REMARK VINA RESULT:      -2.5      1.207      1.815
REMARK  3 active torsions:
REMARK  status: ('A' for Active; 'I' for Inactive)
REMARK    1  A    between atoms: N_3  and  C_1 
REMARK       I    between atoms: C_5  and  N_3 
REMARK    2  A    between atoms: C_9  and  C_5 
REMARK    3  A    between atoms: O_22  and  C_20 
ROOT
ATOM      1  N   UNL d   1      32.668  19.727 -22.891  0.00  0.00    -0.183 NA
ATOM      2  C   UNL d   1      32.952  19.870 -22.130  0.00  0.00     0.281 C 
ATOM      3  O   UNL d   1      33.165  19.220 -21.636  0.00  0.00    -0.265 OA
ENDROOT
BRANCH   1   4
ATOM      4  C   UNL d   1      32.589  18.957 -23.176  0.00  0.00     0.197 A 
ATOM      5  N   UNL d   1      33.218  18.483 -23.440  0.00  0.00    -0.221 NA
ATOM      6  C   UNL d   1      32.890  17.756 -23.675  0.00  0.00     0.090 A 
ATOM      7  C   UNL d   1      33.241  17.076 -23.982  0.00  0.00     0.022 A 
ATOM      8  C   UNL d   1      32.075  17.795 -23.555  0.00  0.00     0.052 A 
ATOM      9  C   UNL d   1      32.757  16.426 -24.168  0.00  0.00     0.026 A 
ATOM     10  C   UNL d   1      31.950  16.464 -24.048  0.00  0.00     0.095 A 
ATOM     11  C   UNL d   1      31.590  17.146 -23.741  0.00  0.00     0.032 A 
ATOM     12  S   UNL d   1      31.903  18.533 -23.250  0.00  0.00    -0.047 SA
BRANCH  10  13
ATOM     13  O   UNL d   1      31.446  15.799 -24.238  0.00  0.00    -0.328 OA
ATOM     14  C   UNL d   1      31.333  15.590 -25.044  0.00  0.00     0.181 C 
ENDBRANCH  10  13
ENDBRANCH   1   4
BRANCH   2  15
ATOM     15  C   UNL d   1      33.030  20.640 -21.845  0.00  0.00     0.059 A 
ATOM     16  C   UNL d   1      32.978  20.781 -21.037  0.00  0.00     0.013 A 
ATOM     17  C   UNL d   1      33.054  21.540 -20.741  0.00  0.00     0.049 A 
ATOM     18  S   UNL d   1      33.027  21.844 -19.968  0.00  0.00    -0.064 SA
ATOM     19  C   UNL d   1      33.186  22.182 -21.268  0.00  0.00     0.088 A 
ATOM     20  C   UNL d   1      33.142  22.664 -20.027  0.00  0.00     0.135 A 
ATOM     21  N   UNL d   1      33.240  22.881 -20.814  0.00  0.00    -0.236 NA
ATOM     22  C   UNL d   1      33.241  22.052 -22.086  0.00  0.00     0.020 A 
ATOM     23  C   UNL d   1      33.162  21.281 -22.371  0.00  0.00     0.006 A 
ENDBRANCH   2  15
TORSDOF 3
ENDMDL
