MODEL 1
REMARK VINA RESULT:      53.2      0.000      0.000
REMARK  4 active torsions:
REMARK  status: ('A' for Active; 'I' for Inactive)
REMARK    1  A    between atoms: C_3  and  C_1 
REMARK    2  A    between atoms: C_8  and  C_3 
REMARK    3  A    between atoms: C_9  and  C_3 
REMARK    4  A    between atoms: N_5  and  C_9 
ROOT
ATOM      1  C   UNL d   1     -56.774 -99.329 -44.240  0.00  0.00     0.023 A 
ATOM      2  C   UNL d   1     -56.747 -99.015 -43.441  0.00  0.00     0.082 A 
ATOM      3  N   UNL d   1     -57.493 -98.760 -43.247  0.00  0.00    -0.246 NA
ATOM      4  C   UNL d   1     -57.541 -99.251 -44.500  0.00  0.00     0.019 A 
ATOM      5  C   UNL d   1     -57.992 -98.901 -43.895  0.00  0.00     0.081 A 
ATOM      6  C   UNL d   1     -56.458 -98.804 -42.744  0.00  0.00     0.021 C 
ATOM      7  C   UNL d   1     -57.896 -99.454 -45.217  0.00  0.00     0.002 A 
ATOM      8  C   UNL d   1     -58.800 -98.758 -44.017  0.00  0.00     0.019 A 
ATOM      9  C   UNL d   1     -58.698 -99.305 -45.320  0.00  0.00     0.000 A 
ATOM     10  C   UNL d   1     -59.153 -98.960 -44.731  0.00  0.00     0.002 A 
ENDROOT
BRANCH   1  11
ATOM     11  C   UNL d   1     -56.129 -99.645 -44.646  0.00  0.00     0.048 C 
BRANCH  11  12
ATOM     12  C   UNL d   1     -55.756-100.324 -44.405  0.00  0.00     0.102 A 
ATOM     13  O   UNL d   1     -55.756-100.626 -43.623  0.00  0.00    -0.305 OA
ATOM     14  C   UNL d   1     -55.316-101.320 -43.612  0.00  0.00     0.123 A 
ATOM     15  C   UNL d   1     -55.035-101.454 -44.411  0.00  0.00     0.029 A 
ATOM     16  C   UNL d   1     -55.312-100.839 -44.874  0.00  0.00     0.027 A 
ENDBRANCH  11  12
BRANCH  11  17
ATOM     17  C   UNL d   1     -55.859 -99.245 -45.329  0.00  0.00     0.150 C 
BRANCH  17  18
ATOM     18  N   UNL d   1     -55.096 -98.920 -45.328  0.00  0.00    -0.112 N 
ATOM     19  O   UNL d   1     -54.711 -98.755 -46.022  0.00  0.00    -0.532 OA
ATOM     20  O   UNL d   1     -54.714 -98.759 -44.586  0.00  0.00    -0.532 OA
ENDBRANCH  17  18
ENDBRANCH  11  17
ENDBRANCH   1  11
TORSDOF 4
ENDMDL
MODEL 2
REMARK VINA RESULT:      54.2      1.352      3.355
REMARK  4 active torsions:
REMARK  status: ('A' for Active; 'I' for Inactive)
REMARK    1  A    between atoms: C_3  and  C_1 
REMARK    2  A    between atoms: C_8  and  C_3 
REMARK    3  A    between atoms: C_9  and  C_3 
REMARK    4  A    between atoms: N_5  and  C_9 
ROOT
ATOM      1  C   UNL d   1     -55.138-100.755 -44.116  0.00  0.00     0.023 A 
ATOM      2  C   UNL d   1     -54.918-101.368 -44.675  0.00  0.00     0.082 A 
ATOM      3  N   UNL d   1     -54.730-102.036 -44.253  0.00  0.00    -0.246 NA
ATOM      4  C   UNL d   1     -55.074-101.077 -43.372  0.00  0.00     0.019 A 
ATOM      5  C   UNL d   1     -54.823-101.867 -43.446  0.00  0.00     0.081 A 
ATOM      6  C   UNL d   1     -54.774-101.721 -45.360  0.00  0.00     0.021 C 
ATOM      7  C   UNL d   1     -55.212-100.754 -42.625  0.00  0.00     0.002 A 
ATOM      8  C   UNL d   1     -54.713-102.328 -42.764  0.00  0.00     0.019 A 
ATOM      9  C   UNL d   1     -55.097-101.226 -41.961  0.00  0.00     0.000 A 
ATOM     10  C   UNL d   1     -54.850-102.005 -42.021  0.00  0.00     0.002 A 
ENDROOT
BRANCH   1  11
ATOM     11  C   UNL d   1     -55.367 -99.989 -44.320  0.00  0.00     0.048 C 
BRANCH  11  12
ATOM     12  C   UNL d   1     -56.109 -99.703 -44.163  0.00  0.00     0.102 A 
ATOM     13  O   UNL d   1     -56.796-100.170 -44.049  0.00  0.00    -0.305 OA
ATOM     14  C   UNL d   1     -57.431 -99.669 -43.903  0.00  0.00     0.123 A 
ATOM     15  C   UNL d   1     -57.131 -98.867 -43.926  0.00  0.00     0.029 A 
ATOM     16  C   UNL d   1     -56.329 -98.910 -44.085  0.00  0.00     0.027 A 
ENDBRANCH  11  12
BRANCH  11  17
ATOM     17  C   UNL d   1     -54.807 -99.499 -44.702  0.00  0.00     0.150 C 
BRANCH  17  18
ATOM     18  N   UNL d   1     -54.748 -99.525 -45.529  0.00  0.00    -0.112 N 
ATOM     19  O   UNL d   1     -54.720-100.232 -45.924  0.00  0.00    -0.532 OA
ATOM     20  O   UNL d   1     -54.715 -98.796 -45.966  0.00  0.00    -0.532 OA
ENDBRANCH  17  18
ENDBRANCH  11  17
ENDBRANCH   1  11
TORSDOF 4
ENDMDL
