MODEL 1
REMARK VINA RESULT:       8.8      0.000      0.000
REMARK  4 active torsions:
REMARK  status: ('A' for Active; 'I' for Inactive)
REMARK    1  A    between atoms: N_2  and  S_1 
REMARK    2  A    between atoms: N_3  and  S_1 
REMARK    3  A    between atoms: C_8  and  N_3 
REMARK    4  A    between atoms: C_6  and  C_8 
ROOT
ATOM      1  S   UNL d   1      46.277 -17.887  43.938  0.00  0.00     0.351 S 
ATOM      2  O   UNL d   1      46.289 -17.542  43.187  0.00  0.00    -0.180 OA
ATOM      3  O   UNL d   1      46.266 -18.229  44.685  0.00  0.00    -0.180 OA
ENDROOT
BRANCH   1   4
ATOM      4  N   UNL d   1      46.317 -18.635  43.590  0.00  0.00    -0.211 N 
ATOM      5  C   UNL d   1      46.575 -19.274  44.044  0.00  0.00     0.120 C 
ATOM      6  C   UNL d   1      46.615 -20.018  43.697  0.00  0.00     0.142 C 
ATOM      7  O   UNL d   1      46.506 -20.105  42.883  0.00  0.00    -0.300 OA
ATOM      8  C   UNL d   1      46.358 -19.445  42.418  0.00  0.00     0.142 C 
ATOM      9  C   UNL d   1      46.319 -18.697  42.765  0.00  0.00     0.120 C 
ENDBRANCH   1   4
BRANCH   1  10
ATOM     10  N   UNL d   1      46.237 -17.173  44.342  0.00  0.00    -0.144 NA
BRANCH  10  11
ATOM     11  C   UNL d   1      45.679 -16.592  44.125  0.00  0.00     0.121 C 
BRANCH  11  12
ATOM     12  C   UNL d   1      45.595 -15.892  44.579  0.00  0.00     0.185 C 
ATOM     13  O   UNL d   1      44.810 -15.540  44.684  0.00  0.00    -0.321 OA
ATOM     14  C   UNL d   1      44.926 -14.764  44.934  0.00  0.00     0.117 C 
ATOM     15  C   UNL d   1      45.700 -14.543  44.752  0.00  0.00     0.025 C 
ATOM     16  C   UNL d   1      46.067 -15.188  44.386  0.00  0.00     0.012 C 
ENDBRANCH  11  12
ENDBRANCH  10  11
ENDBRANCH   1  10
TORSDOF 4
ENDMDL
MODEL 2
REMARK VINA RESULT:      10.4      1.203      4.200
REMARK  4 active torsions:
REMARK  status: ('A' for Active; 'I' for Inactive)
REMARK    1  A    between atoms: N_2  and  S_1 
REMARK    2  A    between atoms: N_3  and  S_1 
REMARK    3  A    between atoms: C_8  and  N_3 
REMARK    4  A    between atoms: C_6  and  C_8 
ROOT
ATOM      1  S   UNL d   1      45.844 -15.813  44.489  0.00  0.00     0.351 S 
ATOM      2  O   UNL d   1      45.240 -16.130  44.955  0.00  0.00    -0.180 OA
ATOM      3  O   UNL d   1      46.445 -15.498  44.026  0.00  0.00    -0.180 OA
ENDROOT
BRANCH   1   4
ATOM      4  N   UNL d   1      45.481 -15.072  44.530  0.00  0.00    -0.211 N 
ATOM      5  C   UNL d   1      45.934 -14.396  44.397  0.00  0.00     0.120 C 
ATOM      6  C   UNL d   1      45.571 -13.659  44.438  0.00  0.00     0.142 C 
ATOM      7  O   UNL d   1      44.798 -13.591  44.717  0.00  0.00    -0.300 OA
ATOM      8  C   UNL d   1      44.388 -14.261  44.955  0.00  0.00     0.142 C 
ATOM      9  C   UNL d   1      44.751 -15.001  44.914  0.00  0.00     0.120 C 
ENDBRANCH   1   4
BRANCH   1  10
ATOM     10  N   UNL d   1      46.252 -16.521  44.412  0.00  0.00    -0.144 NA
BRANCH  10  11
ATOM     11  C   UNL d   1      45.870 -17.203  44.121  0.00  0.00     0.121 C 
BRANCH  11  12
ATOM     12  C   UNL d   1      46.315 -17.873  43.884  0.00  0.00     0.185 C 
ATOM     13  O   UNL d   1      46.224 -18.186  43.081  0.00  0.00    -0.321 OA
ATOM     14  C   UNL d   1      46.530 -18.951  43.085  0.00  0.00     0.117 C 
ATOM     15  C   UNL d   1      46.569 -19.212  43.868  0.00  0.00     0.025 C 
ATOM     16  C   UNL d   1      46.285 -18.605  44.351  0.00  0.00     0.012 C 
ENDBRANCH  11  12
ENDBRANCH  10  11
ENDBRANCH   1  10
TORSDOF 4
ENDMDL
