MODEL 1
REMARK VINA RESULT:      -6.2      0.000      0.000
REMARK  4 active torsions:
REMARK  status: ('A' for Active; 'I' for Inactive)
REMARK    1  A    between atoms: C_8  and  N_1 
REMARK    2  A    between atoms: N_7  and  C_4 
REMARK    3  A    between atoms: N_6  and  C_10 
REMARK    4  A    between atoms: C_15  and  N_7 
ROOT
ATOM      1  N   UNL d   1     -48.810  13.881  22.589  0.00  0.00    -0.241 N 
ATOM      2  C   UNL d   1     -48.709  13.201  22.158  0.00  0.00     0.269 A 
ATOM      3  C   UNL d   1     -48.069  14.169  22.783  0.00  0.00     0.285 A 
ATOM      4  C   UNL d   1     -47.524  13.640  22.454  0.00  0.00     0.142 A 
ATOM      5  C   UNL d   1     -47.909  13.069  22.085  0.00  0.00     0.085 A 
ATOM      6  O   UNL d   1     -49.303  12.702  21.831  0.00  0.00    -0.267 OA
ATOM      7  O   UNL d   1     -47.899  14.862  23.227  0.00  0.00    -0.265 OA
ENDROOT
BRANCH   4   8
ATOM      8  N   UNL d   1     -46.664  13.678  22.491  0.00  0.00    -0.241 NA
BRANCH   8   9
ATOM      9  C   UNL d   1     -46.207  13.017  22.701  0.00  0.00     0.082 A 
ATOM     10  C   UNL d   1     -45.532  12.834  22.253  0.00  0.00     0.021 A 
ATOM     11  C   UNL d   1     -45.080  12.168  22.472  0.00  0.00     0.019 A 
ATOM     12  C   UNL d   1     -45.291  11.707  23.105  0.00  0.00     0.064 A 
ATOM     13  C   UNL d   1     -45.946  11.880  23.544  0.00  0.00     0.019 A 
ATOM     14  C   UNL d   1     -46.411  12.540  23.342  0.00  0.00     0.021 A 
BRANCH  12  15
ATOM     15  N   UNL d   1     -44.825  11.049  23.303  0.00  0.00    -0.300 N 
ATOM     16  C   UNL d   1     -44.002  11.120  23.290  0.00  0.00     0.107 A 
ATOM     17  C   UNL d   1     -43.546  10.459  23.489  0.00  0.00     0.142 A 
ATOM     18  O   UNL d   1     -43.910   9.754  23.692  0.00  0.00    -0.300 OA
ATOM     19  C   UNL d   1     -44.723   9.707  23.698  0.00  0.00     0.142 A 
ATOM     20  C   UNL d   1     -45.204  10.356  23.502  0.00  0.00     0.107 A 
ENDBRANCH  12  15
ENDBRANCH   8   9
ENDBRANCH   4   8
BRANCH   1  21
ATOM     21  C   UNL d   1     -49.551  14.165  22.759  0.00  0.00     0.070 A 
ATOM     22  C   UNL d   1     -49.930  13.978  23.487  0.00  0.00     0.018 A 
ATOM     23  C   UNL d   1     -50.679  14.269  23.653  0.00  0.00     0.002 A 
ATOM     24  C   UNL d   1     -51.064  14.750  23.098  0.00  0.00     0.000 A 
ATOM     25  C   UNL d   1     -50.703  14.934  22.392  0.00  0.00     0.002 A 
ATOM     26  C   UNL d   1     -49.950  14.641  22.227  0.00  0.00     0.018 A 
ENDBRANCH   1  21
TORSDOF 4
ENDMDL
MODEL 2
REMARK VINA RESULT:      -6.0      8.445      9.943
REMARK  4 active torsions:
REMARK  status: ('A' for Active; 'I' for Inactive)
REMARK    1  A    between atoms: C_8  and  N_1 
REMARK    2  A    between atoms: N_7  and  C_4 
REMARK    3  A    between atoms: N_6  and  C_10 
REMARK    4  A    between atoms: C_15  and  N_7 
ROOT
ATOM      1  N   UNL d   1     -39.085  14.619  17.331  0.00  0.00    -0.241 N 
ATOM      2  C   UNL d   1     -39.812  14.353  17.570  0.00  0.00     0.269 A 
ATOM      3  C   UNL d   1     -38.830  15.179  17.872  0.00  0.00     0.285 A 
ATOM      4  C   UNL d   1     -39.429  15.236  18.439  0.00  0.00     0.142 A 
ATOM      5  C   UNL d   1     -40.008  14.745  18.255  0.00  0.00     0.085 A 
ATOM      6  O   UNL d   1     -40.300  13.776  17.198  0.00  0.00    -0.267 OA
ATOM      7  O   UNL d   1     -38.107  15.606  17.851  0.00  0.00    -0.265 OA
ENDROOT
BRANCH   4   8
ATOM      8  N   UNL d   1     -39.449  15.744  19.136  0.00  0.00    -0.241 NA
BRANCH   8   9
ATOM      9  C   UNL d   1     -39.325  15.441  19.899  0.00  0.00     0.082 A 
ATOM     10  C   UNL d   1     -38.566  15.488  20.232  0.00  0.00     0.021 A 
ATOM     11  C   UNL d   1     -38.450  15.181  21.000  0.00  0.00     0.019 A 
ATOM     12  C   UNL d   1     -39.062  14.845  21.413  0.00  0.00     0.064 A 
ATOM     13  C   UNL d   1     -39.802  14.797  21.094  0.00  0.00     0.019 A 
ATOM     14  C   UNL d   1     -39.938  15.096  20.331  0.00  0.00     0.021 A 
BRANCH  12  15
ATOM     15  N   UNL d   1     -38.922  14.546  22.176  0.00  0.00    -0.300 N 
ATOM     16  C   UNL d   1     -38.785  15.073  22.796  0.00  0.00     0.107 A 
ATOM     17  C   UNL d   1     -38.647  14.767  23.551  0.00  0.00     0.142 A 
ATOM     18  O   UNL d   1     -38.648  13.957  23.673  0.00  0.00    -0.300 OA
ATOM     19  C   UNL d   1     -38.784  13.455  23.046  0.00  0.00     0.142 A 
ATOM     20  C   UNL d   1     -38.926  13.737  22.278  0.00  0.00     0.107 A 
ENDBRANCH  12  15
ENDBRANCH   8   9
ENDBRANCH   4   8
BRANCH   1  21
ATOM     21  C   UNL d   1     -38.732  14.333  16.658  0.00  0.00     0.070 A 
ATOM     22  C   UNL d   1     -38.299  13.611  16.668  0.00  0.00     0.018 A 
ATOM     23  C   UNL d   1     -37.945  13.328  15.985  0.00  0.00     0.002 A 
ATOM     24  C   UNL d   1     -38.014  13.758  15.279  0.00  0.00     0.000 A 
ATOM     25  C   UNL d   1     -38.431  14.456  15.262  0.00  0.00     0.002 A 
ATOM     26  C   UNL d   1     -38.787  14.740  15.950  0.00  0.00     0.018 A 
ENDBRANCH   1  21
TORSDOF 4
ENDMDL
MODEL 3
REMARK VINA RESULT:      -6.0      1.423      1.839
REMARK  4 active torsions:
REMARK  status: ('A' for Active; 'I' for Inactive)
REMARK    1  A    between atoms: C_8  and  N_1 
REMARK    2  A    between atoms: N_7  and  C_4 
REMARK    3  A    between atoms: N_6  and  C_10 
REMARK    4  A    between atoms: C_15  and  N_7 
ROOT
ATOM      1  N   UNL d   1     -49.039  12.824  22.657  0.00  0.00    -0.241 N 
ATOM      2  C   UNL d   1     -48.893  12.032  22.566  0.00  0.00     0.269 A 
ATOM      3  C   UNL d   1     -48.421  13.148  23.085  0.00  0.00     0.285 A 
ATOM      4  C   UNL d   1     -47.903  12.523  23.246  0.00  0.00     0.142 A 
ATOM      5  C   UNL d   1     -48.188  11.865  22.936  0.00  0.00     0.085 A 
ATOM      6  O   UNL d   1     -49.366  11.461  22.167  0.00  0.00    -0.267 OA
ATOM      7  O   UNL d   1     -48.333  13.952  23.314  0.00  0.00    -0.265 OA
ENDROOT
BRANCH   4   8
ATOM      8  N   UNL d   1     -47.159  12.552  23.682  0.00  0.00    -0.241 NA
BRANCH   8   9
ATOM      9  C   UNL d   1     -46.426  12.538  23.293  0.00  0.00     0.082 A 
ATOM     10  C   UNL d   1     -45.973  11.842  23.313  0.00  0.00     0.021 A 
ATOM     11  C   UNL d   1     -45.237  11.837  22.919  0.00  0.00     0.019 A 
ATOM     12  C   UNL d   1     -44.968  12.493  22.525  0.00  0.00     0.064 A 
ATOM     13  C   UNL d   1     -45.404  13.172  22.503  0.00  0.00     0.019 A 
ATOM     14  C   UNL d   1     -46.140  13.198  22.889  0.00  0.00     0.021 A 
BRANCH  12  15
ATOM     15  N   UNL d   1     -44.232  12.463  22.141  0.00  0.00    -0.300 N 
ATOM     16  C   UNL d   1     -43.667  11.916  22.393  0.00  0.00     0.107 A 
ATOM     17  C   UNL d   1     -42.938  11.893  22.004  0.00  0.00     0.142 A 
ATOM     18  O   UNL d   1     -42.787  12.407  21.384  0.00  0.00    -0.300 OA
ATOM     19  C   UNL d   1     -43.358  12.939  21.152  0.00  0.00     0.142 A 
ATOM     20  C   UNL d   1     -44.099  12.981  21.526  0.00  0.00     0.107 A 
ENDBRANCH  12  15
ENDBRANCH   8   9
ENDBRANCH   4   8
BRANCH   1  21
ATOM     21  C   UNL d   1     -49.707  13.168  22.348  0.00  0.00     0.070 A 
ATOM     22  C   UNL d   1     -50.394  13.284  22.821  0.00  0.00     0.018 A 
ATOM     23  C   UNL d   1     -51.064  13.632  22.502  0.00  0.00     0.002 A 
ATOM     24  C   UNL d   1     -51.064  13.871  21.707  0.00  0.00     0.000 A 
ATOM     25  C   UNL d   1     -50.404  13.761  21.245  0.00  0.00     0.002 A 
ATOM     26  C   UNL d   1     -49.730  13.411  21.567  0.00  0.00     0.018 A 
ENDBRANCH   1  21
TORSDOF 4
ENDMDL
MODEL 4
REMARK VINA RESULT:      -4.9      8.276      9.807
REMARK  4 active torsions:
REMARK  status: ('A' for Active; 'I' for Inactive)
REMARK    1  A    between atoms: C_8  and  N_1 
REMARK    2  A    between atoms: N_7  and  C_4 
REMARK    3  A    between atoms: N_6  and  C_10 
REMARK    4  A    between atoms: C_15  and  N_7 
ROOT
ATOM      1  N   UNL d   1     -38.682  14.442  21.327  0.00  0.00    -0.241 N 
ATOM      2  C   UNL d   1     -38.453  14.029  20.668  0.00  0.00     0.269 A 
ATOM      3  C   UNL d   1     -38.875  15.203  21.093  0.00  0.00     0.285 A 
ATOM      4  C   UNL d   1     -38.752  15.229  20.276  0.00  0.00     0.142 A 
ATOM      5  C   UNL d   1     -38.503  14.531  20.030  0.00  0.00     0.085 A 
ATOM      6  O   UNL d   1     -38.204  13.226  20.622  0.00  0.00    -0.267 OA
ATOM      7  O   UNL d   1     -39.142  15.829  21.587  0.00  0.00    -0.265 OA
ENDROOT
BRANCH   4   8
ATOM      8  N   UNL d   1     -38.870  15.898  19.745  0.00  0.00    -0.241 NA
BRANCH   8   9
ATOM      9  C   UNL d   1     -39.389  15.856  19.099  0.00  0.00     0.082 A 
ATOM     10  C   UNL d   1     -39.075  15.849  18.330  0.00  0.00     0.021 A 
ATOM     11  C   UNL d   1     -39.605  15.806  17.686  0.00  0.00     0.019 A 
ATOM     12  C   UNL d   1     -40.406  15.771  17.804  0.00  0.00     0.064 A 
ATOM     13  C   UNL d   1     -40.717  15.778  18.550  0.00  0.00     0.019 A 
ATOM     14  C   UNL d   1     -40.206  15.820  19.204  0.00  0.00     0.021 A 
BRANCH  12  15
ATOM     15  N   UNL d   1     -40.913  15.729  17.147  0.00  0.00    -0.300 N 
ATOM     16  C   UNL d   1     -40.607  15.496  16.417  0.00  0.00     0.107 A 
ATOM     17  C   UNL d   1     -41.119  15.457  15.769  0.00  0.00     0.142 A 
ATOM     18  O   UNL d   1     -41.911  15.647  15.859  0.00  0.00    -0.300 OA
ATOM     19  C   UNL d   1     -42.191  15.874  16.589  0.00  0.00     0.142 A 
ATOM     20  C   UNL d   1     -41.698  15.921  17.255  0.00  0.00     0.107 A 
ENDBRANCH  12  15
ENDBRANCH   8   9
ENDBRANCH   4   8
BRANCH   1  21
ATOM     21  C   UNL d   1     -38.694  14.094  22.060  0.00  0.00     0.070 A 
ATOM     22  C   UNL d   1     -39.390  13.721  22.352  0.00  0.00     0.018 A 
ATOM     23  C   UNL d   1     -39.395  13.371  23.094  0.00  0.00     0.002 A 
ATOM     24  C   UNL d   1     -38.708  13.385  23.558  0.00  0.00     0.000 A 
ATOM     25  C   UNL d   1     -38.032  13.743  23.282  0.00  0.00     0.002 A 
ATOM     26  C   UNL d   1     -38.029  14.095  22.536  0.00  0.00     0.018 A 
ENDBRANCH   1  21
TORSDOF 4
ENDMDL
MODEL 5
REMARK VINA RESULT:      -4.5      8.391     10.126
REMARK  4 active torsions:
REMARK  status: ('A' for Active; 'I' for Inactive)
REMARK    1  A    between atoms: C_8  and  N_1 
REMARK    2  A    between atoms: N_7  and  C_4 
REMARK    3  A    between atoms: N_6  and  C_10 
REMARK    4  A    between atoms: C_15  and  N_7 
ROOT
ATOM      1  N   UNL d   1     -39.291  14.411  20.724  0.00  0.00    -0.241 N 
ATOM      2  C   UNL d   1     -38.749  13.946  20.341  0.00  0.00     0.269 A 
ATOM      3  C   UNL d   1     -39.902  14.570  20.202  0.00  0.00     0.285 A 
ATOM      4  C   UNL d   1     -39.706  14.185  19.497  0.00  0.00     0.142 A 
ATOM      5  C   UNL d   1     -39.022  13.817  19.585  0.00  0.00     0.085 A 
ATOM      6  O   UNL d   1     -38.026  13.638  20.642  0.00  0.00    -0.267 OA
ATOM      7  O   UNL d   1     -40.588  15.030  20.356  0.00  0.00    -0.265 OA
ENDROOT
BRANCH   4   8
ATOM      8  N   UNL d   1     -40.156  14.167  18.762  0.00  0.00    -0.241 NA
BRANCH   8   9
ATOM      9  C   UNL d   1     -39.790  14.276  18.025  0.00  0.00     0.082 A 
ATOM     10  C   UNL d   1     -39.221  13.726  17.772  0.00  0.00     0.021 A 
ATOM     11  C   UNL d   1     -38.859  13.843  17.030  0.00  0.00     0.019 A 
ATOM     12  C   UNL d   1     -39.054  14.477  16.563  0.00  0.00     0.064 A 
ATOM     13  C   UNL d   1     -39.606  15.015  16.804  0.00  0.00     0.019 A 
ATOM     14  C   UNL d   1     -39.979  14.916  17.540  0.00  0.00     0.021 A 
BRANCH  12  15
ATOM     15  N   UNL d   1     -38.679  14.573  15.828  0.00  0.00    -0.300 N 
ATOM     16  C   UNL d   1     -38.328  15.297  15.646  0.00  0.00     0.107 A 
ATOM     17  C   UNL d   1     -37.958  15.383  14.912  0.00  0.00     0.142 A 
ATOM     18  O   UNL d   1     -37.944  14.757  14.383  0.00  0.00    -0.300 OA
ATOM     19  C   UNL d   1     -38.297  14.051  14.584  0.00  0.00     0.142 A 
ATOM     20  C   UNL d   1     -38.675  13.940  15.314  0.00  0.00     0.107 A 
ENDBRANCH  12  15
ENDBRANCH   8   9
ENDBRANCH   4   8
BRANCH   1  21
ATOM     21  C   UNL d   1     -39.179  14.641  21.495  0.00  0.00     0.070 A 
ATOM     22  C   UNL d   1     -39.061  15.450  21.694  0.00  0.00     0.018 A 
ATOM     23  C   UNL d   1     -38.949  15.675  22.475  0.00  0.00     0.002 A 
ATOM     24  C   UNL d   1     -38.952  15.099  23.072  0.00  0.00     0.000 A 
ATOM     25  C   UNL d   1     -39.065  14.316  22.886  0.00  0.00     0.002 A 
ATOM     26  C   UNL d   1     -39.178  14.091  22.100  0.00  0.00     0.018 A 
ENDBRANCH   1  21
TORSDOF 4
ENDMDL
MODEL 6
REMARK VINA RESULT:      -3.6      8.922     11.041
REMARK  4 active torsions:
REMARK  status: ('A' for Active; 'I' for Inactive)
REMARK    1  A    between atoms: C_8  and  N_1 
REMARK    2  A    between atoms: N_7  and  C_4 
REMARK    3  A    between atoms: N_6  and  C_10 
REMARK    4  A    between atoms: C_15  and  N_7 
ROOT
ATOM      1  N   UNL d   1     -37.981  14.078  15.821  0.00  0.00    -0.241 N 
ATOM      2  C   UNL d   1     -37.983  13.499  16.389  0.00  0.00     0.269 A 
ATOM      3  C   UNL d   1     -37.992  14.804  16.200  0.00  0.00     0.285 A 
ATOM      4  C   UNL d   1     -37.999  14.637  17.011  0.00  0.00     0.142 A 
ATOM      5  C   UNL d   1     -37.994  13.863  17.116  0.00  0.00     0.085 A 
ATOM      6  O   UNL d   1     -37.974  12.665  16.277  0.00  0.00    -0.267 OA
ATOM      7  O   UNL d   1     -37.994  15.561  15.837  0.00  0.00    -0.265 OA
ENDROOT
BRANCH   4   8
ATOM      8  N   UNL d   1     -38.012  15.199  17.665  0.00  0.00    -0.241 NA
BRANCH   8   9
ATOM      9  C   UNL d   1     -38.604  15.178  18.246  0.00  0.00     0.082 A 
ATOM     10  C   UNL d   1     -38.449  14.791  18.965  0.00  0.00     0.021 A 
ATOM     11  C   UNL d   1     -39.051  14.775  19.543  0.00  0.00     0.019 A 
ATOM     12  C   UNL d   1     -39.769  15.126  19.411  0.00  0.00     0.064 A 
ATOM     13  C   UNL d   1     -39.925  15.503  18.714  0.00  0.00     0.019 A 
ATOM     14  C   UNL d   1     -39.339  15.531  18.125  0.00  0.00     0.021 A 
BRANCH  12  15
ATOM     15  N   UNL d   1     -40.352  15.096  20.002  0.00  0.00    -0.300 N 
ATOM     16  C   UNL d   1     -40.597  15.798  20.363  0.00  0.00     0.107 A 
ATOM     17  C   UNL d   1     -41.177  15.758  20.950  0.00  0.00     0.142 A 
ATOM     18  O   UNL d   1     -41.497  15.035  21.164  0.00  0.00    -0.300 OA
ATOM     19  C   UNL d   1     -41.241  14.356  20.795  0.00  0.00     0.142 A 
ATOM     20  C   UNL d   1     -40.659  14.368  20.202  0.00  0.00     0.107 A 
ENDBRANCH  12  15
ENDBRANCH   8   9
ENDBRANCH   4   8
BRANCH   1  21
ATOM     21  C   UNL d   1     -37.971  13.893  15.030  0.00  0.00     0.070 A 
ATOM     22  C   UNL d   1     -37.980  13.092  14.772  0.00  0.00     0.018 A 
ATOM     23  C   UNL d   1     -37.969  12.912  13.972  0.00  0.00     0.002 A 
ATOM     24  C   UNL d   1     -37.949  13.526  13.414  0.00  0.00     0.000 A 
ATOM     25  C   UNL d   1     -37.940  14.302  13.657  0.00  0.00     0.002 A 
ATOM     26  C   UNL d   1     -37.951  14.481  14.463  0.00  0.00     0.018 A 
ENDBRANCH   1  21
TORSDOF 4
ENDMDL
MODEL 7
REMARK VINA RESULT:      -3.3      6.792      8.865
REMARK  4 active torsions:
REMARK  status: ('A' for Active; 'I' for Inactive)
REMARK    1  A    between atoms: C_8  and  N_1 
REMARK    2  A    between atoms: N_7  and  C_4 
REMARK    3  A    between atoms: N_6  and  C_10 
REMARK    4  A    between atoms: C_15  and  N_7 
ROOT
ATOM      1  N   UNL d   1     -39.503  15.317  17.899  0.00  0.00    -0.241 N 
ATOM      2  C   UNL d   1     -40.285  15.529  17.851  0.00  0.00     0.269 A 
ATOM      3  C   UNL d   1     -39.326  15.182  18.686  0.00  0.00     0.285 A 
ATOM      4  C   UNL d   1     -40.026  15.320  19.105  0.00  0.00     0.142 A 
ATOM      5  C   UNL d   1     -40.590  15.525  18.605  0.00  0.00     0.085 A 
ATOM      6  O   UNL d   1     -40.727  15.723  17.161  0.00  0.00    -0.267 OA
ATOM      7  O   UNL d   1     -38.582  14.950  19.002  0.00  0.00    -0.265 OA
ENDROOT
BRANCH   4   8
ATOM      8  N   UNL d   1     -40.153  15.259  19.956  0.00  0.00    -0.241 NA
BRANCH   8   9
ATOM      9  C   UNL d   1     -40.738  14.763  20.274  0.00  0.00     0.082 A 
ATOM     10  C   UNL d   1     -41.381  15.104  20.674  0.00  0.00     0.021 A 
ATOM     11  C   UNL d   1     -41.964  14.598  20.991  0.00  0.00     0.019 A 
ATOM     12  C   UNL d   1     -41.909  13.793  20.911  0.00  0.00     0.064 A 
ATOM     13  C   UNL d   1     -41.286  13.456  20.522  0.00  0.00     0.019 A 
ATOM     14  C   UNL d   1     -40.694  13.943  20.200  0.00  0.00     0.021 A 
BRANCH  12  15
ATOM     15  N   UNL d   1     -42.502  13.310  21.235  0.00  0.00    -0.300 N 
ATOM     16  C   UNL d   1     -42.286  12.645  21.673  0.00  0.00     0.107 A 
ATOM     17  C   UNL d   1     -42.883  12.170  21.991  0.00  0.00     0.142 A 
ATOM     18  O   UNL d   1     -43.670  12.363  21.869  0.00  0.00    -0.300 OA
ATOM     19  C   UNL d   1     -43.860  13.024  21.433  0.00  0.00     0.142 A 
ATOM     20  C   UNL d   1     -43.279  13.517  21.103  0.00  0.00     0.107 A 
ENDBRANCH  12  15
ENDBRANCH   8   9
ENDBRANCH   4   8
BRANCH   1  21
ATOM     21  C   UNL d   1     -39.039  15.269  17.234  0.00  0.00     0.070 A 
ATOM     22  C   UNL d   1     -38.969  14.547  16.805  0.00  0.00     0.018 A 
ATOM     23  C   UNL d   1     -38.498  14.506  16.135  0.00  0.00     0.002 A 
ATOM     24  C   UNL d   1     -38.088  15.179  15.880  0.00  0.00     0.000 A 
ATOM     25  C   UNL d   1     -38.150  15.879  16.290  0.00  0.00     0.002 A 
ATOM     26  C   UNL d   1     -38.625  15.920  16.964  0.00  0.00     0.018 A 
ENDBRANCH   1  21
TORSDOF 4
ENDMDL
