MODEL 1
REMARK VINA RESULT:      44.6      0.000      0.000
REMARK  6 active torsions:
REMARK  status: ('A' for Active; 'I' for Inactive)
REMARK    1  A    between atoms: C_3  and  C_1 
REMARK    2  A    between atoms: C_7  and  C_2 
REMARK       I    between atoms: N_5  and  C_3 
REMARK    3  A    between atoms: C_6  and  N_5 
REMARK    4  A    between atoms: N_10  and  C_6 
REMARK    5  A    between atoms: C_11  and  N_10 
REMARK    6  A    between atoms: O_18  and  C_15 
ROOT
ATOM      1  C   UNL d   1      45.596 -14.519  43.503  0.00  0.00     0.285 C 
ATOM      2  N   UNL d   1      46.128 -15.132  43.408  0.00  0.00    -0.179 NA
ATOM      3  O   UNL d   1      44.867 -14.555  43.114  0.00  0.00    -0.265 OA
ENDROOT
BRANCH   1   4
ATOM      4  C   UNL d   1      45.764 -13.871  43.972  0.00  0.00     0.103 A 
ATOM      5  C   UNL d   1      45.469 -13.109  43.849  0.00  0.00     0.116 A 
ATOM      6  N   UNL d   1      45.772 -12.627  44.442  0.00  0.00    -0.126 NA
ATOM      7  O   UNL d   1      46.252 -13.087  44.931  0.00  0.00    -0.211 OA
ATOM      8  C   UNL d   1      46.241 -13.844  44.636  0.00  0.00     0.131 A 
ATOM      9  C   UNL d   1      46.644 -14.481  44.955  0.00  0.00     0.029 C 
BRANCH   5  10
ATOM     10  C   UNL d   1      44.965 -12.875  43.243  0.00  0.00     0.031 A 
ATOM     11  C   UNL d   1      45.240 -12.384  42.646  0.00  0.00     0.059 A 
ATOM     12 CL   UNL d   1      46.019 -12.128  42.655  0.00  0.00    -0.082 Cl
ATOM     13  C   UNL d   1      44.736 -12.155  42.048  0.00  0.00     0.011 A 
ATOM     14  C   UNL d   1      43.949 -12.412  42.037  0.00  0.00     0.001 A 
ATOM     15  C   UNL d   1      43.681 -12.904  42.639  0.00  0.00     0.000 A 
ATOM     16  C   UNL d   1      44.183 -13.143  43.250  0.00  0.00     0.002 A 
ENDBRANCH   5  10
ENDBRANCH   1   4
BRANCH   2  17
ATOM     17  C   UNL d   1      45.960 -15.779  42.939  0.00  0.00     0.224 C 
ATOM     18  S   UNL d   1      46.139 -15.748  42.132  0.00  0.00    -0.037 SA
BRANCH  17  19
ATOM     19  N   UNL d   1      45.619 -16.457  43.253  0.00  0.00    -0.215 NA
BRANCH  19  20
ATOM     20  C   UNL d   1      45.888 -17.192  43.014  0.00  0.00     0.106 A 
ATOM     21  C   UNL d   1      46.151 -17.742  43.586  0.00  0.00     0.112 A 
ATOM     22  C   UNL d   1      46.423 -18.485  43.345  0.00  0.00     0.026 A 
ATOM     23  C   UNL d   1      46.434 -18.680  42.544  0.00  0.00     0.002 A 
ATOM     24  C   UNL d   1      46.175 -18.139  41.973  0.00  0.00     0.002 A 
ATOM     25  C   UNL d   1      45.902 -17.395  42.211  0.00  0.00     0.021 A 
BRANCH  21  26
ATOM     26  O   UNL d   1      46.137 -17.539  44.381  0.00  0.00    -0.327 OA
ATOM     27  C   UNL d   1      46.241 -18.120  44.952  0.00  0.00     0.181 C 
ENDBRANCH  21  26
ENDBRANCH  19  20
ENDBRANCH  17  19
ENDBRANCH   2  17
TORSDOF 6
ENDMDL
