MODEL 1
REMARK VINA RESULT:       3.3      0.000      0.000
REMARK  9 active torsions:
REMARK  status: ('A' for Active; 'I' for Inactive)
REMARK    1  A    between atoms: C_12  and  C_1 
REMARK       I    between atoms: C_4  and  N_11 
REMARK    2  A    between atoms: C_5  and  C_4 
REMARK    3  A    between atoms: O_18  and  C_6 
REMARK    4  A    between atoms: O_19  and  C_7 
REMARK    5  A    between atoms: O_20  and  C_8 
REMARK    6  A    between atoms: N_11  and  C_15 
REMARK    7  A    between atoms: C_26  and  O_18 
REMARK    8  A    between atoms: C_28  and  O_19 
REMARK    9  A    between atoms: C_27  and  O_20 
ROOT
ATOM      1  C   UNL d   1      57.037  -0.077  31.679  0.00  0.00     0.279 C 
ATOM      2  N   UNL d   1      57.232   0.528  31.148  0.00  0.00    -0.208 NA
ATOM      3  O   UNL d   1      57.076  -0.866  31.442  0.00  0.00    -0.265 OA
ENDROOT
BRANCH   1   4
ATOM      4  C   UNL d   1      56.805   0.112  32.446  0.00  0.00     0.062 A 
ATOM      5  C   UNL d   1      57.375   0.254  33.026  0.00  0.00     0.032 A 
ATOM      6  C   UNL d   1      57.143   0.443  33.791  0.00  0.00     0.125 A 
ATOM      7  C   UNL d   1      56.342   0.491  33.981  0.00  0.00     0.145 A 
ATOM      8  C   UNL d   1      55.776   0.350  33.404  0.00  0.00     0.125 A 
ATOM      9  C   UNL d   1      56.009   0.161  32.642  0.00  0.00     0.032 A 
BRANCH   6  10
ATOM     10  O   UNL d   1      57.717   0.587  34.375  0.00  0.00    -0.303 OA
BRANCH  10  11
ATOM     11  C   UNL d   1      58.513   0.418  34.216  0.00  0.00     0.123 C 
ATOM     12  C   UNL d   1      59.101   0.677  34.744  0.00  0.00     0.029 C 
ENDBRANCH  10  11
ENDBRANCH   6  10
BRANCH   7  13
ATOM     13  O   UNL d   1      56.110   0.681  34.751  0.00  0.00    -0.301 OA
BRANCH  13  14
ATOM     14  C   UNL d   1      55.885   0.084  35.269  0.00  0.00     0.123 C 
ATOM     15  C   UNL d   1      55.793   0.250  36.073  0.00  0.00     0.029 C 
ENDBRANCH  13  14
ENDBRANCH   7  13
BRANCH   8  16
ATOM     16  O   UNL d   1      54.966   0.397  33.594  0.00  0.00    -0.303 OA
BRANCH  16  17
ATOM     17  C   UNL d   1      54.403   0.365  32.991  0.00  0.00     0.123 C 
ATOM     18  C   UNL d   1      53.601   0.480  33.172  0.00  0.00     0.029 C 
ENDBRANCH  16  17
ENDBRANCH   8  16
ENDBRANCH   1   4
BRANCH   2  19
ATOM     19  C   UNL d   1      57.468   0.341  30.370  0.00  0.00     0.085 A 
ATOM     20  C   UNL d   1      58.093  -0.190  30.252  0.00  0.00     0.022 A 
ATOM     21  C   UNL d   1      58.329  -0.376  29.487  0.00  0.00     0.037 A 
ATOM     22  C   UNL d   1      57.947  -0.039  28.837  0.00  0.00     0.003 A 
ATOM     23  C   UNL d   1      57.321   0.492  28.960  0.00  0.00     0.002 A 
ATOM     24  C   UNL d   1      57.082   0.682  29.720  0.00  0.00     0.019 A 
BRANCH  21  25
ATOM     25  C   UNL d   1      58.951  -0.905  29.363  0.00  0.00     0.162 A 
ATOM     26  N   UNL d   1      59.768  -0.799  29.359  0.00  0.00    -0.225 NA
ATOM     27  C   UNL d   1      60.117  -1.531  29.204  0.00  0.00     0.101 A 
ATOM     28  C   UNL d   1      60.910  -1.762  29.134  0.00  0.00     0.021 A 
ATOM     29  C   UNL d   1      59.516  -2.078  29.114  0.00  0.00     0.101 A 
ATOM     30  C   UNL d   1      61.087  -2.548  28.973  0.00  0.00     0.002 A 
ATOM     31  C   UNL d   1      60.475  -3.103  28.882  0.00  0.00     0.002 A 
ATOM     32  C   UNL d   1      59.697  -2.871  28.951  0.00  0.00     0.021 A 
ATOM     33  N   UNL d   1      58.797  -1.693  29.212  0.00  0.00    -0.225 NA
ENDBRANCH  21  25
ENDBRANCH   2  19
TORSDOF 9
ENDMDL
MODEL 2
REMARK VINA RESULT:       5.7      1.771      5.837
REMARK  9 active torsions:
REMARK  status: ('A' for Active; 'I' for Inactive)
REMARK    1  A    between atoms: C_12  and  C_1 
REMARK       I    between atoms: C_4  and  N_11 
REMARK    2  A    between atoms: C_5  and  C_4 
REMARK    3  A    between atoms: O_18  and  C_6 
REMARK    4  A    between atoms: O_19  and  C_7 
REMARK    5  A    between atoms: O_20  and  C_8 
REMARK    6  A    between atoms: N_11  and  C_15 
REMARK    7  A    between atoms: C_26  and  O_18 
REMARK    8  A    between atoms: C_28  and  O_19 
REMARK    9  A    between atoms: C_27  and  O_20 
ROOT
ATOM      1  C   UNL d   1      57.534  -0.992  30.769  0.00  0.00     0.279 C 
ATOM      2  N   UNL d   1      57.489  -0.185  30.954  0.00  0.00    -0.208 NA
ATOM      3  O   UNL d   1      56.944  -1.509  31.022  0.00  0.00    -0.265 OA
ENDROOT
BRANCH   1   4
ATOM      4  C   UNL d   1      58.170  -1.274  30.331  0.00  0.00     0.062 A 
ATOM      5  C   UNL d   1      58.868  -0.835  30.286  0.00  0.00     0.032 A 
ATOM      6  C   UNL d   1      59.504  -1.117  29.848  0.00  0.00     0.125 A 
ATOM      7  C   UNL d   1      59.446  -1.839  29.454  0.00  0.00     0.145 A 
ATOM      8  C   UNL d   1      58.753  -2.275  29.498  0.00  0.00     0.125 A 
ATOM      9  C   UNL d   1      58.121  -1.993  29.935  0.00  0.00     0.032 A 
BRANCH   6  10
ATOM     10  O   UNL d   1      60.206  -0.674  29.803  0.00  0.00    -0.303 OA
BRANCH  10  11
ATOM     11  C   UNL d   1      60.171   0.128  29.597  0.00  0.00     0.123 C 
ATOM     12  C   UNL d   1      60.555   0.392  28.909  0.00  0.00     0.029 C 
ENDBRANCH  10  11
ENDBRANCH   6  10
BRANCH   7  13
ATOM     13  O   UNL d   1      60.086  -2.122  29.014  0.00  0.00    -0.301 OA
BRANCH  13  14
ATOM     14  C   UNL d   1      60.543  -2.739  29.308  0.00  0.00     0.123 C 
ATOM     15  C   UNL d   1      61.091  -3.115  28.817  0.00  0.00     0.029 C 
ENDBRANCH  13  14
ENDBRANCH   7  13
BRANCH   8  16
ATOM     16  O   UNL d   1      58.693  -3.005  29.100  0.00  0.00    -0.303 OA
BRANCH  16  17
ATOM     17  C   UNL d   1      58.012  -3.179  28.667  0.00  0.00     0.123 C 
ATOM     18  C   UNL d   1      57.663  -3.928  28.735  0.00  0.00     0.029 C 
ENDBRANCH  16  17
ENDBRANCH   8  16
ENDBRANCH   1   4
BRANCH   2  19
ATOM     19  C   UNL d   1      56.846   0.106  31.398  0.00  0.00     0.085 A 
ATOM     20  C   UNL d   1      56.912   0.157  32.222  0.00  0.00     0.022 A 
ATOM     21  C   UNL d   1      56.280   0.444  32.664  0.00  0.00     0.037 A 
ATOM     22  C   UNL d   1      55.582   0.681  32.291  0.00  0.00     0.003 A 
ATOM     23  C   UNL d   1      55.521   0.628  31.465  0.00  0.00     0.002 A 
ATOM     24  C   UNL d   1      56.147   0.343  31.020  0.00  0.00     0.019 A 
BRANCH  21  25
ATOM     25  C   UNL d   1      56.340   0.497  33.485  0.00  0.00     0.162 A 
ATOM     26  N   UNL d   1      56.991   0.578  33.984  0.00  0.00    -0.225 NA
ATOM     27  C   UNL d   1      56.713   0.602  34.761  0.00  0.00     0.101 A 
ATOM     28  C   UNL d   1      57.106   0.676  35.487  0.00  0.00     0.021 A 
ATOM     29  C   UNL d   1      55.898   0.536  34.735  0.00  0.00     0.101 A 
ATOM     30  C   UNL d   1      56.668   0.682  36.182  0.00  0.00     0.002 A 
ATOM     31  C   UNL d   1      55.840   0.615  36.154  0.00  0.00     0.002 A 
ATOM     32  C   UNL d   1      55.458   0.543  35.438  0.00  0.00     0.021 A 
ATOM     33  N   UNL d   1      55.667   0.472  33.949  0.00  0.00    -0.225 NA
ENDBRANCH  21  25
ENDBRANCH   2  19
TORSDOF 9
ENDMDL
