MODEL 1
REMARK VINA RESULT:       8.6      0.000      0.000
REMARK  1 active torsions:
REMARK  status: ('A' for Active; 'I' for Inactive)
REMARK    1  A    between atoms: C_12  and  N_4 
ROOT
ATOM      1  C   UNL d   1      46.506 -19.086  42.777  0.00  0.00     0.081 A 
ATOM      2  C   UNL d   1      46.571 -19.902  42.802  0.00  0.00     0.118 A 
ATOM      3  C   UNL d   1      46.433 -18.656  43.495  0.00  0.00     0.268 A 
ATOM      4  N   UNL d   1      46.427 -19.052  44.216  0.00  0.00    -0.249 N 
ATOM      5  N   UNL d   1      46.567 -20.318  43.511  0.00  0.00    -0.212 NA
ATOM      6  C   UNL d   1      46.494 -19.888  44.229  0.00  0.00     0.209 A 
ATOM      7  S   UNL d   1      46.634 -20.150  41.995  0.00  0.00    -0.068 SA
ATOM      8  C   UNL d   1      46.528 -18.843  41.989  0.00  0.00     0.013 A 
ATOM      9  C   UNL d   1      46.609 -19.534  41.521  0.00  0.00     0.031 A 
ATOM     10  S   UNL d   1      46.492 -20.325  44.943  0.00  0.00    -0.038 SA
ATOM     11  O   UNL d   1      46.364 -17.809  43.494  0.00  0.00    -0.267 OA
ATOM     12  C   UNL d   1      46.486 -18.100  41.634  0.00  0.00     0.001 A 
ATOM     13  C   UNL d   1      46.647 -19.461  40.693  0.00  0.00     0.006 A 
ATOM     14  C   UNL d   1      46.524 -18.037  40.819  0.00  0.00     0.000 A 
ATOM     15  C   UNL d   1      46.603 -18.708  40.348  0.00  0.00     0.001 A 
ENDROOT
BRANCH   4  16
ATOM     16  C   UNL d   1      46.354 -18.614  44.921  0.00  0.00     0.085 C 
ATOM     17  C   UNL d   1      45.863 -17.958  44.953  0.00  0.00     0.021 C 
ENDBRANCH   4  16
TORSDOF 1
ENDMDL
