MODEL 1
REMARK VINA RESULT:      24.9      0.000      0.000
REMARK  1 active torsions:
REMARK  status: ('A' for Active; 'I' for Inactive)
REMARK    1  A    between atoms: C_14  and  C_6 
ROOT
ATOM      1  C   UNL d   1      59.772  49.693  50.186  0.00  0.00     0.174 A 
ATOM      2  N   UNL d   1      60.216  49.686  50.882  0.00  0.00    -0.250 N 
ATOM      3  C   UNL d   1      58.943  49.693  50.202  0.00  0.00     0.061 A 
ATOM      4  C   UNL d   1      58.554  49.685  50.929  0.00  0.00     0.115 A 
ATOM      5  N   UNL d   1      59.009  49.677  51.614  0.00  0.00    -0.221 NA
ATOM      6  C   UNL d   1      59.827  49.678  51.609  0.00  0.00     0.151 A 
ATOM      7  N   UNL d   1      60.341  49.701  49.519  0.00  0.00    -0.128 NA
ATOM      8  C   UNL d   1      61.073  49.689  50.688  0.00  0.00     0.228 A 
ATOM      9  S   UNL d   1      57.742  49.684  50.936  0.00  0.00    -0.068 SA
ATOM     10  C   UNL d   1      57.695  49.700  49.535  0.00  0.00     0.011 A 
ATOM     11  C   UNL d   1      57.306  49.691  50.263  0.00  0.00     0.031 A 
ATOM     12  N   UNL d   1      61.113  49.698  49.834  0.00  0.00    -0.117 NA
ATOM     13  S   UNL d   1      61.583  49.683  51.226  0.00  0.00    -0.036 SA
ATOM     14  C   UNL d   1      57.238  49.707  48.831  0.00  0.00     0.001 A 
ATOM     15  C   UNL d   1      56.475  49.691  50.259  0.00  0.00     0.006 A 
ATOM     16  C   UNL d   1      56.422  49.706  48.855  0.00  0.00     0.000 A 
ATOM     17  C   UNL d   1      56.034  49.698  49.583  0.00  0.00     0.001 A 
ENDROOT
BRANCH   6  18
ATOM     18  C   UNL d   1      60.152  49.672  52.188  0.00  0.00     0.037 C 
ATOM     19  C   UNL d   1      59.955  49.706  52.817  0.00  0.00     0.003 C 
ENDBRANCH   6  18
TORSDOF 1
ENDMDL
