MODEL 1
REMARK VINA RESULT:       8.6      0.000      0.000
REMARK  3 active torsions:
REMARK  status: ('A' for Active; 'I' for Inactive)
REMARK    1  A    between atoms: C_6  and  C_2 
REMARK       I    between atoms: N_8  and  C_6 
REMARK    2  A    between atoms: C_14  and  N_8 
REMARK    3  A    between atoms: C_15  and  C_14 
ROOT
ATOM      1  N   UNL d   1      45.461 -14.687  44.600  0.00  0.00    -0.252 N 
ATOM      2  C   UNL d   1      45.473 -13.262  44.569  0.00  0.00     0.133 A 
ATOM      3  C   UNL d   1      45.860 -13.981  44.461  0.00  0.00     0.272 A 
ATOM      4  C   UNL d   1      44.673 -14.675  44.846  0.00  0.00     0.182 A 
ATOM      5  N   UNL d   1      44.286 -13.957  44.955  0.00  0.00    -0.220 NA
ATOM      6  C   UNL d   1      44.686 -13.250  44.816  0.00  0.00     0.111 A 
ATOM      7  S   UNL d   1      44.420 -15.459  44.941  0.00  0.00    -0.048 SA
ATOM      8  O   UNL d   1      46.647 -13.993  44.214  0.00  0.00    -0.266 OA
ATOM      9  C   UNL d   1      45.692 -15.479  44.541  0.00  0.00     0.092 A 
ATOM     10  C   UNL d   1      45.048 -15.948  44.752  0.00  0.00     0.057 A 
ENDROOT
BRANCH   2  11
ATOM     11  C   UNL d   1      45.872 -12.544  44.431  0.00  0.00     0.285 C 
ATOM     12  N   UNL d   1      45.670 -12.080  43.777  0.00  0.00    -0.208 NA
ATOM     13  O   UNL d   1      46.467 -12.301  44.949  0.00  0.00    -0.265 OA
BRANCH  12  14
ATOM     14  C   UNL d   1      45.075 -12.326  43.260  0.00  0.00     0.085 C 
ATOM     15  C   UNL d   1      44.277 -12.199  43.454  0.00  0.00     0.021 C 
BRANCH  14  16
ATOM     16  C   UNL d   1      45.274 -12.697  42.553  0.00  0.00     0.019 C 
ATOM     17  C   UNL d   1      44.907 -12.468  41.846  0.00  0.00     0.002 C 
ENDBRANCH  14  16
ENDBRANCH  12  14
ENDBRANCH   2  11
TORSDOF 3
ENDMDL
