MODEL 1
REMARK VINA RESULT:      -4.7      0.000      0.000
REMARK  9 active torsions:
REMARK  status: ('A' for Active; 'I' for Inactive)
REMARK    1  A    between atoms: N_8  and  C_1 
REMARK    2  A    between atoms: S_2  and  C_13 
REMARK    3  A    between atoms: N_7  and  S_2 
REMARK    4  A    between atoms: C_12  and  C_3 
REMARK       I    between atoms: C_10  and  N_8 
REMARK       I    between atoms: C_11  and  N_9 
REMARK    5  A    between atoms: C_21  and  C_10 
REMARK    6  A    between atoms: O_33  and  C_11 
REMARK    7  A    between atoms: C_34  and  N_14 
REMARK    8  A    between atoms: C_35  and  O_33 
REMARK    9  A    between atoms: C_36  and  C_34 
ROOT
ATOM      1  C   UNL d   1      44.421  28.631  61.218  0.00  0.00     0.104 A 
ATOM      2  C   UNL d   1      44.454  27.539  59.982  0.00  0.00     0.056 A 
ATOM      3  C   UNL d   1      44.504  28.887  60.433  0.00  0.00     0.013 A 
ATOM      4  C   UNL d   1      44.355  27.820  61.383  0.00  0.00     0.013 A 
ATOM      5  C   UNL d   1      44.520  28.346  59.816  0.00  0.00     0.005 A 
ATOM      6  C   UNL d   1      44.372  27.274  60.757  0.00  0.00     0.005 A 
ENDROOT
BRANCH   2   7
ATOM      7  C   UNL d   1      44.470  26.988  59.364  0.00  0.00     0.258 C 
ATOM      8  N   UNL d   1      44.508  27.252  58.575  0.00  0.00    -0.316 N 
ATOM      9  H   UNL d   1      44.506  27.820  58.876  0.00  0.00     0.169 HD
ATOM     10  O   UNL d   1      44.448  26.177  59.522  0.00  0.00    -0.267 OA
BRANCH   8  11
ATOM     11  C   UNL d   1      44.524  26.702  57.957  0.00  0.00     0.094 A 
ATOM     12  C   UNL d   1      44.724  26.859  57.173  0.00  0.00     0.082 A 
ATOM     13  C   UNL d   1      44.670  26.161  56.738  0.00  0.00     0.016 A 
ATOM     14  C   UNL d   1      44.804  25.990  55.940  0.00  0.00     0.020 A 
ATOM     15  C   UNL d   1      44.435  25.558  57.248  0.00  0.00     0.049 A 
ATOM     16  C   UNL d   1      44.702  25.223  55.660  0.00  0.00     0.080 A 
ATOM     17  N   UNL d   1      44.468  24.619  56.165  0.00  0.00    -0.302 N 
ATOM     18  C   UNL d   1      44.332  24.784  56.964  0.00  0.00     0.087 A 
ATOM     19  S   UNL d   1      44.342  25.884  58.006  0.00  0.00    -0.068 SA
BRANCH  12  20
ATOM     20  C   UNL d   1      44.942  27.588  56.866  0.00  0.00     0.299 C 
ATOM     21  O   UNL d   1      44.382  28.076  56.534  0.00  0.00    -0.264 OA
ATOM     22  N   UNL d   1      45.728  27.821  56.894  0.00  0.00    -0.102 N 
ENDBRANCH  12  20
BRANCH  17  23
ATOM     23  C   UNL d   1      44.368  23.854  55.882  0.00  0.00     0.080 C 
BRANCH  23  24
ATOM     24  C   UNL d   1      44.925  23.267  56.046  0.00  0.00     0.019 C 
ATOM     25  C   UNL d   1      45.069  22.676  55.497  0.00  0.00     0.002 C 
ENDBRANCH  23  24
ENDBRANCH  17  23
ENDBRANCH   8  11
ENDBRANCH   2   7
BRANCH   1  26
ATOM     26  S   UNL d   1      44.405  29.179  61.840  0.00  0.00     0.271 S 
ATOM     27  O   UNL d   1      44.350  28.533  62.361  0.00  0.00    -0.200 OA
ATOM     28  O   UNL d   1      44.459  29.818  61.323  0.00  0.00    -0.200 OA
BRANCH  26  29
ATOM     29  N   UNL d   1      44.388  29.722  62.460  0.00  0.00    -0.226 N 
ATOM     30  C   UNL d   1      44.395  30.528  62.309  0.00  0.00     0.111 A 
ATOM     31  C   UNL d   1      44.378  31.062  62.943  0.00  0.00     0.105 A 
ATOM     32  N   UNL d   1      44.354  30.788  63.722  0.00  0.00    -0.248 N 
ATOM     33  C   UNL d   1      44.347  29.979  63.869  0.00  0.00     0.105 A 
ATOM     34  C   UNL d   1      44.338  31.318  64.346  0.00  0.00     0.378 C 
ATOM     35  C   UNL d   1      44.364  29.453  63.239  0.00  0.00     0.111 A 
ATOM     36  O   UNL d   1      44.345  32.125  64.194  0.00  0.00    -0.237 OA
BRANCH  34  37
ATOM     37  O   UNL d   1      44.314  31.042  65.114  0.00  0.00    -0.257 OA
BRANCH  37  38
ATOM     38  C   UNL d   1      44.763  31.404  65.692  0.00  0.00     0.128 C 
ATOM     39  C   UNL d   1      44.492  31.428  66.476  0.00  0.00     0.029 C 
ENDBRANCH  37  38
ENDBRANCH  34  37
ENDBRANCH  26  29
ENDBRANCH   1  26
TORSDOF 9
ENDMDL
MODEL 2
REMARK VINA RESULT:      -2.7      3.780      7.495
REMARK  9 active torsions:
REMARK  status: ('A' for Active; 'I' for Inactive)
REMARK    1  A    between atoms: N_8  and  C_1 
REMARK    2  A    between atoms: S_2  and  C_13 
REMARK    3  A    between atoms: N_7  and  S_2 
REMARK    4  A    between atoms: C_12  and  C_3 
REMARK       I    between atoms: C_10  and  N_8 
REMARK       I    between atoms: C_11  and  N_9 
REMARK    5  A    between atoms: C_21  and  C_10 
REMARK    6  A    between atoms: O_33  and  C_11 
REMARK    7  A    between atoms: C_34  and  N_14 
REMARK    8  A    between atoms: C_35  and  O_33 
REMARK    9  A    between atoms: C_36  and  C_34 
ROOT
ATOM      1  C   UNL d   1      44.876  26.972  56.969  0.00  0.00     0.104 A 
ATOM      2  C   UNL d   1      44.801  28.589  56.655  0.00  0.00     0.056 A 
ATOM      3  C   UNL d   1      45.320  27.509  57.420  0.00  0.00     0.013 A 
ATOM      4  C   UNL d   1      44.391  27.250  56.355  0.00  0.00     0.013 A 
ATOM      5  C   UNL d   1      45.284  28.314  57.266  0.00  0.00     0.005 A 
ATOM      6  C   UNL d   1      44.357  28.065  56.201  0.00  0.00     0.005 A 
ENDROOT
BRANCH   2   7
ATOM      7  C   UNL d   1      44.761  29.401  56.494  0.00  0.00     0.258 C 
ATOM      8  N   UNL d   1      44.498  29.927  57.083  0.00  0.00    -0.316 N 
ATOM      9  H   UNL d   1      44.451  29.375  57.408  0.00  0.00     0.169 HD
ATOM     10  O   UNL d   1      44.981  29.695  55.753  0.00  0.00    -0.267 OA
BRANCH   8  11
ATOM     11  C   UNL d   1      44.458  30.738  56.923  0.00  0.00     0.094 A 
ATOM     12  C   UNL d   1      44.414  31.341  57.483  0.00  0.00     0.082 A 
ATOM     13  C   UNL d   1      44.384  32.067  57.093  0.00  0.00     0.016 A 
ATOM     14  C   UNL d   1      44.336  32.846  57.368  0.00  0.00     0.020 A 
ATOM     15  C   UNL d   1      44.408  31.924  56.282  0.00  0.00     0.049 A 
ATOM     16  C   UNL d   1      44.314  33.470  56.833  0.00  0.00     0.080 A 
ATOM     17  N   UNL d   1      44.338  33.332  56.023  0.00  0.00    -0.302 N 
ATOM     18  C   UNL d   1      44.385  32.556  55.743  0.00  0.00     0.087 A 
ATOM     19  S   UNL d   1      44.454  31.103  56.167  0.00  0.00    -0.068 SA
BRANCH  12  20
ATOM     20  C   UNL d   1      44.403  31.246  58.298  0.00  0.00     0.299 C 
ATOM     21  O   UNL d   1      44.413  31.897  58.786  0.00  0.00    -0.264 OA
ATOM     22  N   UNL d   1      44.380  30.491  58.617  0.00  0.00    -0.102 N 
ENDBRANCH  12  20
BRANCH  17  23
ATOM     23  C   UNL d   1      44.316  33.959  55.493  0.00  0.00     0.080 C 
BRANCH  23  24
ATOM     24  C   UNL d   1      44.695  34.673  55.667  0.00  0.00     0.019 C 
ATOM     25  C   UNL d   1      44.567  35.329  55.193  0.00  0.00     0.002 C 
ENDBRANCH  23  24
ENDBRANCH  17  23
ENDBRANCH   8  11
ENDBRANCH   2   7
BRANCH   1  26
ATOM     26  S   UNL d   1      44.913  26.159  57.127  0.00  0.00     0.271 S 
ATOM     27  O   UNL d   1      45.201  26.355  57.882  0.00  0.00    -0.200 OA
ATOM     28  O   UNL d   1      44.629  25.966  56.378  0.00  0.00    -0.200 OA
BRANCH  26  29
ATOM     29  N   UNL d   1      44.951  25.351  57.286  0.00  0.00    -0.226 N 
ATOM     30  C   UNL d   1      44.908  24.803  56.677  0.00  0.00     0.111 A 
ATOM     31  C   UNL d   1      44.948  23.994  56.852  0.00  0.00     0.105 A 
ATOM     32  N   UNL d   1      45.030  23.737  57.634  0.00  0.00    -0.248 N 
ATOM     33  C   UNL d   1      45.073  24.290  58.240  0.00  0.00     0.105 A 
ATOM     34  C   UNL d   1      45.069  22.937  57.803  0.00  0.00     0.378 C 
ATOM     35  C   UNL d   1      45.034  25.091  58.063  0.00  0.00     0.111 A 
ATOM     36  O   UNL d   1      45.026  22.389  57.193  0.00  0.00    -0.237 OA
BRANCH  34  37
ATOM     37  O   UNL d   1      45.151  22.690  58.577  0.00  0.00    -0.257 OA
BRANCH  37  38
ATOM     38  C   UNL d   1      44.959  21.923  58.782  0.00  0.00     0.128 C 
ATOM     39  C   UNL d   1      44.644  21.758  59.532  0.00  0.00     0.029 C 
ENDBRANCH  37  38
ENDBRANCH  34  37
ENDBRANCH  26  29
ENDBRANCH   1  26
TORSDOF 9
ENDMDL
