MODEL 1
REMARK VINA RESULT:       2.2      0.000      0.000
REMARK  5 active torsions:
REMARK  status: ('A' for Active; 'I' for Inactive)
REMARK    1  A    between atoms: C_11  and  C_4 
REMARK    2  A    between atoms: N_10  and  C_5 
REMARK    3  A    between atoms: C_12  and  C_8 
REMARK    4  A    between atoms: C_16  and  N_10 
REMARK    5  A    between atoms: C_17  and  C_16 
ROOT
ATOM      1  C   UNL d   1     -41.598-122.222 -52.596  0.00  0.00     0.167 A 
ATOM      2  N   UNL d   1     -41.524-122.573 -51.848  0.00  0.00    -0.195 N 
ATOM      3  N   UNL d   1     -41.499-121.421 -52.673  0.00  0.00    -0.231 NA
ATOM      4  C   UNL d   1     -41.768-122.676 -53.235  0.00  0.00     0.057 A 
ATOM      5  C   UNL d   1     -41.353-122.107 -51.212  0.00  0.00     0.167 A 
ATOM      6  N   UNL d   1     -41.791-123.817 -52.411  0.00  0.00    -0.161 NA
ATOM      7  C   UNL d   1     -41.253-121.305 -51.285  0.00  0.00     0.054 A 
ATOM      8  C   UNL d   1     -41.327-120.955 -52.028  0.00  0.00     0.063 A 
ATOM      9  C   UNL d   1     -41.864-123.474 -53.143  0.00  0.00     0.124 A 
ENDROOT
BRANCH   5  10
ATOM     10  N   UNL d   1     -41.277-122.465 -50.450  0.00  0.00    -0.224 NA
BRANCH  10  11
ATOM     11  C   UNL d   1     -41.437-123.180 -50.035  0.00  0.00     0.120 C 
BRANCH  11  12
ATOM     12  C   UNL d   1     -41.708-123.165 -49.243  0.00  0.00     0.101 A 
ATOM     13  N   UNL d   1     -41.157-123.254 -48.602  0.00  0.00    -0.242 NA
ATOM     14  C   UNL d   1     -41.437-123.238 -47.805  0.00  0.00     0.099 A 
ATOM     15  C   UNL d   1     -42.262-123.134 -47.644  0.00  0.00     0.021 A 
ATOM     16  C   UNL d   1     -42.809-123.045 -48.293  0.00  0.00     0.003 A 
ATOM     17  C   UNL d   1     -42.530-123.062 -49.082  0.00  0.00     0.021 A 
ENDBRANCH  11  12
ENDBRANCH  10  11
ENDBRANCH   5  10
BRANCH   8  18
ATOM     18  C   UNL d   1     -41.224-120.117 -52.116  0.00  0.00     0.036 C 
ATOM     19  C   UNL d   1     -41.123-119.286 -52.199  0.00  0.00     0.006 C 
ATOM     20  C   UNL d   1     -41.209-119.772 -52.891  0.00  0.00     0.006 C 
ATOM     21  C   UNL d   1     -41.138-119.631 -51.423  0.00  0.00     0.006 C 
ENDBRANCH   8  18
BRANCH   4  22
ATOM     22  C   UNL d   1     -41.841-122.332 -53.967  0.00  0.00     0.005 A 
ATOM     23  C   UNL d   1     -41.227-122.370 -54.504  0.00  0.00     0.001 A 
ATOM     24  C   UNL d   1     -41.299-122.031 -55.225  0.00  0.00     0.011 A 
ATOM     25  C   UNL d   1     -41.988-121.641 -55.439  0.00  0.00     0.058 A 
ATOM     26  C   UNL d   1     -42.596-121.600 -54.917  0.00  0.00     0.011 A 
ATOM     27 CL   UNL d   1     -42.064-121.284 -56.198  0.00  0.00    -0.082 Cl
ATOM     28  C   UNL d   1     -42.522-121.947 -54.177  0.00  0.00     0.001 A 
ENDBRANCH   4  22
TORSDOF 5
ENDMDL
MODEL 2
REMARK VINA RESULT:       4.5      1.882      4.664
REMARK  5 active torsions:
REMARK  status: ('A' for Active; 'I' for Inactive)
REMARK    1  A    between atoms: C_11  and  C_4 
REMARK    2  A    between atoms: N_10  and  C_5 
REMARK    3  A    between atoms: C_12  and  C_8 
REMARK    4  A    between atoms: C_16  and  N_10 
REMARK    5  A    between atoms: C_17  and  C_16 
ROOT
ATOM      1  C   UNL d   1     -41.669-122.381 -51.403  0.00  0.00     0.167 A 
ATOM      2  N   UNL d   1     -41.532-122.469 -52.217  0.00  0.00    -0.195 N 
ATOM      3  N   UNL d   1     -41.567-121.655 -51.058  0.00  0.00    -0.231 NA
ATOM      4  C   UNL d   1     -41.901-123.013 -50.967  0.00  0.00     0.057 A 
ATOM      5  C   UNL d   1     -41.300-121.827 -52.646  0.00  0.00     0.167 A 
ATOM      6  N   UNL d   1     -41.865-123.817 -52.122  0.00  0.00    -0.161 NA
ATOM      7  C   UNL d   1     -41.196-121.098 -52.304  0.00  0.00     0.054 A 
ATOM      8  C   UNL d   1     -41.332-121.010 -51.495  0.00  0.00     0.063 A 
ATOM      9  C   UNL d   1     -41.998-123.731 -51.326  0.00  0.00     0.124 A 
ENDROOT
BRANCH   5  10
ATOM     10  N   UNL d   1     -41.160-121.917 -53.476  0.00  0.00    -0.224 NA
BRANCH  10  11
ATOM     11  C   UNL d   1     -41.327-121.556 -54.218  0.00  0.00     0.120 C 
BRANCH  11  12
ATOM     12  C   UNL d   1     -41.792-121.950 -54.792  0.00  0.00     0.101 A 
ATOM     13  N   UNL d   1     -41.521-122.681 -55.131  0.00  0.00    -0.242 NA
ATOM     14  C   UNL d   1     -41.995-123.074 -55.710  0.00  0.00     0.099 A 
ATOM     15  C   UNL d   1     -42.735-122.743 -55.952  0.00  0.00     0.021 A 
ATOM     16  C   UNL d   1     -43.001-122.008 -55.607  0.00  0.00     0.003 A 
ATOM     17  C   UNL d   1     -42.530-121.621 -55.034  0.00  0.00     0.021 A 
ENDBRANCH  11  12
ENDBRANCH  10  11
ENDBRANCH   5  10
BRANCH   8  18
ATOM     18  C   UNL d   1     -41.227-120.253 -51.126  0.00  0.00     0.036 C 
ATOM     19  C   UNL d   1     -41.123-119.505 -50.756  0.00  0.00     0.006 C 
ATOM     20  C   UNL d   1     -41.227-119.549 -51.598  0.00  0.00     0.006 C 
ATOM     21  C   UNL d   1     -41.123-120.210 -50.282  0.00  0.00     0.006 C 
ENDBRANCH   8  18
BRANCH   4  22
ATOM     22  C   UNL d   1     -42.034-122.927 -50.171  0.00  0.00     0.005 A 
ATOM     23  C   UNL d   1     -41.441-123.088 -49.632  0.00  0.00     0.001 A 
ATOM     24  C   UNL d   1     -41.573-123.003 -48.849  0.00  0.00     0.011 A 
ATOM     25  C   UNL d   1     -42.304-122.754 -48.569  0.00  0.00     0.058 A 
ATOM     26  C   UNL d   1     -42.891-122.594 -49.092  0.00  0.00     0.011 A 
ATOM     27 CL   UNL d   1     -42.442-122.664 -47.744  0.00  0.00    -0.082 Cl
ATOM     28  C   UNL d   1     -42.755-122.681 -49.897  0.00  0.00     0.001 A 
ENDBRANCH   4  22
TORSDOF 5
ENDMDL
