MODEL 1
REMARK VINA RESULT:      69.4      0.000      0.000
REMARK  5 active torsions:
REMARK  status: ('A' for Active; 'I' for Inactive)
REMARK    1  A    between atoms: N_4  and  C_2 
REMARK    2  A    between atoms: C_11  and  C_3 
REMARK       I    between atoms: C_8  and  N_4 
REMARK    3  A    between atoms: C_14  and  C_5 
REMARK    4  A    between atoms: C_7  and  C_8 
REMARK    5  A    between atoms: C_17  and  C_14 
ROOT
ATOM      1  C   UNL d   1     -55.475-101.231 -42.311  0.00  0.00     0.101 A 
ATOM      2  O   UNL d   1     -55.695-101.146 -41.515  0.00  0.00    -0.302 OA
ATOM      3  C   UNL d   1     -55.357-101.764 -41.092  0.00  0.00     0.158 A 
ATOM      4  C   UNL d   1     -55.003-101.901 -42.372  0.00  0.00     0.027 A 
ATOM      5  C   UNL d   1     -54.926-102.235 -41.622  0.00  0.00     0.032 A 
ENDROOT
BRANCH   3   6
ATOM      6  C   UNL d   1     -55.432-101.894 -40.280  0.00  0.00     0.304 C 
ATOM      7  N   UNL d   1     -54.840-101.639 -39.766  0.00  0.00    -0.180 NA
ATOM      8  O   UNL d   1     -56.096-102.278 -39.989  0.00  0.00    -0.263 OA
BRANCH   7   9
ATOM      9  C   UNL d   1     -54.912-101.768 -38.956  0.00  0.00     0.216 A 
ATOM     10  N   UNL d   1     -54.743-101.226 -38.363  0.00  0.00    -0.200 NA
ATOM     11  C   UNL d   1     -54.894-101.587 -37.638  0.00  0.00     0.175 A 
ATOM     12  N   UNL d   1     -55.158-102.355 -37.785  0.00  0.00    -0.187 NA
ATOM     13  S   UNL d   1     -55.168-102.466 -38.606  0.00  0.00     0.054 SA
BRANCH  11  14
ATOM     14  C   UNL d   1     -54.800-101.245 -36.893  0.00  0.00     0.082 C 
BRANCH  14  15
ATOM     15  C   UNL d   1     -55.166-101.586 -36.236  0.00  0.00     0.199 C 
ATOM     16  O   UNL d   1     -55.066-101.255 -35.491  0.00  0.00    -0.286 OA
ATOM     17  C   UNL d   1     -55.633-102.261 -36.327  0.00  0.00     0.045 C 
ENDBRANCH  14  15
ENDBRANCH  11  14
ENDBRANCH   7   9
ENDBRANCH   3   6
BRANCH   1  18
ATOM     18  C   UNL d   1     -55.692-100.731 -42.931  0.00  0.00     0.033 A 
ATOM     19  C   UNL d   1     -55.460-100.905 -43.703  0.00  0.00     0.060 A 
ATOM     20 CL   UNL d   1     -55.010-101.580 -43.859  0.00  0.00    -0.082 Cl
ATOM     21  C   UNL d   1     -55.675-100.410 -44.323  0.00  0.00     0.011 A 
ATOM     22  C   UNL d   1     -56.128 -99.730 -44.172  0.00  0.00     0.001 A 
ATOM     23  C   UNL d   1     -56.360 -99.554 -43.403  0.00  0.00     0.000 A 
ATOM     24  C   UNL d   1     -56.145-100.050 -42.780  0.00  0.00     0.003 A 
ENDBRANCH   1  18
TORSDOF 5
ENDMDL
