MODEL 1
REMARK VINA RESULT:      50.0      0.000      0.000
REMARK  4 active torsions:
REMARK  status: ('A' for Active; 'I' for Inactive)
REMARK    1  A    between atoms: N_8  and  C_2 
REMARK    2  A    between atoms: C_9  and  C_3 
REMARK    3  A    between atoms: C_7  and  N_10 
REMARK    4  A    between atoms: N_10  and  N_8 
ROOT
ATOM      1  N   UNL d   1      59.907  48.567  50.600  0.00  0.00    -0.219 NA
ATOM      2  C   UNL d   1      59.776  49.319  50.886  0.00  0.00     0.215 A 
ATOM      3  C   UNL d   1      60.730  48.425  50.684  0.00  0.00     0.090 A 
ATOM      4  S   UNL d   1      60.494  49.639  51.141  0.00  0.00    -0.045 SA
ATOM      5  C   UNL d   1      61.072  49.089  51.015  0.00  0.00     0.058 A 
ENDROOT
BRANCH   2   6
ATOM      6  N   UNL d   1      59.050  49.707  50.920  0.00  0.00    -0.120 NA
BRANCH   6   7
ATOM      7  N   UNL d   1      58.368  49.283  51.055  0.00  0.00    -0.127 NA
BRANCH   7   8
ATOM      8  C   UNL d   1      57.700  49.415  50.579  0.00  0.00     0.184 A 
ATOM      9  N   UNL d   1      57.888  49.483  49.785  0.00  0.00    -0.224 NA
ATOM     10  C   UNL d   1      57.410  49.612  49.140  0.00  0.00     0.101 A 
ATOM     11  C   UNL d   1      56.604  49.708  49.119  0.00  0.00     0.021 A 
ATOM     12  C   UNL d   1      56.066  49.698  49.754  0.00  0.00     0.002 A 
ATOM     13  C   UNL d   1      56.213  49.592  50.543  0.00  0.00     0.003 A 
ATOM     14  C   UNL d   1      56.951  49.462  50.930  0.00  0.00     0.041 A 
ENDBRANCH   7   8
ENDBRANCH   6   7
ENDBRANCH   2   6
BRANCH   3  15
ATOM     15  C   UNL d   1      61.089  47.707  50.451  0.00  0.00     0.018 A 
ATOM     16  C   UNL d   1      60.908  47.000  50.815  0.00  0.00     0.002 A 
ATOM     17  C   UNL d   1      61.270  46.301  50.574  0.00  0.00     0.011 A 
ATOM     18  C   UNL d   1      61.821  46.314  49.961  0.00  0.00     0.058 A 
ATOM     19  C   UNL d   1      62.016  47.017  49.584  0.00  0.00     0.011 A 
ATOM     20 CL   UNL d   1      62.181  45.596  49.728  0.00  0.00    -0.082 Cl
ATOM     21  C   UNL d   1      61.651  47.724  49.825  0.00  0.00     0.002 A 
ENDBRANCH   3  15
TORSDOF 4
ENDMDL
MODEL 2
REMARK VINA RESULT:      50.7      1.824      4.500
REMARK  4 active torsions:
REMARK  status: ('A' for Active; 'I' for Inactive)
REMARK    1  A    between atoms: N_8  and  C_2 
REMARK    2  A    between atoms: C_9  and  C_3 
REMARK    3  A    between atoms: C_7  and  N_10 
REMARK    4  A    between atoms: N_10  and  N_8 
ROOT
ATOM      1  N   UNL d   1      59.661  49.136  50.239  0.00  0.00    -0.219 NA
ATOM      2  C   UNL d   1      60.277  49.179  50.771  0.00  0.00     0.215 A 
ATOM      3  C   UNL d   1      58.995  49.467  50.628  0.00  0.00     0.090 A 
ATOM      4  S   UNL d   1      60.007  49.524  51.471  0.00  0.00    -0.045 SA
ATOM      5  C   UNL d   1      59.224  49.698  51.377  0.00  0.00     0.058 A 
ENDROOT
BRANCH   2   6
ATOM      6  N   UNL d   1      61.049  48.921  50.642  0.00  0.00    -0.120 NA
BRANCH   6   7
ATOM      7  N   UNL d   1      61.333  48.269  51.038  0.00  0.00    -0.127 NA
BRANCH   7   8
ATOM      8  C   UNL d   1      61.392  47.540  50.644  0.00  0.00     0.184 A 
ATOM      9  N   UNL d   1      61.981  47.536  50.076  0.00  0.00    -0.224 NA
ATOM     10  C   UNL d   1      62.222  46.945  49.571  0.00  0.00     0.101 A 
ATOM     11  C   UNL d   1      61.931  46.191  49.501  0.00  0.00     0.021 A 
ATOM     12  C   UNL d   1      61.314  45.834  49.929  0.00  0.00     0.002 A 
ATOM     13  C   UNL d   1      60.854  46.147  50.516  0.00  0.00     0.003 A 
ATOM     14  C   UNL d   1      60.880  46.922  50.850  0.00  0.00     0.041 A 
ENDBRANCH   7   8
ENDBRANCH   6   7
ENDBRANCH   2   6
BRANCH   3  15
ATOM     15  C   UNL d   1      58.245  49.526  50.263  0.00  0.00     0.018 A 
ATOM     16  C   UNL d   1      57.556  49.517  50.699  0.00  0.00     0.002 A 
ATOM     17  C   UNL d   1      56.824  49.577  50.326  0.00  0.00     0.011 A 
ATOM     18  C   UNL d   1      56.786  49.645  49.504  0.00  0.00     0.058 A 
ATOM     19  C   UNL d   1      57.470  49.655  49.050  0.00  0.00     0.011 A 
ATOM     20 CL   UNL d   1      56.036  49.704  49.140  0.00  0.00    -0.082 Cl
ATOM     21  C   UNL d   1      58.210  49.596  49.426  0.00  0.00     0.002 A 
ENDBRANCH   3  15
TORSDOF 4
ENDMDL
