MODEL 1
REMARK VINA RESULT:       1.9      0.000      0.000
REMARK  5 active torsions:
REMARK  status: ('A' for Active; 'I' for Inactive)
REMARK    1  A    between atoms: S_2  and  C_1 
REMARK    2  A    between atoms: N_3  and  C_1 
REMARK    3  A    between atoms: C_4  and  C_1 
REMARK    4  A    between atoms: C_6  and  S_2 
REMARK       I    between atoms: C_5  and  N_3 
REMARK    5  A    between atoms: C_9  and  C_5 
ROOT
ATOM      1  C   UNL d   1     -41.871-122.265 -51.098  0.00  0.00     0.193 C 
ENDROOT
BRANCH   1   2
ATOM      2  S   UNL d   1     -41.862-122.612 -50.374  0.00  0.00     0.228 S 
ATOM      3  O   UNL d   1     -42.528-123.067 -50.563  0.00  0.00    -0.216 OA
ATOM      4  O   UNL d   1     -41.275-122.210 -50.208  0.00  0.00    -0.216 OA
BRANCH   2   5
ATOM      5  C   UNL d   1     -41.826-122.894 -49.738  0.00  0.00     0.090 A 
ATOM      6  C   UNL d   1     -41.196-123.420 -49.511  0.00  0.00     0.012 A 
ATOM      7  C   UNL d   1     -41.171-123.754 -48.725  0.00  0.00     0.012 A 
ATOM      8  C   UNL d   1     -41.777-123.560 -48.170  0.00  0.00     0.058 A 
ATOM      9  C   UNL d   1     -42.397-123.045 -48.385  0.00  0.00     0.012 A 
ATOM     10 CL   UNL d   1     -41.736-123.817 -47.601  0.00  0.00    -0.082 Cl
ATOM     11  C   UNL d   1     -42.422-122.711 -49.172  0.00  0.00     0.012 A 
ENDBRANCH   2   5
ENDBRANCH   1   2
BRANCH   1  12
ATOM     12  N   UNL d   1     -41.541-122.675 -51.768  0.00  0.00    -0.195 NA
ATOM     13  C   UNL d   1     -41.843-122.591 -52.564  0.00  0.00     0.280 C 
ATOM     14  O   UNL d   1     -42.526-122.056 -52.696  0.00  0.00    -0.265 OA
BRANCH  13  15
ATOM     15  C   UNL d   1     -41.643-122.885 -53.192  0.00  0.00     0.058 A 
ATOM     16  C   UNL d   1     -41.811-122.363 -53.807  0.00  0.00     0.005 A 
ATOM     17  C   UNL d   1     -41.637-122.563 -54.585  0.00  0.00     0.000 A 
ATOM     18  C   UNL d   1     -41.291-123.295 -54.742  0.00  0.00     0.000 A 
ATOM     19  C   UNL d   1     -41.123-123.818 -54.127  0.00  0.00     0.000 A 
ATOM     20  C   UNL d   1     -41.183-123.392 -55.339  0.00  0.00     0.000 C 
ATOM     21  C   UNL d   1     -41.300-123.609 -53.355  0.00  0.00     0.005 A 
ENDBRANCH  13  15
ENDBRANCH   1  12
BRANCH   1  22
ATOM     22  C   UNL d   1     -42.207-121.511 -51.163  0.00  0.00     0.144 C 
ATOM     23 CL   UNL d   1     -41.706-120.810 -51.043  0.00  0.00    -0.068 Cl
ATOM     24 CL   UNL d   1     -43.028-121.396 -51.345  0.00  0.00    -0.068 Cl
ENDBRANCH   1  22
TORSDOF 5
ENDMDL
