MODEL 1
REMARK VINA RESULT:      -8.3      0.000      0.000
REMARK  4 active torsions:
REMARK  status: ('A' for Active; 'I' for Inactive)
REMARK    1  A    between atoms: N_2  and  C_1 
REMARK    2  A    between atoms: C_3  and  C_1 
REMARK       I    between atoms: C_6  and  N_2 
REMARK       I    between atoms: N_8  and  C_6 
REMARK    3  A    between atoms: N_11  and  C_7 
REMARK    4  A    between atoms: C_9  and  N_8 
ROOT
ATOM      1  N   UNL d   1     -46.391  12.348  23.139  0.00  0.00    -0.159 NA
ATOM      2  C   UNL d   1     -47.188  12.206  22.981  0.00  0.00     0.370 C 
ATOM      3  N   UNL d   1     -47.762  12.603  23.409  0.00  0.00    -0.172 NA
ATOM      4  O   UNL d   1     -47.406  11.668  22.395  0.00  0.00    -0.243 OA
ENDROOT
BRANCH   1   5
ATOM      5  C   UNL d   1     -45.602  12.203  22.985  0.00  0.00     0.386 A 
ATOM      6  O   UNL d   1     -45.787  11.493  23.363  0.00  0.00    -0.283 OA
ATOM      7  C   UNL d   1     -45.111  11.022  23.390  0.00  0.00     0.121 A 
ATOM      8  C   UNL d   1     -44.973  10.270  23.698  0.00  0.00     0.026 A 
ATOM      9  C   UNL d   1     -44.499  11.444  23.025  0.00  0.00     0.121 A 
ATOM     10  C   UNL d   1     -44.224   9.939  23.641  0.00  0.00     0.002 A 
ATOM     11  C   UNL d   1     -43.606  10.357  23.275  0.00  0.00     0.002 A 
ATOM     12  C   UNL d   1     -43.751  11.108  22.970  0.00  0.00     0.026 A 
ATOM     13  O   UNL d   1     -44.801  12.164  22.778  0.00  0.00    -0.283 OA
BRANCH   5  14
ATOM     14  C   UNL d   1     -45.531  12.941  22.625  0.00  0.00     0.470 C 
ATOM     15  F   UNL d   1     -45.393  13.710  22.979  0.00  0.00    -0.164 F 
ATOM     16  F   UNL d   1     -45.577  13.141  21.783  0.00  0.00    -0.164 F 
ATOM     17  F   UNL d   1     -45.467  13.612  22.290  0.00  0.00    -0.164 F 
ENDBRANCH   5  14
ENDBRANCH   1   5
BRANCH   3  18
ATOM     18  C   UNL d   1     -48.593  12.604  23.406  0.00  0.00     0.172 A 
ATOM     19  C   UNL d   1     -48.998  13.255  23.118  0.00  0.00     0.076 A 
ATOM     20  C   UNL d   1     -49.823  13.262  23.112  0.00  0.00     0.153 A 
ATOM     21  N   UNL d   1     -50.241  12.599  23.403  0.00  0.00    -0.206 NA
ATOM     22  C   UNL d   1     -49.827  11.947  23.691  0.00  0.00     0.202 A 
ATOM     23  N   UNL d   1     -49.004  11.943  23.696  0.00  0.00    -0.205 NA
BRANCH  20  24
ATOM     24  N   UNL d   1     -50.237  13.914  22.824  0.00  0.00    -0.285 N 
ATOM     25  C   UNL d   1     -50.618  13.868  22.098  0.00  0.00     0.108 A 
ATOM     26  C   UNL d   1     -51.029  14.528  21.819  0.00  0.00     0.142 A 
ATOM     27  O   UNL d   1     -51.060  15.222  22.257  0.00  0.00    -0.300 OA
ATOM     28  C   UNL d   1     -50.675  15.260  22.984  0.00  0.00     0.142 A 
ATOM     29  C   UNL d   1     -50.261  14.608  23.274  0.00  0.00     0.108 A 
ENDBRANCH  20  24
ENDBRANCH   3  18
TORSDOF 4
ENDMDL
MODEL 2
REMARK VINA RESULT:      -7.6      1.709      5.430
REMARK  4 active torsions:
REMARK  status: ('A' for Active; 'I' for Inactive)
REMARK    1  A    between atoms: N_2  and  C_1 
REMARK    2  A    between atoms: C_3  and  C_1 
REMARK       I    between atoms: C_6  and  N_2 
REMARK       I    between atoms: N_8  and  C_6 
REMARK    3  A    between atoms: N_11  and  C_7 
REMARK    4  A    between atoms: C_9  and  N_8 
ROOT
ATOM      1  N   UNL d   1     -47.721  13.842  22.773  0.00  0.00    -0.159 NA
ATOM      2  C   UNL d   1     -47.114  13.411  22.418  0.00  0.00     0.370 C 
ATOM      3  N   UNL d   1     -46.363  13.425  22.745  0.00  0.00    -0.172 NA
ATOM      4  O   UNL d   1     -47.261  12.968  21.738  0.00  0.00    -0.243 OA
ENDROOT
BRANCH   1   5
ATOM      5  C   UNL d   1     -48.501  14.082  22.792  0.00  0.00     0.386 A 
ATOM      6  O   UNL d   1     -48.613  13.283  22.964  0.00  0.00    -0.283 OA
ATOM      7  C   UNL d   1     -49.420  13.143  23.062  0.00  0.00     0.121 A 
ATOM      8  C   UNL d   1     -49.846  12.460  23.239  0.00  0.00     0.026 A 
ATOM      9  C   UNL d   1     -49.813  13.863  22.949  0.00  0.00     0.121 A 
ATOM     10  C   UNL d   1     -50.664  12.495  23.302  0.00  0.00     0.002 A 
ATOM     11  C   UNL d   1     -51.063  13.215  23.189  0.00  0.00     0.002 A 
ATOM     12  C   UNL d   1     -50.631  13.894  23.014  0.00  0.00     0.026 A 
ATOM     13  O   UNL d   1     -49.250  14.436  22.784  0.00  0.00    -0.283 OA
BRANCH   5  14
ATOM     14  C   UNL d   1     -48.272  14.854  22.614  0.00  0.00     0.470 C 
ATOM     15  F   UNL d   1     -47.893  15.439  23.113  0.00  0.00    -0.164 F 
ATOM     16  F   UNL d   1     -48.355  15.287  21.868  0.00  0.00    -0.164 F 
ATOM     17  F   UNL d   1     -48.067  15.558  22.446  0.00  0.00    -0.164 F 
ENDBRANCH   5  14
ENDBRANCH   1   5
BRANCH   3  18
ATOM     18  C   UNL d   1     -45.637  13.073  22.548  0.00  0.00     0.172 A 
ATOM     19  C   UNL d   1     -45.428  12.356  22.885  0.00  0.00     0.076 A 
ATOM     20  C   UNL d   1     -44.707  12.001  22.694  0.00  0.00     0.153 A 
ATOM     21  N   UNL d   1     -44.194  12.379  22.154  0.00  0.00    -0.206 NA
ATOM     22  C   UNL d   1     -44.411  13.101  21.818  0.00  0.00     0.202 A 
ATOM     23  N   UNL d   1     -45.130  13.452  22.011  0.00  0.00    -0.205 NA
BRANCH  20  24
ATOM     24  N   UNL d   1     -44.491  11.279  23.030  0.00  0.00    -0.285 N 
ATOM     25  C   UNL d   1     -45.069  10.775  23.323  0.00  0.00     0.108 A 
ATOM     26  C   UNL d   1     -44.840  10.056  23.657  0.00  0.00     0.142 A 
ATOM     27  O   UNL d   1     -44.048   9.842  23.698  0.00  0.00    -0.300 OA
ATOM     28  C   UNL d   1     -43.475  10.353  23.401  0.00  0.00     0.142 A 
ATOM     29  C   UNL d   1     -43.690  11.075  23.065  0.00  0.00     0.108 A 
ENDBRANCH  20  24
ENDBRANCH   3  18
TORSDOF 4
ENDMDL
MODEL 3
REMARK VINA RESULT:      -6.8      1.873      5.676
REMARK  4 active torsions:
REMARK  status: ('A' for Active; 'I' for Inactive)
REMARK    1  A    between atoms: N_2  and  C_1 
REMARK    2  A    between atoms: C_3  and  C_1 
REMARK       I    between atoms: C_6  and  N_2 
REMARK       I    between atoms: N_8  and  C_6 
REMARK    3  A    between atoms: N_11  and  C_7 
REMARK    4  A    between atoms: C_9  and  N_8 
ROOT
ATOM      1  N   UNL d   1     -48.271  13.142  22.717  0.00  0.00    -0.159 NA
ATOM      2  C   UNL d   1     -47.462  13.167  22.876  0.00  0.00     0.370 C 
ATOM      3  N   UNL d   1     -46.937  12.810  22.359  0.00  0.00    -0.172 NA
ATOM      4  O   UNL d   1     -47.182  13.550  23.551  0.00  0.00    -0.243 OA
ENDROOT
BRANCH   1   5
ATOM      5  C   UNL d   1     -49.038  13.332  22.922  0.00  0.00     0.386 A 
ATOM      6  O   UNL d   1     -48.710  14.089  22.957  0.00  0.00    -0.283 OA
ATOM      7  C   UNL d   1     -49.299  14.624  23.171  0.00  0.00     0.121 A 
ATOM      8  C   UNL d   1     -49.289  15.440  23.287  0.00  0.00     0.026 A 
ATOM      9  C   UNL d   1     -50.001  14.196  23.270  0.00  0.00     0.121 A 
ATOM     10  C   UNL d   1     -49.979  15.829  23.503  0.00  0.00     0.002 A 
ATOM     11  C   UNL d   1     -50.687  15.404  23.604  0.00  0.00     0.002 A 
ATOM     12  C   UNL d   1     -50.689  14.590  23.486  0.00  0.00     0.026 A 
ATOM     13  O   UNL d   1     -49.840  13.407  23.118  0.00  0.00    -0.283 OA
BRANCH   5  14
ATOM     14  C   UNL d   1     -49.257  12.540  22.857  0.00  0.00     0.470 C 
ATOM     15  F   UNL d   1     -49.228  11.916  23.444  0.00  0.00    -0.164 F 
ATOM     16  F   UNL d   1     -49.579  12.120  22.170  0.00  0.00    -0.164 F 
ATOM     17  F   UNL d   1     -49.459  11.818  22.790  0.00  0.00    -0.164 F 
ENDBRANCH   5  14
ENDBRANCH   1   5
BRANCH   3  18
ATOM     18  C   UNL d   1     -46.111  12.724  22.336  0.00  0.00     0.172 A 
ATOM     19  C   UNL d   1     -45.760  12.071  22.682  0.00  0.00     0.076 A 
ATOM     20  C   UNL d   1     -44.940  11.980  22.662  0.00  0.00     0.153 A 
ATOM     21  N   UNL d   1     -44.472  12.561  22.286  0.00  0.00    -0.206 NA
ATOM     22  C   UNL d   1     -44.831  13.217  21.940  0.00  0.00     0.202 A 
ATOM     23  N   UNL d   1     -45.650  13.305  21.961  0.00  0.00    -0.205 NA
BRANCH  20  24
ATOM     24  N   UNL d   1     -44.580  11.324  23.009  0.00  0.00    -0.285 N 
ATOM     25  C   UNL d   1     -45.042  10.737  23.350  0.00  0.00     0.108 A 
ATOM     26  C   UNL d   1     -44.670  10.085  23.694  0.00  0.00     0.142 A 
ATOM     27  O   UNL d   1     -43.852  10.018  23.698  0.00  0.00    -0.300 OA
ATOM     28  C   UNL d   1     -43.396  10.611  23.353  0.00  0.00     0.142 A 
ATOM     29  C   UNL d   1     -43.754  11.268  23.007  0.00  0.00     0.108 A 
ENDBRANCH  20  24
ENDBRANCH   3  18
TORSDOF 4
ENDMDL
MODEL 4
REMARK VINA RESULT:      -6.5      1.941      5.595
REMARK  4 active torsions:
REMARK  status: ('A' for Active; 'I' for Inactive)
REMARK    1  A    between atoms: N_2  and  C_1 
REMARK    2  A    between atoms: C_3  and  C_1 
REMARK       I    between atoms: C_6  and  N_2 
REMARK       I    between atoms: N_8  and  C_6 
REMARK    3  A    between atoms: N_11  and  C_7 
REMARK    4  A    between atoms: C_9  and  N_8 
ROOT
ATOM      1  N   UNL d   1     -48.725  13.325  22.475  0.00  0.00    -0.159 NA
ATOM      2  C   UNL d   1     -48.166  12.891  22.899  0.00  0.00     0.370 C 
ATOM      3  N   UNL d   1     -47.427  12.756  22.574  0.00  0.00    -0.172 NA
ATOM      4  O   UNL d   1     -48.350  12.595  23.647  0.00  0.00    -0.243 OA
ENDROOT
BRANCH   1   5
ATOM      5  C   UNL d   1     -49.470  13.652  22.417  0.00  0.00     0.386 A 
ATOM      6  O   UNL d   1     -49.137  14.195  22.943  0.00  0.00    -0.283 OA
ATOM      7  C   UNL d   1     -49.703  14.764  23.131  0.00  0.00     0.121 A 
ATOM      8  C   UNL d   1     -49.680  15.427  23.621  0.00  0.00     0.026 A 
ATOM      9  C   UNL d   1     -50.395  14.574  22.718  0.00  0.00     0.121 A 
ATOM     10  C   UNL d   1     -50.347  15.899  23.698  0.00  0.00     0.002 A 
ATOM     11  C   UNL d   1     -51.044  15.713  23.285  0.00  0.00     0.002 A 
ATOM     12  C   UNL d   1     -51.060  15.050  22.798  0.00  0.00     0.026 A 
ATOM     13  O   UNL d   1     -50.251  13.895  22.282  0.00  0.00    -0.283 OA
BRANCH   5  14
ATOM     14  C   UNL d   1     -49.697  13.056  21.894  0.00  0.00     0.470 C 
ATOM     15  F   UNL d   1     -50.092  12.313  22.053  0.00  0.00    -0.164 F 
ATOM     16  F   UNL d   1     -49.595  13.021  21.034  0.00  0.00    -0.164 F 
ATOM     17  F   UNL d   1     -49.901  12.517  21.412  0.00  0.00    -0.164 F 
ENDBRANCH   5  14
ENDBRANCH   1   5
BRANCH   3  18
ATOM     18  C   UNL d   1     -46.744  12.357  22.828  0.00  0.00     0.172 A 
ATOM     19  C   UNL d   1     -46.025  12.509  22.466  0.00  0.00     0.076 A 
ATOM     20  C   UNL d   1     -45.343  12.115  22.714  0.00  0.00     0.153 A 
ATOM     21  N   UNL d   1     -45.393  11.561  23.337  0.00  0.00    -0.206 NA
ATOM     22  C   UNL d   1     -46.120  11.413  23.698  0.00  0.00     0.202 A 
ATOM     23  N   UNL d   1     -46.798  11.807  23.448  0.00  0.00    -0.205 NA
BRANCH  20  24
ATOM     24  N   UNL d   1     -44.616  12.263  22.354  0.00  0.00    -0.285 N 
ATOM     25  C   UNL d   1     -44.549  12.870  21.804  0.00  0.00     0.108 A 
ATOM     26  C   UNL d   1     -43.816  13.009  21.450  0.00  0.00     0.142 A 
ATOM     27  O   UNL d   1     -43.161  12.551  21.640  0.00  0.00    -0.300 OA
ATOM     28  C   UNL d   1     -43.238  11.945  22.192  0.00  0.00     0.142 A 
ATOM     29  C   UNL d   1     -43.964  11.795  22.553  0.00  0.00     0.108 A 
ENDBRANCH  20  24
ENDBRANCH   3  18
TORSDOF 4
ENDMDL
MODEL 5
REMARK VINA RESULT:      -6.0      8.329      9.815
REMARK  4 active torsions:
REMARK  status: ('A' for Active; 'I' for Inactive)
REMARK    1  A    between atoms: N_2  and  C_1 
REMARK    2  A    between atoms: C_3  and  C_1 
REMARK       I    between atoms: C_6  and  N_2 
REMARK       I    between atoms: N_8  and  C_6 
REMARK    3  A    between atoms: N_11  and  C_7 
REMARK    4  A    between atoms: C_9  and  N_8 
ROOT
ATOM      1  N   UNL d   1     -40.123  14.783  18.082  0.00  0.00    -0.159 NA
ATOM      2  C   UNL d   1     -39.916  15.111  18.811  0.00  0.00     0.370 C 
ATOM      3  N   UNL d   1     -40.347  14.915  19.479  0.00  0.00    -0.172 NA
ATOM      4  O   UNL d   1     -39.279  15.632  18.867  0.00  0.00    -0.243 OA
ENDROOT
BRANCH   1   5
ATOM      5  C   UNL d   1     -39.995  14.706  17.280  0.00  0.00     0.386 A 
ATOM      6  O   UNL d   1     -39.347  14.272  17.551  0.00  0.00    -0.283 OA
ATOM      7  C   UNL d   1     -38.922  13.996  16.900  0.00  0.00     0.121 A 
ATOM      8  C   UNL d   1     -38.237  13.540  16.840  0.00  0.00     0.026 A 
ATOM      9  C   UNL d   1     -39.310  14.260  16.219  0.00  0.00     0.121 A 
ATOM     10  C   UNL d   1     -37.940  13.350  16.099  0.00  0.00     0.002 A 
ATOM     11  C   UNL d   1     -38.325  13.613  15.411  0.00  0.00     0.002 A 
ATOM     12  C   UNL d   1     -39.009  14.067  15.479  0.00  0.00     0.026 A 
ATOM     13  O   UNL d   1     -39.965  14.694  16.452  0.00  0.00    -0.283 OA
BRANCH   5  14
ATOM     14  C   UNL d   1     -40.669  15.156  17.124  0.00  0.00     0.470 C 
ATOM     15  F   UNL d   1     -41.489  14.993  17.313  0.00  0.00    -0.164 F 
ATOM     16  F   UNL d   1     -40.729  15.922  16.723  0.00  0.00    -0.164 F 
ATOM     17  F   UNL d   1     -41.278  15.571  16.979  0.00  0.00    -0.164 F 
ENDBRANCH   5  14
ENDBRANCH   1   5
BRANCH   3  18
ATOM     18  C   UNL d   1     -40.305  15.128  20.281  0.00  0.00     0.172 A 
ATOM     19  C   UNL d   1     -39.762  14.760  20.771  0.00  0.00     0.076 A 
ATOM     20  C   UNL d   1     -39.715  14.967  21.569  0.00  0.00     0.153 A 
ATOM     21  N   UNL d   1     -40.226  15.555  21.871  0.00  0.00    -0.206 NA
ATOM     22  C   UNL d   1     -40.770  15.922  21.372  0.00  0.00     0.202 A 
ATOM     23  N   UNL d   1     -40.815  15.713  20.577  0.00  0.00    -0.205 NA
BRANCH  20  24
ATOM     24  N   UNL d   1     -39.170  14.600  22.068  0.00  0.00    -0.285 N 
ATOM     25  C   UNL d   1     -39.212  13.789  22.194  0.00  0.00     0.108 A 
ATOM     26  C   UNL d   1     -38.662  13.433  22.696  0.00  0.00     0.142 A 
ATOM     27  O   UNL d   1     -38.079  13.877  23.066  0.00  0.00    -0.300 OA
ATOM     28  C   UNL d   1     -38.043  14.689  22.935  0.00  0.00     0.142 A 
ATOM     29  C   UNL d   1     -38.587  15.057  22.436  0.00  0.00     0.108 A 
ENDBRANCH  20  24
ENDBRANCH   3  18
TORSDOF 4
ENDMDL
MODEL 6
REMARK VINA RESULT:      -5.6      2.551      5.707
REMARK  4 active torsions:
REMARK  status: ('A' for Active; 'I' for Inactive)
REMARK    1  A    between atoms: N_2  and  C_1 
REMARK    2  A    between atoms: C_3  and  C_1 
REMARK       I    between atoms: C_6  and  N_2 
REMARK       I    between atoms: N_8  and  C_6 
REMARK    3  A    between atoms: N_11  and  C_7 
REMARK    4  A    between atoms: C_9  and  N_8 
ROOT
ATOM      1  N   UNL d   1     -46.355  13.380  22.337  0.00  0.00    -0.159 NA
ATOM      2  C   UNL d   1     -45.620  13.034  22.480  0.00  0.00     0.370 C 
ATOM      3  N   UNL d   1     -45.031  13.087  21.914  0.00  0.00    -0.172 NA
ATOM      4  O   UNL d   1     -45.479  12.637  23.189  0.00  0.00    -0.243 OA
ENDROOT
BRANCH   1   5
ATOM      5  C   UNL d   1     -47.116  13.549  22.578  0.00  0.00     0.386 A 
ATOM      6  O   UNL d   1     -47.232  12.766  22.344  0.00  0.00    -0.283 OA
ATOM      7  C   UNL d   1     -48.022  12.565  22.468  0.00  0.00     0.121 A 
ATOM      8  C   UNL d   1     -48.443  11.869  22.337  0.00  0.00     0.026 A 
ATOM      9  C   UNL d   1     -48.401  13.230  22.783  0.00  0.00     0.121 A 
ATOM     10  C   UNL d   1     -49.243  11.836  22.520  0.00  0.00     0.002 A 
ATOM     11  C   UNL d   1     -49.629  12.501  22.836  0.00  0.00     0.002 A 
ATOM     12  C   UNL d   1     -49.202  13.193  22.964  0.00  0.00     0.026 A 
ATOM     13  O   UNL d   1     -47.847  13.830  22.849  0.00  0.00    -0.283 OA
BRANCH   5  14
ATOM     14  C   UNL d   1     -46.888  14.315  22.779  0.00  0.00     0.470 C 
ATOM     15  F   UNL d   1     -46.586  14.618  23.522  0.00  0.00    -0.164 F 
ATOM     16  F   UNL d   1     -46.891  15.029  22.287  0.00  0.00    -0.164 F 
ATOM     17  F   UNL d   1     -46.681  15.017  22.955  0.00  0.00    -0.164 F 
ENDBRANCH   5  14
ENDBRANCH   1   5
BRANCH   3  18
ATOM     18  C   UNL d   1     -44.247  12.816  21.864  0.00  0.00     0.172 A 
ATOM     19  C   UNL d   1     -43.681  13.277  21.493  0.00  0.00     0.076 A 
ATOM     20  C   UNL d   1     -42.900  13.014  21.440  0.00  0.00     0.153 A 
ATOM     21  N   UNL d   1     -42.694  12.273  21.768  0.00  0.00    -0.206 NA
ATOM     22  C   UNL d   1     -43.269  11.814  22.140  0.00  0.00     0.202 A 
ATOM     23  N   UNL d   1     -44.047  12.079  22.191  0.00  0.00    -0.205 NA
BRANCH  20  24
ATOM     24  N   UNL d   1     -42.325  13.473  21.068  0.00  0.00    -0.285 N 
ATOM     25  C   UNL d   1     -42.215  13.413  20.257  0.00  0.00     0.108 A 
ATOM     26  C   UNL d   1     -41.636  13.878  19.896  0.00  0.00     0.142 A 
ATOM     27  O   UNL d   1     -41.174  14.394  20.336  0.00  0.00    -0.300 OA
ATOM     28  C   UNL d   1     -41.290  14.448  21.150  0.00  0.00     0.142 A 
ATOM     29  C   UNL d   1     -41.865  13.989  21.523  0.00  0.00     0.108 A 
ENDBRANCH  20  24
ENDBRANCH   3  18
TORSDOF 4
ENDMDL
