MODEL 1
REMARK VINA RESULT:      93.4      0.000      0.000
REMARK  3 active torsions:
REMARK  status: ('A' for Active; 'I' for Inactive)
REMARK       I    between atoms: C_4  and  N_1 
REMARK    1  A    between atoms: C_7  and  C_3 
REMARK    2  A    between atoms: C_9  and  C_4 
REMARK    3  A    between atoms: C_8  and  C_5 
ROOT
ATOM      1  N   UNL d   1     -58.530 -99.691 -44.433  0.00  0.00    -0.191 N 
ATOM      2  N   UNL d   1     -57.914-100.108 -44.771  0.00  0.00    -0.163 NA
ATOM      3  C   UNL d   1     -58.398 -99.705 -43.600  0.00  0.00     0.110 A 
ATOM      4  C   UNL d   1     -59.150 -99.333 -44.814  0.00  0.00     0.303 C 
ATOM      5  C   UNL d   1     -57.407-100.378 -44.178  0.00  0.00     0.103 A 
ATOM      6  C   UNL d   1     -57.702-100.132 -43.465  0.00  0.00     0.042 A 
ATOM      7  O   UNL d   1     -59.748 -98.916 -44.341  0.00  0.00    -0.263 OA
ENDROOT
BRANCH   3   8
ATOM      8  C   UNL d   1     -58.880 -99.354 -43.028  0.00  0.00     0.118 A 
ATOM      9  O   UNL d   1     -59.680 -99.227 -43.101  0.00  0.00    -0.304 OA
ATOM     10  C   UNL d   1     -59.948 -98.860 -42.398  0.00  0.00     0.123 A 
ATOM     11  C   UNL d   1     -59.294 -98.769 -41.903  0.00  0.00     0.029 A 
ATOM     12  C   UNL d   1     -58.632 -99.082 -42.308  0.00  0.00     0.028 A 
ENDBRANCH   3   8
BRANCH   4  13
ATOM     13  C   UNL d   1     -59.232 -99.348 -45.626  0.00  0.00     0.158 A 
ATOM     14  O   UNL d   1     -59.578 -99.942 -46.075  0.00  0.00    -0.300 OA
ATOM     15  C   UNL d   1     -59.545 -99.735 -46.868  0.00  0.00     0.123 A 
ATOM     16  C   UNL d   1     -59.174 -99.003 -46.919  0.00  0.00     0.029 A 
ATOM     17  C   UNL d   1     -58.977 -98.757 -46.151  0.00  0.00     0.032 A 
ENDBRANCH   4  13
BRANCH   5  18
ATOM     18  C   UNL d   1     -56.717-100.824 -44.318  0.00  0.00     0.019 A 
ATOM     19  C   UNL d   1     -56.755-101.618 -44.219  0.00  0.00     0.002 A 
ATOM     20  C   UNL d   1     -56.092-102.090 -44.349  0.00  0.00     0.000 A 
ATOM     21  C   UNL d   1     -55.391-101.740 -44.582  0.00  0.00     0.000 A 
ATOM     22  C   UNL d   1     -55.334-100.915 -44.690  0.00  0.00     0.000 A 
ATOM     23  C   UNL d   1     -54.731-102.217 -44.710  0.00  0.00     0.000 C 
ATOM     24  C   UNL d   1     -56.026-100.447 -44.552  0.00  0.00     0.002 A 
ENDBRANCH   5  18
TORSDOF 3
ENDMDL
