MODEL 1
REMARK VINA RESULT:      38.3      0.000      0.000
REMARK  3 active torsions:
REMARK  status: ('A' for Active; 'I' for Inactive)
REMARK    1  A    between atoms: C_8  and  C_4 
REMARK    2  A    between atoms: N_5  and  C_7 
REMARK    3  A    between atoms: C_12  and  C_6 
ROOT
ATOM      1  O   UNL d   1     -51.620  25.742  33.540  0.00  0.00    -0.268 OA
ATOM      2  N   UNL d   1     -50.372  25.272  33.471  0.00  0.00    -0.121 NA
ATOM      3  N   UNL d   1     -50.886  24.631  33.401  0.00  0.00    -0.121 NA
ATOM      4  C   UNL d   1     -50.817  25.953  33.556  0.00  0.00     0.204 A 
ATOM      5  C   UNL d   1     -51.658  24.916  33.443  0.00  0.00     0.204 A 
ENDROOT
BRANCH   4   6
ATOM      6  C   UNL d   1     -50.529  26.725  33.644  0.00  0.00     0.045 A 
ATOM      7  C   UNL d   1     -49.835  26.861  34.067  0.00  0.00     0.027 A 
ATOM      8  C   UNL d   1     -49.552  27.628  34.152  0.00  0.00     0.127 A 
ATOM      9  C   UNL d   1     -49.962  28.262  33.814  0.00  0.00     0.024 A 
ATOM     10  C   UNL d   1     -50.654  28.128  33.392  0.00  0.00     0.002 A 
ATOM     11  C   UNL d   1     -50.939  27.359  33.306  0.00  0.00     0.004 A 
BRANCH   8  12
ATOM     12  N   UNL d   1     -48.851  27.760  34.580  0.00  0.00    -0.114 N 
ATOM     13  O   UNL d   1     -48.140  27.404  34.330  0.00  0.00    -0.532 OA
ATOM     14  O   UNL d   1     -48.854  28.240  35.252  0.00  0.00    -0.532 OA
ENDBRANCH   8  12
ENDBRANCH   4   6
BRANCH   5  15
ATOM     15  C   UNL d   1     -52.343  24.464  33.398  0.00  0.00     0.043 A 
ATOM     16  C   UNL d   1     -53.080  24.830  33.392  0.00  0.00     0.004 A 
ATOM     17  C   UNL d   1     -53.770  24.371  33.346  0.00  0.00     0.000 A 
ATOM     18  C   UNL d   1     -53.715  23.550  33.306  0.00  0.00     0.000 A 
ATOM     19  C   UNL d   1     -52.970  23.188  33.313  0.00  0.00     0.000 A 
ATOM     20  C   UNL d   1     -52.281  23.638  33.358  0.00  0.00     0.004 A 
ENDBRANCH   5  15
TORSDOF 3
ENDMDL
