MODEL 1
REMARK VINA RESULT:      -1.9      0.000      0.000
REMARK  6 active torsions:
REMARK  status: ('A' for Active; 'I' for Inactive)
REMARK    1  A    between atoms: C_5  and  N_1 
REMARK    2  A    between atoms: C_7  and  C_3 
REMARK    3  A    between atoms: C_12  and  C_4 
REMARK    4  A    between atoms: N_14  and  C_5 
REMARK    5  A    between atoms: O_16  and  C_9 
REMARK    6  A    between atoms: O_17  and  C_11 
ROOT
ATOM      1  N   UNL d   1      58.313  -0.261  30.088  0.00  0.00    -0.203 N 
ATOM      2  N   UNL d   1      57.870   0.125  30.670  0.00  0.00    -0.163 NA
ATOM      3  C   UNL d   1      58.264  -1.066  30.235  0.00  0.00     0.087 A 
ATOM      4  C   UNL d   1      57.556  -0.430  31.163  0.00  0.00     0.103 A 
ATOM      5  C   UNL d   1      57.795  -1.166  30.901  0.00  0.00     0.040 A 
ENDROOT
BRANCH   3   6
ATOM      6  C   UNL d   1      58.620  -1.679  29.799  0.00  0.00     0.020 A 
ATOM      7  C   UNL d   1      59.360  -1.958  29.976  0.00  0.00     0.028 A 
ATOM      8  C   UNL d   1      59.706  -2.560  29.545  0.00  0.00     0.116 A 
ATOM      9  C   UNL d   1      59.301  -2.889  28.925  0.00  0.00     0.116 A 
ATOM     10  C   UNL d   1      58.547  -2.617  28.730  0.00  0.00     0.026 A 
ATOM     11  C   UNL d   1      58.202  -2.015  29.162  0.00  0.00     0.004 A 
BRANCH   8  12
ATOM     12  O   UNL d   1      60.464  -2.849  29.722  0.00  0.00    -0.326 OA
ATOM     13  C   UNL d   1      60.916  -2.494  30.321  0.00  0.00     0.181 C 
ENDBRANCH   8  12
BRANCH   9  14
ATOM     14  O   UNL d   1      59.645  -3.508  28.474  0.00  0.00    -0.326 OA
ATOM     15  C   UNL d   1      59.401  -4.287  28.557  0.00  0.00     0.181 C 
ENDBRANCH   9  14
ENDBRANCH   3   6
BRANCH   1  16
ATOM     16  C   UNL d   1      58.729   0.113  29.470  0.00  0.00     0.222 C 
ATOM     17  S   UNL d   1      58.525  -0.017  28.670  0.00  0.00    -0.037 SA
BRANCH  16  18
ATOM     18  N   UNL d   1      59.370   0.637  29.641  0.00  0.00    -0.214 NA
ATOM     19  C   UNL d   1      60.011   0.682  29.101  0.00  0.00     0.122 C 
ENDBRANCH  16  18
ENDBRANCH   1  16
BRANCH   4  20
ATOM     20  C   UNL d   1      57.075  -0.237  31.815  0.00  0.00     0.019 A 
ATOM     21  C   UNL d   1      57.248   0.417  32.270  0.00  0.00     0.002 A 
ATOM     22  C   UNL d   1      56.776   0.627  32.930  0.00  0.00     0.000 A 
ATOM     23  C   UNL d   1      56.114   0.149  33.118  0.00  0.00     0.000 A 
ATOM     24  C   UNL d   1      55.950  -0.520  32.639  0.00  0.00     0.000 A 
ATOM     25  C   UNL d   1      56.420  -0.711  31.999  0.00  0.00     0.002 A 
ENDBRANCH   4  20
TORSDOF 6
ENDMDL
MODEL 2
REMARK VINA RESULT:       0.0      1.469      2.164
REMARK  6 active torsions:
REMARK  status: ('A' for Active; 'I' for Inactive)
REMARK    1  A    between atoms: C_5  and  N_1 
REMARK    2  A    between atoms: C_7  and  C_3 
REMARK    3  A    between atoms: C_12  and  C_4 
REMARK    4  A    between atoms: N_14  and  C_5 
REMARK    5  A    between atoms: O_16  and  C_9 
REMARK    6  A    between atoms: O_17  and  C_11 
ROOT
ATOM      1  N   UNL d   1      58.056   0.212  31.817  0.00  0.00    -0.203 N 
ATOM      2  N   UNL d   1      57.555   0.436  32.436  0.00  0.00    -0.163 NA
ATOM      3  C   UNL d   1      57.650  -0.334  31.359  0.00  0.00     0.087 A 
ATOM      4  C   UNL d   1      56.859   0.037  32.361  0.00  0.00     0.103 A 
ATOM      5  C   UNL d   1      56.910  -0.439  31.700  0.00  0.00     0.040 A 
ENDROOT
BRANCH   3   6
ATOM      6  C   UNL d   1      57.925  -0.719  30.675  0.00  0.00     0.020 A 
ATOM      7  C   UNL d   1      57.907  -0.362  29.947  0.00  0.00     0.028 A 
ATOM      8  C   UNL d   1      58.179  -0.744  29.276  0.00  0.00     0.116 A 
ATOM      9  C   UNL d   1      58.472  -1.496  29.338  0.00  0.00     0.116 A 
ATOM     10  C   UNL d   1      58.497  -1.874  30.070  0.00  0.00     0.026 A 
ATOM     11  C   UNL d   1      58.226  -1.492  30.740  0.00  0.00     0.004 A 
BRANCH   8  12
ATOM     12  O   UNL d   1      58.164  -0.383  28.528  0.00  0.00    -0.326 OA
ATOM     13  C   UNL d   1      57.967   0.420  28.457  0.00  0.00     0.181 C 
ENDBRANCH   8  12
BRANCH   9  14
ATOM     14  O   UNL d   1      58.754  -1.898  28.657  0.00  0.00    -0.326 OA
ATOM     15  C   UNL d   1      58.938  -2.698  28.675  0.00  0.00     0.181 C 
ENDBRANCH   9  14
ENDBRANCH   3   6
BRANCH   1  16
ATOM     16  C   UNL d   1      58.828   0.497  31.693  0.00  0.00     0.222 C 
ATOM     17  S   UNL d   1      59.105   0.678  30.925  0.00  0.00    -0.037 SA
BRANCH  16  18
ATOM     18  N   UNL d   1      59.352   0.611  32.346  0.00  0.00    -0.214 NA
ATOM     19  C   UNL d   1      60.180   0.557  32.215  0.00  0.00     0.122 C 
ENDBRANCH  16  18
ENDBRANCH   1  16
BRANCH   4  20
ATOM     20  C   UNL d   1      56.224   0.130  32.893  0.00  0.00     0.019 A 
ATOM     21  C   UNL d   1      55.576   0.577  32.683  0.00  0.00     0.002 A 
ATOM     22  C   UNL d   1      54.929   0.681  33.205  0.00  0.00     0.000 A 
ATOM     23  C   UNL d   1      54.957   0.313  33.957  0.00  0.00     0.000 A 
ATOM     24  C   UNL d   1      55.632  -0.145  34.158  0.00  0.00     0.000 A 
ATOM     25  C   UNL d   1      56.255  -0.236  33.637  0.00  0.00     0.002 A 
ENDBRANCH   4  20
TORSDOF 6
ENDMDL
MODEL 3
REMARK VINA RESULT:       0.6      1.793      4.265
REMARK  6 active torsions:
REMARK  status: ('A' for Active; 'I' for Inactive)
REMARK    1  A    between atoms: C_5  and  N_1 
REMARK    2  A    between atoms: C_7  and  C_3 
REMARK    3  A    between atoms: C_12  and  C_4 
REMARK    4  A    between atoms: N_14  and  C_5 
REMARK    5  A    between atoms: O_16  and  C_9 
REMARK    6  A    between atoms: O_17  and  C_11 
ROOT
ATOM      1  N   UNL d   1      58.719  -0.598  29.552  0.00  0.00    -0.203 N 
ATOM      2  N   UNL d   1      58.963  -1.219  29.064  0.00  0.00    -0.163 NA
ATOM      3  C   UNL d   1      58.436  -0.929  30.248  0.00  0.00     0.087 A 
ATOM      4  C   UNL d   1      58.833  -1.915  29.450  0.00  0.00     0.103 A 
ATOM      5  C   UNL d   1      58.509  -1.744  30.179  0.00  0.00     0.040 A 
ENDROOT
BRANCH   3   6
ATOM      6  C   UNL d   1      58.130  -0.526  30.908  0.00  0.00     0.020 A 
ATOM      7  C   UNL d   1      57.334  -0.411  31.008  0.00  0.00     0.028 A 
ATOM      8  C   UNL d   1      57.037  -0.013  31.658  0.00  0.00     0.116 A 
ATOM      9  C   UNL d   1      57.548   0.273  32.217  0.00  0.00     0.116 A 
ATOM     10  C   UNL d   1      58.361   0.165  32.132  0.00  0.00     0.026 A 
ATOM     11  C   UNL d   1      58.657  -0.233  31.481  0.00  0.00     0.004 A 
BRANCH   8  12
ATOM     12  O   UNL d   1      56.222   0.107  31.765  0.00  0.00    -0.326 OA
ATOM     13  C   UNL d   1      55.836  -0.219  32.423  0.00  0.00     0.181 C 
ENDBRANCH   8  12
BRANCH   9  14
ATOM     14  O   UNL d   1      57.255   0.682  32.889  0.00  0.00    -0.326 OA
ATOM     15  C   UNL d   1      57.634   0.643  33.616  0.00  0.00     0.181 C 
ENDBRANCH   9  14
ENDBRANCH   3   6
BRANCH   1  16
ATOM     16  C   UNL d   1      58.759   0.211  29.361  0.00  0.00     0.222 C 
ATOM     17  S   UNL d   1      58.072   0.643  29.159  0.00  0.00    -0.037 SA
BRANCH  16  18
ATOM     18  N   UNL d   1      59.501   0.617  29.366  0.00  0.00    -0.214 NA
ATOM     19  C   UNL d   1      59.932   0.682  28.649  0.00  0.00     0.122 C 
ENDBRANCH  16  18
ENDBRANCH   1  16
BRANCH   4  20
ATOM     20  C   UNL d   1      59.016  -2.657  29.118  0.00  0.00     0.019 A 
ATOM     21  C   UNL d   1      59.770  -2.811  28.852  0.00  0.00     0.002 A 
ATOM     22  C   UNL d   1      59.972  -3.552  28.515  0.00  0.00     0.000 A 
ATOM     23  C   UNL d   1      59.379  -4.141  28.455  0.00  0.00     0.000 A 
ATOM     24  C   UNL d   1      58.607  -3.965  28.734  0.00  0.00     0.000 A 
ATOM     25  C   UNL d   1      58.427  -3.238  29.060  0.00  0.00     0.002 A 
ENDBRANCH   4  20
TORSDOF 6
ENDMDL
MODEL 4
REMARK VINA RESULT:       0.7      2.576      4.859
REMARK  6 active torsions:
REMARK  status: ('A' for Active; 'I' for Inactive)
REMARK    1  A    between atoms: C_5  and  N_1 
REMARK    2  A    between atoms: C_7  and  C_3 
REMARK    3  A    between atoms: C_12  and  C_4 
REMARK    4  A    between atoms: N_14  and  C_5 
REMARK    5  A    between atoms: O_16  and  C_9 
REMARK    6  A    between atoms: O_17  and  C_11 
ROOT
ATOM      1  N   UNL d   1      57.857   0.244  32.088  0.00  0.00    -0.203 N 
ATOM      2  N   UNL d   1      58.333   0.147  31.418  0.00  0.00    -0.163 NA
ATOM      3  C   UNL d   1      57.098   0.008  31.885  0.00  0.00     0.087 A 
ATOM      4  C   UNL d   1      57.877  -0.141  30.819  0.00  0.00     0.103 A 
ATOM      5  C   UNL d   1      57.116  -0.229  31.100  0.00  0.00     0.040 A 
ENDROOT
BRANCH   3   6
ATOM      6  C   UNL d   1      56.425   0.005  32.375  0.00  0.00     0.020 A 
ATOM      7  C   UNL d   1      56.235  -0.632  32.838  0.00  0.00     0.028 A 
ATOM      8  C   UNL d   1      55.573  -0.631  33.319  0.00  0.00     0.116 A 
ATOM      9  C   UNL d   1      55.094   0.022  33.334  0.00  0.00     0.116 A 
ATOM     10  C   UNL d   1      55.272   0.679  32.869  0.00  0.00     0.026 A 
ATOM     11  C   UNL d   1      55.934   0.678  32.389  0.00  0.00     0.004 A 
BRANCH   8  12
ATOM     12  O   UNL d   1      55.374  -1.281  33.795  0.00  0.00    -0.326 OA
ATOM     13  C   UNL d   1      55.699  -2.028  33.637  0.00  0.00     0.181 C 
ENDBRANCH   8  12
BRANCH   9  14
ATOM     14  O   UNL d   1      54.412   0.035  33.823  0.00  0.00    -0.326 OA
ATOM     15  C   UNL d   1      53.888   0.668  33.815  0.00  0.00     0.181 C 
ENDBRANCH   9  14
ENDBRANCH   3   6
BRANCH   1  16
ATOM     16  C   UNL d   1      58.114   0.530  32.826  0.00  0.00     0.222 C 
ATOM     17  S   UNL d   1      57.573   0.680  33.445  0.00  0.00    -0.037 SA
BRANCH  16  18
ATOM     18  N   UNL d   1      58.935   0.677  32.966  0.00  0.00    -0.214 NA
ATOM     19  C   UNL d   1      59.224   0.645  33.753  0.00  0.00     0.122 C 
ENDBRANCH  16  18
ENDBRANCH   1  16
BRANCH   4  20
ATOM     20  C   UNL d   1      58.179  -0.306  30.060  0.00  0.00     0.019 A 
ATOM     21  C   UNL d   1      58.165  -1.068  29.771  0.00  0.00     0.002 A 
ATOM     22  C   UNL d   1      58.464  -1.252  29.010  0.00  0.00     0.000 A 
ATOM     23  C   UNL d   1      58.782  -0.633  28.543  0.00  0.00     0.000 A 
ATOM     24  C   UNL d   1      58.788   0.146  28.856  0.00  0.00     0.000 A 
ATOM     25  C   UNL d   1      58.492   0.309  29.600  0.00  0.00     0.002 A 
ENDBRANCH   4  20
TORSDOF 6
ENDMDL
