MODEL 1
REMARK VINA RESULT:      27.1      0.000      0.000
REMARK  1 active torsions:
REMARK  status: ('A' for Active; 'I' for Inactive)
REMARK       I    between atoms: N_2  and  C_1 
REMARK       I    between atoms: N_3  and  C_1 
REMARK    1  A    between atoms: C_4  and  N_2 
ROOT
ATOM      1  C   UNL d   1      58.196  49.663  50.342  0.00  0.00     0.086 A 
ATOM      2  C   UNL d   1      57.472  49.665  50.743  0.00  0.00     0.018 A 
ATOM      3  C   UNL d   1      56.764  49.660  50.323  0.00  0.00     0.002 A 
ATOM      4  C   UNL d   1      58.215  49.656  49.519  0.00  0.00     0.019 A 
ATOM      5  C   UNL d   1      57.507  49.650  49.098  0.00  0.00     0.002 A 
ATOM      6  C   UNL d   1      57.457  49.673  51.575  0.00  0.00     0.002 A 
ATOM      7  C   UNL d   1      56.783  49.652  49.500  0.00  0.00     0.000 A 
ATOM      8  C   UNL d   1      56.051  49.662  50.738  0.00  0.00     0.000 A 
ATOM      9  C   UNL d   1      56.736  49.675  51.974  0.00  0.00     0.000 A 
ATOM     10  C   UNL d   1      56.035  49.669  51.560  0.00  0.00     0.000 A 
ENDROOT
BRANCH   1  11
ATOM     11  N   UNL d   1      58.915  49.669  50.757  0.00  0.00    -0.192 NA
ATOM     12  C   UNL d   1      59.639  49.671  50.356  0.00  0.00     0.354 C 
ATOM     13  N   UNL d   1      60.335  49.677  50.786  0.00  0.00    -0.252 N 
ATOM     14  O   UNL d   1      59.649  49.668  49.516  0.00  0.00    -0.244 OA
ATOM     15  C   UNL d   1      61.075  49.679  50.376  0.00  0.00     0.111 A 
ATOM     16  C   UNL d   1      60.304  49.680  51.613  0.00  0.00     0.111 A 
ATOM     17  C   UNL d   1      61.779  49.685  50.827  0.00  0.00     0.142 A 
ATOM     18  O   UNL d   1      61.745  49.688  51.680  0.00  0.00    -0.300 OA
ATOM     19  C   UNL d   1      61.019  49.685  52.060  0.00  0.00     0.142 A 
ENDBRANCH   1  11
TORSDOF 1
ENDMDL
