MODEL 1
REMARK VINA RESULT:      -6.9      0.000      0.000
REMARK  4 active torsions:
REMARK  status: ('A' for Active; 'I' for Inactive)
REMARK    1  A    between atoms: C_3  and  N_1 
REMARK    2  A    between atoms: C_2  and  C_7 
REMARK       I    between atoms: N_4  and  C_2 
REMARK    3  A    between atoms: C_15  and  N_4 
REMARK    4  A    between atoms: C_8  and  C_15 
ROOT
ATOM      1  C   UNL d   1     -47.095  13.579  22.718  0.00  0.00     0.127 A 
ATOM      2  C   UNL d   1     -48.609  13.334  22.123  0.00  0.00     0.058 A 
ATOM      3  C   UNL d   1     -47.727  14.061  22.951  0.00  0.00     0.024 A 
ATOM      4  C   UNL d   1     -47.244  12.948  22.161  0.00  0.00     0.024 A 
ATOM      5  C   UNL d   1     -47.996  12.841  21.876  0.00  0.00     0.006 A 
ATOM      6  C   UNL d   1     -48.469  13.930  22.650  0.00  0.00     0.006 A 
ENDROOT
BRANCH   2   7
ATOM      7  C   UNL d   1     -49.369  13.193  21.808  0.00  0.00     0.279 C 
ATOM      8  N   UNL d   1     -49.914  12.704  22.200  0.00  0.00    -0.200 NA
ATOM      9  O   UNL d   1     -49.590  13.535  21.104  0.00  0.00    -0.265 OA
BRANCH   8  10
ATOM     10  C   UNL d   1     -49.689  12.346  22.930  0.00  0.00     0.172 C 
BRANCH  10  11
ATOM     11  C   UNL d   1     -50.208  11.858  23.326  0.00  0.00     0.231 C 
ATOM     12  O   UNL d   1     -49.933  11.136  23.645  0.00  0.00    -0.643 OA
ATOM     13  O   UNL d   1     -50.983  12.075  23.406  0.00  0.00    -0.643 OA
ENDBRANCH  10  11
ENDBRANCH   8  10
ENDBRANCH   2   7
BRANCH   1  14
ATOM     14  N   UNL d   1     -46.314  13.696  23.018  0.00  0.00    -0.114 N 
ATOM     15  O   UNL d   1     -45.776  14.220  22.645  0.00  0.00    -0.532 OA
ATOM     16  O   UNL d   1     -46.079  13.279  23.697  0.00  0.00    -0.532 OA
ENDBRANCH   1  14
TORSDOF 4
ENDMDL
MODEL 2
REMARK VINA RESULT:      -6.8      1.387      3.445
REMARK  4 active torsions:
REMARK  status: ('A' for Active; 'I' for Inactive)
REMARK    1  A    between atoms: C_3  and  N_1 
REMARK    2  A    between atoms: C_2  and  C_7 
REMARK       I    between atoms: N_4  and  C_2 
REMARK    3  A    between atoms: C_15  and  N_4 
REMARK    4  A    between atoms: C_8  and  C_15 
ROOT
ATOM      1  C   UNL d   1     -49.769  13.186  22.226  0.00  0.00     0.127 A 
ATOM      2  C   UNL d   1     -48.779  12.133  23.013  0.00  0.00     0.058 A 
ATOM      3  C   UNL d   1     -49.278  12.667  21.806  0.00  0.00     0.024 A 
ATOM      4  C   UNL d   1     -49.752  13.164  23.080  0.00  0.00     0.024 A 
ATOM      5  C   UNL d   1     -49.259  12.640  23.453  0.00  0.00     0.006 A 
ATOM      6  C   UNL d   1     -48.795  12.153  22.205  0.00  0.00     0.006 A 
ENDROOT
BRANCH   2   7
ATOM      7  C   UNL d   1     -48.285  11.607  23.432  0.00  0.00     0.279 C 
ATOM      8  N   UNL d   1     -47.492  11.794  23.589  0.00  0.00    -0.200 NA
ATOM      9  O   UNL d   1     -48.577  10.895  23.697  0.00  0.00    -0.265 OA
BRANCH   8  10
ATOM     10  C   UNL d   1     -47.185  12.530  23.317  0.00  0.00     0.172 C 
BRANCH  10  11
ATOM     11  C   UNL d   1     -46.415  12.742  23.483  0.00  0.00     0.231 C 
ATOM     12  O   UNL d   1     -45.813  12.163  23.451  0.00  0.00    -0.643 OA
ATOM     13  O   UNL d   1     -46.241  13.507  23.677  0.00  0.00    -0.643 OA
ENDBRANCH  10  11
ENDBRANCH   8  10
ENDBRANCH   2   7
BRANCH   1  14
ATOM     14  N   UNL d   1     -50.281  13.731  21.832  0.00  0.00    -0.114 N 
ATOM     15  O   UNL d   1     -50.129  14.556  21.838  0.00  0.00    -0.532 OA
ATOM     16  O   UNL d   1     -50.946  13.437  21.431  0.00  0.00    -0.532 OA
ENDBRANCH   1  14
TORSDOF 4
ENDMDL
MODEL 3
REMARK VINA RESULT:      -6.6      0.911      3.505
REMARK  4 active torsions:
REMARK  status: ('A' for Active; 'I' for Inactive)
REMARK    1  A    between atoms: C_3  and  N_1 
REMARK    2  A    between atoms: C_2  and  C_7 
REMARK       I    between atoms: N_4  and  C_2 
REMARK    3  A    between atoms: C_15  and  N_4 
REMARK    4  A    between atoms: C_8  and  C_15 
ROOT
ATOM      1  C   UNL d   1     -49.692  12.677  22.863  0.00  0.00     0.127 A 
ATOM      2  C   UNL d   1     -48.582  13.862  22.598  0.00  0.00     0.058 A 
ATOM      3  C   UNL d   1     -49.284  12.726  22.143  0.00  0.00     0.024 A 
ATOM      4  C   UNL d   1     -49.524  13.256  23.469  0.00  0.00     0.024 A 
ATOM      5  C   UNL d   1     -48.975  13.834  23.323  0.00  0.00     0.006 A 
ATOM      6  C   UNL d   1     -48.739  13.314  22.025  0.00  0.00     0.006 A 
ENDROOT
BRANCH   2   7
ATOM      7  C   UNL d   1     -48.022  14.471  22.485  0.00  0.00     0.279 C 
ATOM      8  N   UNL d   1     -47.211  14.339  22.605  0.00  0.00    -0.200 NA
ATOM      9  O   UNL d   1     -48.267  15.212  22.252  0.00  0.00    -0.265 OA
BRANCH   8  10
ATOM     10  C   UNL d   1     -46.954  13.574  22.846  0.00  0.00     0.172 C 
BRANCH  10  11
ATOM     11  C   UNL d   1     -46.165  13.435  23.000  0.00  0.00     0.231 C 
ATOM     12  O   UNL d   1     -45.947  13.028  23.696  0.00  0.00    -0.643 OA
ATOM     13  O   UNL d   1     -45.603  13.691  22.477  0.00  0.00    -0.643 OA
ENDBRANCH  10  11
ENDBRANCH   8  10
ENDBRANCH   2   7
BRANCH   1  14
ATOM     14  N   UNL d   1     -50.264  12.072  23.010  0.00  0.00    -0.114 N 
ATOM     15  O   UNL d   1     -50.041  11.326  23.323  0.00  0.00    -0.532 OA
ATOM     16  O   UNL d   1     -51.062  12.226  22.838  0.00  0.00    -0.532 OA
ENDBRANCH   1  14
TORSDOF 4
ENDMDL
MODEL 4
REMARK VINA RESULT:      -6.5      1.267      3.348
REMARK  4 active torsions:
REMARK  status: ('A' for Active; 'I' for Inactive)
REMARK    1  A    between atoms: C_3  and  N_1 
REMARK    2  A    between atoms: C_2  and  C_7 
REMARK       I    between atoms: N_4  and  C_2 
REMARK    3  A    between atoms: C_15  and  N_4 
REMARK    4  A    between atoms: C_8  and  C_15 
ROOT
ATOM      1  C   UNL d   1     -48.992  13.385  21.930  0.00  0.00     0.127 A 
ATOM      2  C   UNL d   1     -47.490  13.583  22.573  0.00  0.00     0.058 A 
ATOM      3  C   UNL d   1     -48.313  13.204  21.491  0.00  0.00     0.024 A 
ATOM      4  C   UNL d   1     -48.898  13.678  22.727  0.00  0.00     0.024 A 
ATOM      5  C   UNL d   1     -48.151  13.770  23.029  0.00  0.00     0.006 A 
ATOM      6  C   UNL d   1     -47.579  13.306  21.819  0.00  0.00     0.006 A 
ENDROOT
BRANCH   2   7
ATOM      7  C   UNL d   1     -46.738  13.691  22.918  0.00  0.00     0.279 C 
ATOM      8  N   UNL d   1     -46.320  13.053  23.248  0.00  0.00    -0.200 NA
ATOM      9  O   UNL d   1     -46.400  14.430  22.938  0.00  0.00    -0.265 OA
BRANCH   8  10
ATOM     10  C   UNL d   1     -46.667  12.285  23.230  0.00  0.00     0.172 C 
BRANCH  10  11
ATOM     11  C   UNL d   1     -46.261  11.644  23.529  0.00  0.00     0.231 C 
ATOM     12  O   UNL d   1     -46.670  10.930  23.675  0.00  0.00    -0.643 OA
ATOM     13  O   UNL d   1     -45.469  11.704  23.680  0.00  0.00    -0.643 OA
ENDBRANCH  10  11
ENDBRANCH   8  10
ENDBRANCH   2   7
BRANCH   1  14
ATOM     14  N   UNL d   1     -49.768  13.287  21.610  0.00  0.00    -0.114 N 
ATOM     15  O   UNL d   1     -50.081  12.526  21.447  0.00  0.00    -0.532 OA
ATOM     16  O   UNL d   1     -50.225  13.963  21.454  0.00  0.00    -0.532 OA
ENDBRANCH   1  14
TORSDOF 4
ENDMDL
MODEL 5
REMARK VINA RESULT:      -5.1      8.643     10.112
REMARK  4 active torsions:
REMARK  status: ('A' for Active; 'I' for Inactive)
REMARK    1  A    between atoms: C_3  and  N_1 
REMARK    2  A    between atoms: C_2  and  C_7 
REMARK       I    between atoms: N_4  and  C_2 
REMARK    3  A    between atoms: C_15  and  N_4 
REMARK    4  A    between atoms: C_8  and  C_15 
ROOT
ATOM      1  C   UNL d   1     -40.471  15.045  19.565  0.00  0.00     0.127 A 
ATOM      2  C   UNL d   1     -40.645  15.089  17.930  0.00  0.00     0.058 A 
ATOM      3  C   UNL d   1     -40.514  14.347  19.123  0.00  0.00     0.024 A 
ATOM      4  C   UNL d   1     -40.519  15.794  19.156  0.00  0.00     0.024 A 
ATOM      5  C   UNL d   1     -40.605  15.798  18.349  0.00  0.00     0.006 A 
ATOM      6  C   UNL d   1     -40.600  14.382  18.317  0.00  0.00     0.006 A 
ENDROOT
BRANCH   2   7
ATOM      7  C   UNL d   1     -40.734  15.135  17.101  0.00  0.00     0.279 C 
ATOM      8  N   UNL d   1     -40.079  15.072  16.594  0.00  0.00    -0.200 NA
ATOM      9  O   UNL d   1     -41.471  15.242  16.775  0.00  0.00    -0.265 OA
BRANCH   8  10
ATOM     10  C   UNL d   1     -39.313  14.961  16.929  0.00  0.00     0.172 C 
BRANCH  10  11
ATOM     11  C   UNL d   1     -38.659  14.900  16.446  0.00  0.00     0.231 C 
ATOM     12  O   UNL d   1     -38.240  15.590  16.230  0.00  0.00    -0.643 OA
ATOM     13  O   UNL d   1     -38.421  14.174  16.181  0.00  0.00    -0.643 OA
ENDBRANCH  10  11
ENDBRANCH   8  10
ENDBRANCH   2   7
BRANCH   1  14
ATOM     14  N   UNL d   1     -40.381  15.034  20.406  0.00  0.00    -0.114 N 
ATOM     15  O   UNL d   1     -39.628  15.117  20.767  0.00  0.00    -0.532 OA
ATOM     16  O   UNL d   1     -41.056  14.939  20.880  0.00  0.00    -0.532 OA
ENDBRANCH   1  14
TORSDOF 4
ENDMDL
MODEL 6
REMARK VINA RESULT:      -4.8      8.547      9.833
REMARK  4 active torsions:
REMARK  status: ('A' for Active; 'I' for Inactive)
REMARK    1  A    between atoms: C_3  and  N_1 
REMARK    2  A    between atoms: C_2  and  C_7 
REMARK       I    between atoms: N_4  and  C_2 
REMARK    3  A    between atoms: C_15  and  N_4 
REMARK    4  A    between atoms: C_8  and  C_15 
ROOT
ATOM      1  C   UNL d   1     -40.633  15.114  17.917  0.00  0.00     0.127 A 
ATOM      2  C   UNL d   1     -40.545  15.067  19.559  0.00  0.00     0.058 A 
ATOM      3  C   UNL d   1     -40.550  14.394  18.319  0.00  0.00     0.024 A 
ATOM      4  C   UNL d   1     -40.672  15.836  18.373  0.00  0.00     0.024 A 
ATOM      5  C   UNL d   1     -40.627  15.796  19.181  0.00  0.00     0.006 A 
ATOM      6  C   UNL d   1     -40.508  14.385  19.128  0.00  0.00     0.006 A 
ENDROOT
BRANCH   2   7
ATOM      7  C   UNL d   1     -40.502  15.067  20.393  0.00  0.00     0.279 C 
ATOM      8  N   UNL d   1     -39.772  15.104  20.786  0.00  0.00    -0.200 NA
ATOM      9  O   UNL d   1     -41.183  15.030  20.836  0.00  0.00    -0.265 OA
BRANCH   8  10
ATOM     10  C   UNL d   1     -39.064  15.142  20.330  0.00  0.00     0.172 C 
BRANCH  10  11
ATOM     11  C   UNL d   1     -38.339  15.185  20.701  0.00  0.00     0.231 C 
ATOM     12  O   UNL d   1     -37.944  14.481  20.916  0.00  0.00    -0.643 OA
ATOM     13  O   UNL d   1     -38.009  15.907  20.856  0.00  0.00    -0.643 OA
ENDBRANCH  10  11
ENDBRANCH   8  10
ENDBRANCH   2   7
BRANCH   1  14
ATOM     14  N   UNL d   1     -40.679  15.149  17.074  0.00  0.00    -0.114 N 
ATOM     15  O   UNL d   1     -39.988  15.198  16.599  0.00  0.00    -0.532 OA
ATOM     16  O   UNL d   1     -41.426  15.135  16.712  0.00  0.00    -0.532 OA
ENDBRANCH   1  14
TORSDOF 4
ENDMDL
MODEL 7
REMARK VINA RESULT:      -4.7      8.938     10.429
REMARK  4 active torsions:
REMARK  status: ('A' for Active; 'I' for Inactive)
REMARK    1  A    between atoms: C_3  and  N_1 
REMARK    2  A    between atoms: C_2  and  C_7 
REMARK       I    between atoms: N_4  and  C_2 
REMARK    3  A    between atoms: C_15  and  N_4 
REMARK    4  A    between atoms: C_8  and  C_15 
ROOT
ATOM      1  C   UNL d   1     -39.018  14.770  16.658  0.00  0.00     0.127 A 
ATOM      2  C   UNL d   1     -40.050  14.445  17.897  0.00  0.00     0.058 A 
ATOM      3  C   UNL d   1     -38.835  14.194  17.225  0.00  0.00     0.024 A 
ATOM      4  C   UNL d   1     -39.756  15.195  16.729  0.00  0.00     0.024 A 
ATOM      5  C   UNL d   1     -40.254  15.023  17.345  0.00  0.00     0.006 A 
ATOM      6  C   UNL d   1     -39.352  14.043  17.831  0.00  0.00     0.006 A 
ENDROOT
BRANCH   2   7
ATOM      7  C   UNL d   1     -40.588  14.296  18.518  0.00  0.00     0.279 C 
ATOM      8  N   UNL d   1     -40.536  14.702  19.240  0.00  0.00    -0.200 NA
ATOM      9  O   UNL d   1     -41.179  13.744  18.423  0.00  0.00    -0.265 OA
BRANCH   8  10
ATOM     10  C   UNL d   1     -39.926  15.275  19.343  0.00  0.00     0.172 C 
BRANCH  10  11
ATOM     11  C   UNL d   1     -39.852  15.674  20.050  0.00  0.00     0.231 C 
ATOM     12  O   UNL d   1     -40.539  15.919  20.458  0.00  0.00    -0.643 OA
ATOM     13  O   UNL d   1     -39.117  15.829  20.349  0.00  0.00    -0.643 OA
ENDBRANCH  10  11
ENDBRANCH   8  10
ENDBRANCH   2   7
BRANCH   1  14
ATOM     14  N   UNL d   1     -38.495  14.945  16.018  0.00  0.00    -0.114 N 
ATOM     15  O   UNL d   1     -38.185  14.338  15.528  0.00  0.00    -0.532 OA
ATOM     16  O   UNL d   1     -38.287  15.736  15.875  0.00  0.00    -0.532 OA
ENDBRANCH   1  14
TORSDOF 4
ENDMDL
