MODEL 1
REMARK VINA RESULT:       2.8      0.000      0.000
REMARK  5 active torsions:
REMARK  status: ('A' for Active; 'I' for Inactive)
REMARK    1  A    between atoms: O_8  and  S_1 
REMARK    2  A    between atoms: C_13  and  S_1 
REMARK    3  A    between atoms: C_7  and  C_2 
REMARK    4  A    between atoms: C_18  and  C_7 
REMARK    5  A    between atoms: C_14  and  O_8 
ROOT
ATOM      1  C   UNL d   1     -42.338-122.564 -54.392  0.00  0.00     0.139 A 
ATOM      2  C   UNL d   1     -41.666-123.034 -53.346  0.00  0.00     0.064 A 
ATOM      3  C   UNL d   1     -41.840-123.171 -54.137  0.00  0.00     0.220 A 
ATOM      4  C   UNL d   1     -42.054-122.347 -53.106  0.00  0.00     0.105 A 
ATOM      5  O   UNL d   1     -42.471-122.055 -53.756  0.00  0.00    -0.304 OA
ATOM      6  C   UNL d   1     -41.974-122.085 -52.338  0.00  0.00     0.050 A 
ATOM      7  C   UNL d   1     -41.201-123.453 -52.810  0.00  0.00     0.007 A 
ATOM      8  C   UNL d   1     -41.509-122.503 -51.803  0.00  0.00     0.116 A 
ATOM      9  O   UNL d   1     -41.570-123.796 -54.602  0.00  0.00    -0.284 OA
ATOM     10  C   UNL d   1     -41.125-123.184 -52.040  0.00  0.00     0.026 A 
ENDROOT
BRANCH   8  11
ATOM     11  O   UNL d   1     -41.431-122.235 -51.029  0.00  0.00    -0.227 OA
BRANCH  11  12
ATOM     12  S   UNL d   1     -41.839-122.611 -50.419  0.00  0.00     0.304 S 
ATOM     13  O   UNL d   1     -41.162-122.994 -50.185  0.00  0.00    -0.193 OA
ATOM     14  O   UNL d   1     -42.523-122.233 -50.643  0.00  0.00    -0.193 OA
BRANCH  12  15
ATOM     15  C   UNL d   1     -42.252-122.985 -49.809  0.00  0.00     0.111 A 
ATOM     16  C   UNL d   1     -41.842-123.442 -49.249  0.00  0.00     0.013 A 
ATOM     17  C   UNL d   1     -42.253-123.817 -48.639  0.00  0.00     0.001 A 
ATOM     18  C   UNL d   1     -43.078-123.737 -48.584  0.00  0.00     0.000 A 
ATOM     19  C   UNL d   1     -43.481-123.279 -49.145  0.00  0.00     0.001 A 
ATOM     20  C   UNL d   1     -43.067-122.907 -49.753  0.00  0.00     0.013 A 
ENDBRANCH  12  15
ENDBRANCH  11  12
ENDBRANCH   8  11
BRANCH   1  21
ATOM     21  C   UNL d   1     -42.653-122.477 -55.150  0.00  0.00     0.029 C 
BRANCH  21  22
ATOM     22  C   UNL d   1     -42.326-121.932 -55.681  0.00  0.00     0.021 A 
ATOM     23  C   UNL d   1     -42.217-121.156 -55.440  0.00  0.00     0.099 A 
ATOM     24  N   UNL d   1     -41.895-120.606 -55.956  0.00  0.00    -0.242 NA
ATOM     25  C   UNL d   1     -41.679-120.838 -56.727  0.00  0.00     0.099 A 
ATOM     26  C   UNL d   1     -41.791-121.622 -56.965  0.00  0.00     0.021 A 
ATOM     27  C   UNL d   1     -42.117-122.166 -56.434  0.00  0.00     0.003 A 
ENDBRANCH  21  22
ENDBRANCH   1  21
TORSDOF 5
ENDMDL
