MODEL 1
REMARK VINA RESULT:      -5.6      0.000      0.000
REMARK  2 active torsions:
REMARK  status: ('A' for Active; 'I' for Inactive)
REMARK    1  A    between atoms: C_13  and  N_8 
REMARK    2  A    between atoms: C_14  and  C_13 
ROOT
ATOM      1  C   UNL d   1     -41.269-122.497 -52.472  0.00  0.00     0.093 A 
ATOM      2  N   UNL d   1     -41.130-122.319 -51.062  0.00  0.00    -0.179 NA
ATOM      3  C   UNL d   1     -41.179-121.995 -51.824  0.00  0.00     0.284 A 
ATOM      4  C   UNL d   1     -41.310-123.315 -52.359  0.00  0.00     0.091 A 
ATOM      5  C   UNL d   1     -41.171-123.136 -50.949  0.00  0.00     0.223 A 
ATOM      6  N   UNL d   1     -41.261-123.630 -51.599  0.00  0.00    -0.217 NA
ATOM      7  C   UNL d   1     -41.318-122.182 -53.232  0.00  0.00     0.087 A 
ATOM      8  N   UNL d   1     -41.407-122.682 -53.872  0.00  0.00    -0.302 N 
ATOM      9  C   UNL d   1     -41.400-123.817 -53.008  0.00  0.00     0.038 A 
ATOM     10  S   UNL d   1     -41.123-123.457 -50.188  0.00  0.00    -0.037 SA
ATOM     11  O   UNL d   1     -41.137-121.175 -51.927  0.00  0.00    -0.265 OA
ATOM     12  C   UNL d   1     -41.448-123.501 -53.759  0.00  0.00     0.082 A 
ENDROOT
BRANCH   8  13
ATOM     13  C   UNL d   1     -41.457-122.368 -54.641  0.00  0.00     0.080 C 
BRANCH  13  14
ATOM     14  C   UNL d   1     -42.199-122.237 -54.983  0.00  0.00     0.019 C 
ATOM     15  C   UNL d   1     -42.244-121.888 -55.729  0.00  0.00     0.002 C 
ENDBRANCH  13  14
ENDBRANCH   8  13
TORSDOF 2
ENDMDL
MODEL 2
REMARK VINA RESULT:      -4.0      2.298      4.404
REMARK  2 active torsions:
REMARK  status: ('A' for Active; 'I' for Inactive)
REMARK    1  A    between atoms: C_13  and  N_8 
REMARK    2  A    between atoms: C_14  and  C_13 
ROOT
ATOM      1  C   UNL d   1     -42.190-122.650 -50.182  0.00  0.00     0.093 A 
ATOM      2  N   UNL d   1     -42.188-122.140 -51.516  0.00  0.00    -0.179 NA
ATOM      3  C   UNL d   1     -42.548-122.196 -50.771  0.00  0.00     0.284 A 
ATOM      4  C   UNL d   1     -41.480-123.044 -50.337  0.00  0.00     0.091 A 
ATOM      5  C   UNL d   1     -41.479-122.534 -51.671  0.00  0.00     0.223 A 
ATOM      6  N   UNL d   1     -41.128-122.984 -51.081  0.00  0.00    -0.217 NA
ATOM      7  C   UNL d   1     -42.542-122.711 -49.439  0.00  0.00     0.087 A 
ATOM      8  N   UNL d   1     -42.185-123.161 -48.858  0.00  0.00    -0.302 N 
ATOM      9  C   UNL d   1     -41.123-123.498 -49.749  0.00  0.00     0.038 A 
ATOM     10  S   UNL d   1     -41.123-122.476 -52.415  0.00  0.00    -0.037 SA
ATOM     11  O   UNL d   1     -43.258-121.799 -50.624  0.00  0.00    -0.265 OA
ATOM     12  C   UNL d   1     -41.475-123.555 -49.013  0.00  0.00     0.082 A 
ENDROOT
BRANCH   8  13
ATOM     13  C   UNL d   1     -42.537-123.225 -48.106  0.00  0.00     0.080 C 
BRANCH  13  14
ATOM     14  C   UNL d   1     -42.075-123.439 -47.454  0.00  0.00     0.019 C 
ATOM     15  C   UNL d   1     -42.398-123.391 -46.697  0.00  0.00     0.002 C 
ENDBRANCH  13  14
ENDBRANCH   8  13
TORSDOF 2
ENDMDL
MODEL 3
REMARK VINA RESULT:      -4.0      1.643      3.206
REMARK  2 active torsions:
REMARK  status: ('A' for Active; 'I' for Inactive)
REMARK    1  A    between atoms: C_13  and  N_8 
REMARK    2  A    between atoms: C_14  and  C_13 
ROOT
ATOM      1  C   UNL d   1     -41.610-122.406 -53.221  0.00  0.00     0.093 A 
ATOM      2  N   UNL d   1     -41.972-121.672 -54.391  0.00  0.00    -0.179 NA
ATOM      3  C   UNL d   1     -41.849-121.699 -53.571  0.00  0.00     0.284 A 
ATOM      4  C   UNL d   1     -41.495-123.081 -53.686  0.00  0.00     0.091 A 
ATOM      5  C   UNL d   1     -41.857-122.346 -54.855  0.00  0.00     0.223 A 
ATOM      6  N   UNL d   1     -41.620-123.047 -54.500  0.00  0.00    -0.217 NA
ATOM      7  C   UNL d   1     -41.486-122.440 -52.406  0.00  0.00     0.087 A 
ATOM      8  N   UNL d   1     -41.249-123.143 -52.063  0.00  0.00    -0.302 N 
ATOM      9  C   UNL d   1     -41.256-123.788 -53.335  0.00  0.00     0.038 A 
ATOM     10  S   UNL d   1     -41.981-122.316 -55.673  0.00  0.00    -0.037 SA
ATOM     11  O   UNL d   1     -41.966-121.020 -53.114  0.00  0.00    -0.265 OA
ATOM     12  C   UNL d   1     -41.134-123.817 -52.528  0.00  0.00     0.082 A 
ENDROOT
BRANCH   8  13
ATOM     13  C   UNL d   1     -41.123-123.182 -51.241  0.00  0.00     0.080 C 
BRANCH  13  14
ATOM     14  C   UNL d   1     -41.496-123.770 -50.796  0.00  0.00     0.019 C 
ATOM     15  C   UNL d   1     -41.352-123.817 -49.985  0.00  0.00     0.002 C 
ENDBRANCH  13  14
ENDBRANCH   8  13
TORSDOF 2
ENDMDL
MODEL 4
REMARK VINA RESULT:      -3.9      0.956      1.201
REMARK  2 active torsions:
REMARK  status: ('A' for Active; 'I' for Inactive)
REMARK    1  A    between atoms: C_13  and  N_8 
REMARK    2  A    between atoms: C_14  and  C_13 
ROOT
ATOM      1  C   UNL d   1     -41.582-122.563 -51.337  0.00  0.00     0.093 A 
ATOM      2  N   UNL d   1     -41.793-122.416 -49.932  0.00  0.00    -0.179 NA
ATOM      3  C   UNL d   1     -41.805-122.094 -50.697  0.00  0.00     0.284 A 
ATOM      4  C   UNL d   1     -41.348-123.347 -51.215  0.00  0.00     0.091 A 
ATOM      5  C   UNL d   1     -41.560-123.199 -49.810  0.00  0.00     0.223 A 
ATOM      6  N   UNL d   1     -41.339-123.661 -50.452  0.00  0.00    -0.217 NA
ATOM      7  C   UNL d   1     -41.591-122.249 -52.100  0.00  0.00     0.087 A 
ATOM      8  N   UNL d   1     -41.369-122.718 -52.732  0.00  0.00    -0.302 N 
ATOM      9  C   UNL d   1     -41.125-123.816 -51.855  0.00  0.00     0.038 A 
ATOM     10  S   UNL d   1     -41.549-123.518 -49.047  0.00  0.00    -0.037 SA
ATOM     11  O   UNL d   1     -42.039-121.309 -50.810  0.00  0.00    -0.265 OA
ATOM     12  C   UNL d   1     -41.136-123.502 -52.609  0.00  0.00     0.082 A 
ENDROOT
BRANCH   8  13
ATOM     13  C   UNL d   1     -41.377-122.405 -53.503  0.00  0.00     0.080 C 
BRANCH  13  14
ATOM     14  C   UNL d   1     -41.994-122.599 -54.018  0.00  0.00     0.019 C 
ATOM     15  C   UNL d   1     -42.211-122.067 -54.609  0.00  0.00     0.002 C 
ENDBRANCH  13  14
ENDBRANCH   8  13
TORSDOF 2
ENDMDL
