MODEL 1
REMARK VINA RESULT:      44.9      0.000      0.000
REMARK  2 active torsions:
REMARK  status: ('A' for Active; 'I' for Inactive)
REMARK    1  A    between atoms: N_9  and  C_3 
REMARK    2  A    between atoms: C_11  and  C_4 
ROOT
ATOM      1  N   UNL d   1     -51.108  25.919  33.587  0.00  0.00    -0.196 N 
ATOM      2  C   UNL d   1     -51.385  25.153  33.499  0.00  0.00     0.167 A 
ATOM      3  C   UNL d   1     -50.297  26.072  33.584  0.00  0.00     0.153 A 
ATOM      4  C   UNL d   1     -52.204  25.173  33.524  0.00  0.00     0.057 A 
ATOM      5  N   UNL d   1     -51.755  26.417  33.667  0.00  0.00    -0.161 NA
ATOM      6  N   UNL d   1     -50.855  24.527  33.406  0.00  0.00    -0.227 NA
ATOM      7  C   UNL d   1     -49.764  25.445  33.491  0.00  0.00     0.057 A 
ATOM      8  C   UNL d   1     -52.432  25.948  33.627  0.00  0.00     0.124 A 
ATOM      9  C   UNL d   1     -50.041  24.678  33.402  0.00  0.00     0.086 A 
ATOM     10  C   UNL d   1     -49.497  24.052  33.309  0.00  0.00     0.021 C 
ENDROOT
BRANCH   3  11
ATOM     11  N   UNL d   1     -50.020  26.838  33.672  0.00  0.00    -0.285 N 
ATOM     12  C   UNL d   1     -49.234  26.975  33.895  0.00  0.00     0.108 A 
ATOM     13  C   UNL d   1     -48.955  27.745  33.984  0.00  0.00     0.142 A 
ATOM     14  O   UNL d   1     -49.462  28.384  33.850  0.00  0.00    -0.300 OA
ATOM     15  C   UNL d   1     -50.243  28.251  33.628  0.00  0.00     0.142 A 
ATOM     16  C   UNL d   1     -50.522  27.481  33.539  0.00  0.00     0.108 A 
ENDBRANCH   3  11
BRANCH   4  17
ATOM     17  C   UNL d   1     -52.774  24.581  33.466  0.00  0.00     0.004 A 
ATOM     18  C   UNL d   1     -53.578  24.776  33.363  0.00  0.00     0.000 A 
ATOM     19  C   UNL d   1     -54.140  24.181  33.306  0.00  0.00     0.000 A 
ATOM     20  C   UNL d   1     -53.915  23.382  33.349  0.00  0.00     0.000 A 
ATOM     21  C   UNL d   1     -53.119  23.190  33.451  0.00  0.00     0.000 A 
ATOM     22  C   UNL d   1     -52.547  23.787  33.510  0.00  0.00     0.000 A 
ENDBRANCH   4  17
TORSDOF 2
ENDMDL
