MODEL 1
REMARK VINA RESULT:      50.5      0.000      0.000
REMARK  3 active torsions:
REMARK  status: ('A' for Active; 'I' for Inactive)
REMARK    1  A    between atoms: C_4  and  C_1 
REMARK    2  A    between atoms: N_7  and  C_4 
REMARK    3  A    between atoms: C_9  and  N_7 
ROOT
ATOM      1  C   UNL d   1     -50.026  27.513  33.445  0.00  0.00     0.171 C 
ATOM      2  S   UNL d   1     -50.411  28.231  33.306  0.00  0.00    -0.054 SA
ENDROOT
BRANCH   1   3
ATOM      3  C   UNL d   1     -50.454  26.808  33.417  0.00  0.00     0.191 A 
ATOM      4  N   UNL d   1     -50.128  26.050  33.364  0.00  0.00    -0.223 NA
ATOM      5  C   UNL d   1     -50.752  25.507  33.353  0.00  0.00     0.101 A 
ATOM      6  C   UNL d   1     -50.773  24.683  33.306  0.00  0.00     0.021 A 
ATOM      7  C   UNL d   1     -51.461  25.934  33.399  0.00  0.00     0.101 A 
ATOM      8  C   UNL d   1     -51.491  24.288  33.306  0.00  0.00     0.002 A 
ATOM      9  C   UNL d   1     -52.200  24.715  33.352  0.00  0.00     0.002 A 
ATOM     10  C   UNL d   1     -52.184  25.533  33.398  0.00  0.00     0.021 A 
ATOM     11  N   UNL d   1     -51.270  26.739  33.439  0.00  0.00    -0.223 NA
ENDBRANCH   1   3
BRANCH   1  12
ATOM     12  N   UNL d   1     -49.221  27.498  33.609  0.00  0.00    -0.232 NA
BRANCH  12  13
ATOM     13  C   UNL d   1     -48.909  27.998  34.193  0.00  0.00     0.083 A 
ATOM     14  C   UNL d   1     -48.869  28.809  34.062  0.00  0.00     0.020 A 
ATOM     15  C   UNL d   1     -48.562  29.311  34.635  0.00  0.00     0.013 A 
ATOM     16  C   UNL d   1     -48.290  28.989  35.353  0.00  0.00     0.058 A 
ATOM     17  C   UNL d   1     -48.329  28.175  35.487  0.00  0.00     0.013 A 
ATOM     18 CL   UNL d   1     -47.982  29.483  35.931  0.00  0.00    -0.082 Cl
ATOM     19  C   UNL d   1     -48.640  27.684  34.901  0.00  0.00     0.020 A 
ENDBRANCH  12  13
ENDBRANCH   1  12
TORSDOF 3
ENDMDL
MODEL 2
REMARK VINA RESULT:      52.5      1.993      4.445
REMARK  3 active torsions:
REMARK  status: ('A' for Active; 'I' for Inactive)
REMARK    1  A    between atoms: C_4  and  C_1 
REMARK    2  A    between atoms: N_7  and  C_4 
REMARK    3  A    between atoms: C_9  and  N_7 
ROOT
ATOM      1  C   UNL d   1     -49.850  26.206  33.552  0.00  0.00     0.171 C 
ATOM      2  S   UNL d   1     -49.402  25.516  33.474  0.00  0.00    -0.054 SA
ENDROOT
BRANCH   1   3
ATOM      3  C   UNL d   1     -49.507  26.882  33.879  0.00  0.00     0.191 A 
ATOM      4  N   UNL d   1     -49.220  26.950  34.651  0.00  0.00    -0.223 NA
ATOM      5  C   UNL d   1     -48.925  27.718  34.744  0.00  0.00     0.101 A 
ATOM      6  C   UNL d   1     -48.574  28.107  35.383  0.00  0.00     0.021 A 
ATOM      7  C   UNL d   1     -49.032  28.119  34.026  0.00  0.00     0.101 A 
ATOM      8  C   UNL d   1     -48.333  28.886  35.309  0.00  0.00     0.002 A 
ATOM      9  C   UNL d   1     -48.440  29.287  34.591  0.00  0.00     0.002 A 
ATOM     10  C   UNL d   1     -48.788  28.905  33.955  0.00  0.00     0.021 A 
ATOM     11  N   UNL d   1     -49.393  27.597  33.496  0.00  0.00    -0.223 NA
ENDBRANCH   1   3
BRANCH   1  12
ATOM     12  N   UNL d   1     -50.634  26.223  33.306  0.00  0.00    -0.232 NA
BRANCH  12  13
ATOM     13  C   UNL d   1     -51.085  25.527  33.316  0.00  0.00     0.083 A 
ATOM     14  C   UNL d   1     -51.907  25.570  33.306  0.00  0.00     0.020 A 
ATOM     15  C   UNL d   1     -52.361  24.885  33.315  0.00  0.00     0.013 A 
ATOM     16  C   UNL d   1     -51.980  24.146  33.336  0.00  0.00     0.058 A 
ATOM     17  C   UNL d   1     -51.155  24.100  33.346  0.00  0.00     0.013 A 
ATOM     18 CL   UNL d   1     -52.426  23.457  33.345  0.00  0.00    -0.082 Cl
ATOM     19  C   UNL d   1     -50.714  24.797  33.336  0.00  0.00     0.020 A 
ENDBRANCH  12  13
ENDBRANCH   1  12
TORSDOF 3
ENDMDL
