MODEL 1
REMARK VINA RESULT:      -3.3      0.000      0.000
REMARK  3 active torsions:
REMARK  status: ('A' for Active; 'I' for Inactive)
REMARK    1  A    between atoms: N_2  and  C_1 
REMARK    2  A    between atoms: N_3  and  C_1 
REMARK       I    between atoms: C_4  and  N_3 
REMARK    3  A    between atoms: C_7  and  C_4 
ROOT
ATOM      1  C   UNL d   1      31.743  17.292 -24.268  0.00  0.00     0.209 C 
ATOM      2  S   UNL d   1      32.113  17.242 -25.012  0.00  0.00    -0.038 SA
ENDROOT
BRANCH   1   3
ATOM      3  N   UNL d   1      31.233  16.700 -24.017  0.00  0.00    -0.282 N 
ATOM      4  C   UNL d   1      30.420  16.761 -24.176  0.00  0.00     0.066 A 
ATOM      5  C   UNL d   1      29.911  16.169 -23.925  0.00  0.00     0.016 A 
ATOM      6  C   UNL d   1      30.124  17.408 -24.582  0.00  0.00     0.018 A 
ATOM      7  C   UNL d   1      29.108  16.222 -24.079  0.00  0.00     0.001 A 
ATOM      8  C   UNL d   1      30.201  15.516 -23.517  0.00  0.00     0.003 A 
ATOM      9  C   UNL d   1      28.812  16.872 -24.486  0.00  0.00     0.000 A 
ATOM     10  C   UNL d   1      29.314  17.466 -24.739  0.00  0.00     0.002 A 
ATOM     11  C   UNL d   1      31.011  15.458 -23.360  0.00  0.00     0.019 A 
ATOM     12  C   UNL d   1      31.524  16.050 -23.610  0.00  0.00     0.082 A 
ENDBRANCH   1   3
BRANCH   1  13
ATOM     13  N   UNL d   1      31.891  17.947 -23.779  0.00  0.00    -0.180 NA
ATOM     14  C   UNL d   1      32.646  18.297 -23.782  0.00  0.00     0.281 C 
ATOM     15  O   UNL d   1      33.241  18.000 -24.264  0.00  0.00    -0.265 OA
BRANCH  14  16
ATOM     16  C   UNL d   1      32.796  18.958 -23.289  0.00  0.00     0.058 A 
ATOM     17  C   UNL d   1      32.860  19.713 -23.627  0.00  0.00     0.005 A 
ATOM     18  C   UNL d   1      33.009  20.368 -23.137  0.00  0.00     0.007 A 
ATOM     19  C   UNL d   1      33.092  20.266 -22.321  0.00  0.00     0.035 A 
ATOM     20  C   UNL d   1      33.026  19.499 -21.989  0.00  0.00     0.007 A 
ATOM     21 BR   UNL d   1      33.241  20.920 -21.832  0.00  0.00    -0.049 Br
ATOM     22  C   UNL d   1      32.878  18.851 -22.475  0.00  0.00     0.005 A 
ENDBRANCH  14  16
ENDBRANCH   1  13
TORSDOF 3
ENDMDL
MODEL 2
REMARK VINA RESULT:      -2.0      1.377      1.948
REMARK  3 active torsions:
REMARK  status: ('A' for Active; 'I' for Inactive)
REMARK    1  A    between atoms: N_2  and  C_1 
REMARK    2  A    between atoms: N_3  and  C_1 
REMARK       I    between atoms: C_4  and  N_3 
REMARK    3  A    between atoms: C_7  and  C_4 
ROOT
ATOM      1  C   UNL d   1      30.685  16.031 -24.109  0.00  0.00     0.209 C 
ATOM      2  S   UNL d   1      30.937  15.479 -24.678  0.00  0.00    -0.038 SA
ENDROOT
BRANCH   1   3
ATOM      3  N   UNL d   1      30.089  15.839 -23.578  0.00  0.00    -0.282 N 
ATOM      4  C   UNL d   1      29.310  15.743 -23.852  0.00  0.00     0.066 A 
ATOM      5  C   UNL d   1      28.714  15.551 -23.322  0.00  0.00     0.016 A 
ATOM      6  C   UNL d   1      29.134  15.840 -24.646  0.00  0.00     0.018 A 
ATOM      7  C   UNL d   1      27.944  15.455 -23.583  0.00  0.00     0.001 A 
ATOM      8  C   UNL d   1      28.884  15.452 -22.522  0.00  0.00     0.003 A 
ATOM      9  C   UNL d   1      27.768  15.553 -24.380  0.00  0.00     0.000 A 
ATOM     10  C   UNL d   1      28.357  15.744 -24.914  0.00  0.00     0.002 A 
ATOM     11  C   UNL d   1      29.660  15.548 -22.254  0.00  0.00     0.019 A 
ATOM     12  C   UNL d   1      30.260  15.741 -22.783  0.00  0.00     0.082 A 
ENDBRANCH   1   3
BRANCH   1  13
ATOM     13  N   UNL d   1      31.041  16.781 -24.078  0.00  0.00    -0.180 NA
ATOM     14  C   UNL d   1      31.809  16.881 -24.382  0.00  0.00     0.281 C 
ATOM     15  O   UNL d   1      32.214  16.246 -24.709  0.00  0.00    -0.265 OA
BRANCH  14  16
ATOM     16  C   UNL d   1      32.169  17.638 -24.351  0.00  0.00     0.058 A 
ATOM     17  C   UNL d   1      32.512  17.898 -23.642  0.00  0.00     0.005 A 
ATOM     18  C   UNL d   1      32.869  18.648 -23.612  0.00  0.00     0.007 A 
ATOM     19  C   UNL d   1      32.880  19.129 -24.284  0.00  0.00     0.035 A 
ATOM     20  C   UNL d   1      32.531  18.858 -24.996  0.00  0.00     0.007 A 
ATOM     21 BR   UNL d   1      33.237  19.879 -24.254  0.00  0.00    -0.049 Br
ATOM     22  C   UNL d   1      32.178  18.115 -25.025  0.00  0.00     0.005 A 
ENDBRANCH  14  16
ENDBRANCH   1  13
TORSDOF 3
ENDMDL
MODEL 3
REMARK VINA RESULT:      -1.2      2.982      5.454
REMARK  3 active torsions:
REMARK  status: ('A' for Active; 'I' for Inactive)
REMARK    1  A    between atoms: N_2  and  C_1 
REMARK    2  A    between atoms: N_3  and  C_1 
REMARK       I    between atoms: C_4  and  N_3 
REMARK    3  A    between atoms: C_7  and  C_4 
ROOT
ATOM      1  C   UNL d   1      33.052  21.041 -22.059  0.00  0.00     0.209 C 
ATOM      2  S   UNL d   1      33.179  20.813 -21.269  0.00  0.00    -0.038 SA
ENDROOT
BRANCH   1   3
ATOM      3  N   UNL d   1      32.967  21.834 -22.254  0.00  0.00    -0.282 N 
ATOM      4  C   UNL d   1      32.608  22.354 -21.715  0.00  0.00     0.066 A 
ATOM      5  C   UNL d   1      32.523  23.147 -21.910  0.00  0.00     0.016 A 
ATOM      6  C   UNL d   1      32.337  22.081 -20.992  0.00  0.00     0.018 A 
ATOM      7  C   UNL d   1      32.169  23.666 -21.384  0.00  0.00     0.001 A 
ATOM      8  C   UNL d   1      32.793  23.428 -22.635  0.00  0.00     0.003 A 
ATOM      9  C   UNL d   1      31.899  23.390 -20.659  0.00  0.00     0.000 A 
ATOM     10  C   UNL d   1      31.980  22.602 -20.458  0.00  0.00     0.002 A 
ATOM     11  C   UNL d   1      33.150  22.908 -23.169  0.00  0.00     0.019 A 
ATOM     12  C   UNL d   1      33.237  22.112 -22.977  0.00  0.00     0.082 A 
ENDBRANCH   1   3
BRANCH   1  13
ATOM     13  N   UNL d   1      33.011  20.461 -22.653  0.00  0.00    -0.180 NA
ATOM     14  C   UNL d   1      33.083  19.659 -22.446  0.00  0.00     0.281 C 
ATOM     15  O   UNL d   1      33.195  19.438 -21.663  0.00  0.00    -0.265 OA
BRANCH  14  16
ATOM     16  C   UNL d   1      33.042  19.074 -23.045  0.00  0.00     0.058 A 
ATOM     17  C   UNL d   1      33.028  18.272 -22.831  0.00  0.00     0.005 A 
ATOM     18  C   UNL d   1      32.987  17.692 -23.425  0.00  0.00     0.007 A 
ATOM     19  C   UNL d   1      32.960  17.914 -24.221  0.00  0.00     0.035 A 
ATOM     20  C   UNL d   1      32.975  18.726 -24.427  0.00  0.00     0.007 A 
ATOM     21 BR   UNL d   1      32.919  17.334 -24.815  0.00  0.00    -0.049 Br
ATOM     22  C   UNL d   1      33.015  19.300 -23.839  0.00  0.00     0.005 A 
ENDBRANCH  14  16
ENDBRANCH   1  13
TORSDOF 3
ENDMDL
MODEL 4
REMARK VINA RESULT:      -1.0      1.821      4.613
REMARK  3 active torsions:
REMARK  status: ('A' for Active; 'I' for Inactive)
REMARK    1  A    between atoms: N_2  and  C_1 
REMARK    2  A    between atoms: N_3  and  C_1 
REMARK       I    between atoms: C_4  and  N_3 
REMARK    3  A    between atoms: C_7  and  C_4 
ROOT
ATOM      1  C   UNL d   1      32.731  19.064 -23.311  0.00  0.00     0.209 C 
ATOM      2  S   UNL d   1      33.240  18.569 -22.876  0.00  0.00    -0.038 SA
ENDROOT
BRANCH   1   3
ATOM      3  N   UNL d   1      32.901  19.862 -23.397  0.00  0.00    -0.282 N 
ATOM      4  C   UNL d   1      32.909  20.356 -22.729  0.00  0.00     0.066 A 
ATOM      5  C   UNL d   1      33.079  21.154 -22.816  0.00  0.00     0.016 A 
ATOM      6  C   UNL d   1      32.749  20.052 -21.986  0.00  0.00     0.018 A 
ATOM      7  C   UNL d   1      33.089  21.647 -22.162  0.00  0.00     0.001 A 
ATOM      8  C   UNL d   1      33.240  21.467 -23.560  0.00  0.00     0.003 A 
ATOM      9  C   UNL d   1      32.928  21.341 -21.417  0.00  0.00     0.000 A 
ATOM     10  C   UNL d   1      32.758  20.546 -21.324  0.00  0.00     0.002 A 
ATOM     11  C   UNL d   1      33.231  20.972 -24.223  0.00  0.00     0.019 A 
ATOM     12  C   UNL d   1      33.061  20.172 -24.140  0.00  0.00     0.082 A 
ENDBRANCH   1   3
BRANCH   1  13
ATOM     13  N   UNL d   1      32.047  18.745 -23.659  0.00  0.00    -0.180 NA
ATOM     14  C   UNL d   1      31.930  17.921 -23.649  0.00  0.00     0.281 C 
ATOM     15  O   UNL d   1      32.484  17.425 -23.300  0.00  0.00    -0.265 OA
BRANCH  14  16
ATOM     16  C   UNL d   1      31.240  17.599 -24.000  0.00  0.00     0.058 A 
ATOM     17  C   UNL d   1      30.954  17.923 -24.709  0.00  0.00     0.005 A 
ATOM     18  C   UNL d   1      30.270  17.603 -25.056  0.00  0.00     0.007 A 
ATOM     19  C   UNL d   1      29.880  16.969 -24.698  0.00  0.00     0.035 A 
ATOM     20  C   UNL d   1      30.177  16.649 -23.982  0.00  0.00     0.007 A 
ATOM     21 BR   UNL d   1      29.196  16.649 -25.045  0.00  0.00    -0.049 Br
ATOM     22  C   UNL d   1      30.854  16.965 -23.638  0.00  0.00     0.005 A 
ENDBRANCH  14  16
ENDBRANCH   1  13
TORSDOF 3
ENDMDL
MODEL 5
REMARK VINA RESULT:      -1.0      2.208      4.353
REMARK  3 active torsions:
REMARK  status: ('A' for Active; 'I' for Inactive)
REMARK    1  A    between atoms: N_2  and  C_1 
REMARK    2  A    between atoms: N_3  and  C_1 
REMARK       I    between atoms: C_4  and  N_3 
REMARK    3  A    between atoms: C_7  and  C_4 
ROOT
ATOM      1  C   UNL d   1      31.032  17.286 -24.398  0.00  0.00     0.209 C 
ATOM      2  S   UNL d   1      30.975  17.839 -25.017  0.00  0.00    -0.038 SA
ENDROOT
BRANCH   1   3
ATOM      3  N   UNL d   1      31.752  17.149 -24.029  0.00  0.00    -0.282 N 
ATOM      4  C   UNL d   1      32.136  17.770 -23.633  0.00  0.00     0.066 A 
ATOM      5  C   UNL d   1      32.856  17.632 -23.264  0.00  0.00     0.016 A 
ATOM      6  C   UNL d   1      31.801  18.516 -23.607  0.00  0.00     0.018 A 
ATOM      7  C   UNL d   1      33.241  18.239 -22.870  0.00  0.00     0.001 A 
ATOM      8  C   UNL d   1      33.199  16.884 -23.285  0.00  0.00     0.003 A 
ATOM      9  C   UNL d   1      32.904  18.988 -22.846  0.00  0.00     0.000 A 
ATOM     10  C   UNL d   1      32.186  19.132 -23.211  0.00  0.00     0.002 A 
ATOM     11  C   UNL d   1      32.814  16.269 -23.681  0.00  0.00     0.019 A 
ATOM     12  C   UNL d   1      32.092  16.403 -24.052  0.00  0.00     0.082 A 
ENDBRANCH   1   3
BRANCH   1  13
ATOM     13  N   UNL d   1      30.355  16.871 -24.154  0.00  0.00    -0.180 NA
ATOM     14  C   UNL d   1      29.608  17.107 -24.434  0.00  0.00     0.281 C 
ATOM     15  O   UNL d   1      29.537  17.745 -24.946  0.00  0.00    -0.265 OA
BRANCH  14  16
ATOM     16  C   UNL d   1      28.925  16.688 -24.188  0.00  0.00     0.058 A 
ATOM     17  C   UNL d   1      28.450  17.001 -23.583  0.00  0.00     0.005 A 
ATOM     18  C   UNL d   1      27.773  16.586 -23.339  0.00  0.00     0.007 A 
ATOM     19  C   UNL d   1      27.576  15.868 -23.697  0.00  0.00     0.035 A 
ATOM     20  C   UNL d   1      28.061  15.560 -24.307  0.00  0.00     0.007 A 
ATOM     21 BR   UNL d   1      26.898  15.453 -23.454  0.00  0.00    -0.049 Br
ATOM     22  C   UNL d   1      28.731  15.971 -24.548  0.00  0.00     0.005 A 
ENDBRANCH  14  16
ENDBRANCH   1  13
TORSDOF 3
ENDMDL
MODEL 6
REMARK VINA RESULT:      -0.9      2.121      4.802
REMARK  3 active torsions:
REMARK  status: ('A' for Active; 'I' for Inactive)
REMARK    1  A    between atoms: N_2  and  C_1 
REMARK    2  A    between atoms: N_3  and  C_1 
REMARK       I    between atoms: C_4  and  N_3 
REMARK    3  A    between atoms: C_7  and  C_4 
ROOT
ATOM      1  C   UNL d   1      33.004  20.019 -22.710  0.00  0.00     0.209 C 
ATOM      2  S   UNL d   1      33.241  20.435 -23.391  0.00  0.00    -0.038 SA
ENDROOT
BRANCH   1   3
ATOM      3  N   UNL d   1      33.030  20.378 -21.973  0.00  0.00    -0.282 N 
ATOM      4  C   UNL d   1      32.869  21.190 -21.905  0.00  0.00     0.066 A 
ATOM      5  C   UNL d   1      32.895  21.550 -21.168  0.00  0.00     0.016 A 
ATOM      6  C   UNL d   1      32.683  21.634 -22.568  0.00  0.00     0.018 A 
ATOM      7  C   UNL d   1      32.737  22.350 -21.092  0.00  0.00     0.001 A 
ATOM      8  C   UNL d   1      33.081  21.110 -20.497  0.00  0.00     0.003 A 
ATOM      9  C   UNL d   1      32.551  22.793 -21.758  0.00  0.00     0.000 A 
ATOM     10  C   UNL d   1      32.523  22.442 -22.496  0.00  0.00     0.002 A 
ATOM     11  C   UNL d   1      33.241  20.302 -20.568  0.00  0.00     0.019 A 
ATOM     12  C   UNL d   1      33.215  19.938 -21.306  0.00  0.00     0.082 A 
ENDBRANCH   1   3
BRANCH   1  13
ATOM     13  N   UNL d   1      32.740  19.234 -22.780  0.00  0.00    -0.180 NA
ATOM     14  C   UNL d   1      32.755  18.863 -23.524  0.00  0.00     0.281 C 
ATOM     15  O   UNL d   1      33.026  19.266 -24.186  0.00  0.00    -0.265 OA
BRANCH  14  16
ATOM     16  C   UNL d   1      32.488  18.071 -23.595  0.00  0.00     0.058 A 
ATOM     17  C   UNL d   1      33.020  17.448 -23.457  0.00  0.00     0.005 A 
ATOM     18  C   UNL d   1      32.756  16.664 -23.527  0.00  0.00     0.007 A 
ATOM     19  C   UNL d   1      31.971  16.507 -23.733  0.00  0.00     0.035 A 
ATOM     20  C   UNL d   1      31.442  17.142 -23.871  0.00  0.00     0.007 A 
ATOM     21 BR   UNL d   1      31.707  15.722 -23.804  0.00  0.00    -0.049 Br
ATOM     22  C   UNL d   1      31.704  17.919 -23.802  0.00  0.00     0.005 A 
ENDBRANCH  14  16
ENDBRANCH   1  13
TORSDOF 3
ENDMDL
MODEL 7
REMARK VINA RESULT:      -0.7      2.558      3.553
REMARK  3 active torsions:
REMARK  status: ('A' for Active; 'I' for Inactive)
REMARK    1  A    between atoms: N_2  and  C_1 
REMARK    2  A    between atoms: N_3  and  C_1 
REMARK       I    between atoms: C_4  and  N_3 
REMARK    3  A    between atoms: C_7  and  C_4 
ROOT
ATOM      1  C   UNL d   1      33.106  19.504 -22.626  0.00  0.00     0.209 C 
ATOM      2  S   UNL d   1      33.215  18.941 -22.023  0.00  0.00    -0.038 SA
ENDROOT
BRANCH   1   3
ATOM      3  N   UNL d   1      33.120  19.276 -23.415  0.00  0.00    -0.282 N 
ATOM      4  C   UNL d   1      33.052  18.472 -23.612  0.00  0.00     0.066 A 
ATOM      5  C   UNL d   1      33.066  18.244 -24.400  0.00  0.00     0.016 A 
ATOM      6  C   UNL d   1      32.971  17.906 -23.026  0.00  0.00     0.018 A 
ATOM      7  C   UNL d   1      32.999  17.453 -24.603  0.00  0.00     0.001 A 
ATOM      8  C   UNL d   1      33.147  18.807 -24.995  0.00  0.00     0.003 A 
ATOM      9  C   UNL d   1      32.918  16.886 -24.014  0.00  0.00     0.000 A 
ATOM     10  C   UNL d   1      32.903  17.106 -23.226  0.00  0.00     0.002 A 
ATOM     11  C   UNL d   1      33.215  19.607 -24.794  0.00  0.00     0.019 A 
ATOM     12  C   UNL d   1      33.201  19.839 -24.005  0.00  0.00     0.082 A 
ENDBRANCH   1   3
BRANCH   1  13
ATOM     13  N   UNL d   1      32.982  20.301 -22.427  0.00  0.00    -0.180 NA
ATOM     14  C   UNL d   1      32.857  20.508 -21.631  0.00  0.00     0.281 C 
ATOM     15  O   UNL d   1      32.856  19.933 -21.045  0.00  0.00    -0.265 OA
BRANCH  14  16
ATOM     16  C   UNL d   1      32.732  21.312 -21.429  0.00  0.00     0.058 A 
ATOM     17  C   UNL d   1      33.241  21.893 -21.735  0.00  0.00     0.005 A 
ATOM     18  C   UNL d   1      33.117  22.690 -21.535  0.00  0.00     0.007 A 
ATOM     19  C   UNL d   1      32.492  22.900 -21.036  0.00  0.00     0.035 A 
ATOM     20  C   UNL d   1      31.984  22.307 -20.733  0.00  0.00     0.007 A 
ATOM     21 BR   UNL d   1      32.368  23.697 -20.836  0.00  0.00    -0.049 Br
ATOM     22  C   UNL d   1      32.107  21.518 -20.931  0.00  0.00     0.005 A 
ENDBRANCH  14  16
ENDBRANCH   1  13
TORSDOF 3
ENDMDL
