MODEL 1
REMARK VINA RESULT:      42.3      0.000      0.000
REMARK  1 active torsions:
REMARK  status: ('A' for Active; 'I' for Inactive)
REMARK    1  A    between atoms: C_15  and  C_10 
ROOT
ATOM      1  C   UNL d   1      13.387  14.097  -4.804  0.00  0.00     0.111 A 
ATOM      2  C   UNL d   1      13.436  13.077  -3.811  0.00  0.00     0.062 A 
ATOM      3  C   UNL d   1      13.815  13.584  -3.309  0.00  0.00     0.105 A 
ATOM      4  C   UNL d   1      13.766  14.604  -4.302  0.00  0.00     0.213 A 
ATOM      5  C   UNL d   1      13.218  13.330  -4.565  0.00  0.00     0.018 A 
ATOM      6  O   UNL d   1      13.983  14.354  -3.552  0.00  0.00    -0.287 OA
ATOM      7  C   UNL d   1      13.252  12.269  -3.577  0.00  0.00     0.198 A 
ATOM      8  C   UNL d   1      13.168  14.354  -5.562  0.00  0.00     0.105 C 
ATOM      9  C   UNL d   1      14.050  13.338  -2.519  0.00  0.00     0.025 A 
ATOM     10  C   UNL d   1      13.873  12.547  -2.281  0.00  0.00     0.005 A 
ATOM     11  C   UNL d   1      13.475  12.014  -2.808  0.00  0.00     0.042 A 
ATOM     12  N   UNL d   1      12.961  14.610  -6.293  0.00  0.00    -0.191 NA
ATOM     13  O   UNL d   1      12.957  11.876  -3.966  0.00  0.00    -0.286 OA
ATOM     14  N   UNL d   1      13.933  15.378  -4.549  0.00  0.00    -0.120 N 
ATOM     15  C   UNL d   1      12.814  12.766  -5.080  0.00  0.00     0.001 C 
ENDROOT
BRANCH  10  16
ATOM     16  C   UNL d   1      14.090  12.305  -1.538  0.00  0.00     0.000 A 
ATOM     17  C   UNL d   1      14.879  12.299  -1.299  0.00  0.00     0.000 A 
ATOM     18  C   UNL d   1      15.079  12.055  -0.557  0.00  0.00     0.000 A 
ATOM     19  C   UNL d   1      14.494  11.803  -0.015  0.00  0.00     0.000 A 
ATOM     20  C   UNL d   1      13.713  11.812  -0.261  0.00  0.00     0.000 A 
ATOM     21  C   UNL d   1      13.503  12.063  -1.027  0.00  0.00     0.000 A 
ENDBRANCH  10  16
TORSDOF 1
ENDMDL
MODEL 2
REMARK VINA RESULT:      45.1      1.974      2.495
REMARK  1 active torsions:
REMARK  status: ('A' for Active; 'I' for Inactive)
REMARK    1  A    between atoms: C_15  and  C_10 
ROOT
ATOM      1  C   UNL d   1      13.389  12.868  -3.997  0.00  0.00     0.111 A 
ATOM      2  C   UNL d   1      14.031  13.167  -2.761  0.00  0.00     0.062 A 
ATOM      3  C   UNL d   1      14.011  13.954  -2.941  0.00  0.00     0.105 A 
ATOM      4  C   UNL d   1      13.369  13.655  -4.178  0.00  0.00     0.213 A 
ATOM      5  C   UNL d   1      13.718  12.615  -3.289  0.00  0.00     0.018 A 
ATOM      6  O   UNL d   1      13.679  14.205  -3.653  0.00  0.00    -0.287 OA
ATOM      7  C   UNL d   1      14.372  12.885  -2.023  0.00  0.00     0.198 A 
ATOM      8  C   UNL d   1      13.074  12.315  -4.530  0.00  0.00     0.105 C 
ATOM      9  C   UNL d   1      14.331  14.544  -2.403  0.00  0.00     0.025 A 
ATOM     10  C   UNL d   1      14.669  14.276  -1.677  0.00  0.00     0.005 A 
ATOM     11  C   UNL d   1      14.689  13.448  -1.487  0.00  0.00     0.042 A 
ATOM     12  N   UNL d   1      12.769  11.787  -5.050  0.00  0.00    -0.191 NA
ATOM     13  O   UNL d   1      14.388  12.274  -1.883  0.00  0.00    -0.286 OA
ATOM     14  N   UNL d   1      13.035  13.904  -4.894  0.00  0.00    -0.120 N 
ATOM     15  C   UNL d   1      13.753  11.780  -3.069  0.00  0.00     0.001 C 
ENDROOT
BRANCH  10  16
ATOM     16  C   UNL d   1      14.973  14.823  -1.162  0.00  0.00     0.000 A 
ATOM     17  C   UNL d   1      15.437  14.599  -0.518  0.00  0.00     0.000 A 
ATOM     18  C   UNL d   1      15.733  15.156  -0.014  0.00  0.00     0.000 A 
ATOM     19  C   UNL d   1      15.578  15.969  -0.133  0.00  0.00     0.000 A 
ATOM     20  C   UNL d   1      15.117  16.182  -0.775  0.00  0.00     0.000 A 
ATOM     21  C   UNL d   1      14.809  15.610  -1.297  0.00  0.00     0.000 A 
ENDBRANCH  10  16
TORSDOF 1
ENDMDL
