MODEL 1
REMARK VINA RESULT:      -6.6      0.000      0.000
REMARK  6 active torsions:
REMARK  status: ('A' for Active; 'I' for Inactive)
REMARK    1  A    between atoms: C_2  and  C_4 
REMARK    2  A    between atoms: C_5  and  C_3 
REMARK    3  A    between atoms: C_16  and  C_15 
REMARK    4  A    between atoms: C_17  and  C_16 
REMARK    5  A    between atoms: C_19  and  C_17 
REMARK    6  A    between atoms: C_18  and  C_19 
ROOT
ATOM      1  N   UNL d   1     -48.202  12.066  23.407  0.00  0.00    -0.244 NA
ATOM      2  C   UNL d   1     -47.957  12.817  23.119  0.00  0.00     0.081 A 
ATOM      3  C   UNL d   1     -47.132  12.975  23.024  0.00  0.00     0.019 A 
ATOM      4  C   UNL d   1     -47.627  11.456  23.606  0.00  0.00     0.099 A 
ATOM      5  C   UNL d   1     -46.582  12.403  23.210  0.00  0.00     0.003 A 
ATOM      6  C   UNL d   1     -46.827  11.652  23.498  0.00  0.00     0.019 A 
ENDROOT
BRANCH   2   7
ATOM      7  C   UNL d   1     -48.505  13.357  22.945  0.00  0.00     0.018 A 
ATOM      8  C   UNL d   1     -49.255  13.116  22.737  0.00  0.00     0.002 A 
ATOM      9  C   UNL d   1     -49.833  13.708  22.552  0.00  0.00     0.006 A 
ATOM     10  C   UNL d   1     -49.637  14.501  22.583  0.00  0.00     0.064 A 
ATOM     11  C   UNL d   1     -48.848  14.733  22.802  0.00  0.00     0.006 A 
ATOM     12  C   UNL d   1     -48.306  14.150  22.977  0.00  0.00     0.002 A 
BRANCH  10  13
ATOM     13  C   UNL d   1     -50.213  15.093  22.399  0.00  0.00     0.211 C 
ATOM     14  O   UNL d   1     -50.854  14.966  21.874  0.00  0.00    -0.644 OA
ATOM     15  O   UNL d   1     -50.156  15.864  22.755  0.00  0.00    -0.644 OA
ENDBRANCH  10  13
ENDBRANCH   2   7
BRANCH   6  16
ATOM     16  C   UNL d   1     -46.253  11.039  23.698  0.00  0.00     0.002 C 
BRANCH  16  17
ATOM     17  C   UNL d   1     -45.502  11.110  23.392  0.00  0.00     0.000 C 
BRANCH  17  18
ATOM     18  C   UNL d   1     -44.951  10.473  23.490  0.00  0.00     0.000 C 
BRANCH  18  19
ATOM     19  C   UNL d   1     -44.172  10.560  23.356  0.00  0.00     0.000 C 
ATOM     20  C   UNL d   1     -43.620  10.060  23.697  0.00  0.00     0.000 C 
ENDBRANCH  18  19
ENDBRANCH  17  18
ENDBRANCH  16  17
ENDBRANCH   6  16
TORSDOF 6
ENDMDL
MODEL 2
REMARK VINA RESULT:      -5.8      2.753      5.271
REMARK  6 active torsions:
REMARK  status: ('A' for Active; 'I' for Inactive)
REMARK    1  A    between atoms: C_2  and  C_4 
REMARK    2  A    between atoms: C_5  and  C_3 
REMARK    3  A    between atoms: C_16  and  C_15 
REMARK    4  A    between atoms: C_17  and  C_16 
REMARK    5  A    between atoms: C_19  and  C_17 
REMARK    6  A    between atoms: C_18  and  C_19 
ROOT
ATOM      1  N   UNL d   1     -47.792  11.952  23.453  0.00  0.00    -0.244 NA
ATOM      2  C   UNL d   1     -47.073  12.283  23.166  0.00  0.00     0.081 A 
ATOM      3  C   UNL d   1     -47.081  13.056  22.825  0.00  0.00     0.019 A 
ATOM      4  C   UNL d   1     -48.532  12.388  23.405  0.00  0.00     0.099 A 
ATOM      5  C   UNL d   1     -47.778  13.475  22.777  0.00  0.00     0.003 A 
ATOM      6  C   UNL d   1     -48.496  13.145  23.063  0.00  0.00     0.019 A 
ENDROOT
BRANCH   2   7
ATOM      7  C   UNL d   1     -46.409  11.861  23.222  0.00  0.00     0.018 A 
ATOM      8  C   UNL d   1     -46.411  11.161  23.638  0.00  0.00     0.002 A 
ATOM      9  C   UNL d   1     -45.689  10.720  23.690  0.00  0.00     0.006 A 
ATOM     10  C   UNL d   1     -45.009  10.995  23.328  0.00  0.00     0.064 A 
ATOM     11  C   UNL d   1     -45.027  11.729  22.898  0.00  0.00     0.006 A 
ATOM     12  C   UNL d   1     -45.730  12.140  22.859  0.00  0.00     0.002 A 
BRANCH  10  13
ATOM     13  C   UNL d   1     -44.288  10.555  23.379  0.00  0.00     0.211 C 
ATOM     14  O   UNL d   1     -43.530  10.897  23.277  0.00  0.00    -0.644 OA
ATOM     15  O   UNL d   1     -44.312   9.719  23.541  0.00  0.00    -0.644 OA
ENDBRANCH  10  13
ENDBRANCH   2   7
BRANCH   6  16
ATOM     16  C   UNL d   1     -49.241  13.579  23.017  0.00  0.00     0.002 C 
BRANCH  16  17
ATOM     17  C   UNL d   1     -49.252  14.341  23.303  0.00  0.00     0.000 C 
BRANCH  17  18
ATOM     18  C   UNL d   1     -49.988  14.760  23.343  0.00  0.00     0.000 C 
BRANCH  18  19
ATOM     19  C   UNL d   1     -50.035  15.518  23.577  0.00  0.00     0.000 C 
ATOM     20  C   UNL d   1     -50.757  15.886  23.697  0.00  0.00     0.000 C 
ENDBRANCH  18  19
ENDBRANCH  17  18
ENDBRANCH  16  17
ENDBRANCH   6  16
TORSDOF 6
ENDMDL
MODEL 3
REMARK VINA RESULT:      -5.8      2.839      5.318
REMARK  6 active torsions:
REMARK  status: ('A' for Active; 'I' for Inactive)
REMARK    1  A    between atoms: C_2  and  C_4 
REMARK    2  A    between atoms: C_5  and  C_3 
REMARK    3  A    between atoms: C_16  and  C_15 
REMARK    4  A    between atoms: C_17  and  C_16 
REMARK    5  A    between atoms: C_19  and  C_17 
REMARK    6  A    between atoms: C_18  and  C_19 
ROOT
ATOM      1  N   UNL d   1     -46.923  13.820  23.153  0.00  0.00    -0.244 NA
ATOM      2  C   UNL d   1     -46.777  13.242  22.559  0.00  0.00     0.081 A 
ATOM      3  C   UNL d   1     -47.421  12.955  22.093  0.00  0.00     0.019 A 
ATOM      4  C   UNL d   1     -47.717  14.123  23.293  0.00  0.00     0.099 A 
ATOM      5  C   UNL d   1     -48.175  13.237  22.219  0.00  0.00     0.003 A 
ATOM      6  C   UNL d   1     -48.322  13.815  22.813  0.00  0.00     0.019 A 
ENDROOT
BRANCH   2   7
ATOM      7  C   UNL d   1     -46.040  12.982  22.452  0.00  0.00     0.018 A 
ATOM      8  C   UNL d   1     -45.548  13.372  21.933  0.00  0.00     0.002 A 
ATOM      9  C   UNL d   1     -44.759  13.080  21.828  0.00  0.00     0.006 A 
ATOM     10  C   UNL d   1     -44.503  12.422  22.241  0.00  0.00     0.064 A 
ATOM     11  C   UNL d   1     -45.032  12.028  22.779  0.00  0.00     0.006 A 
ATOM     12  C   UNL d   1     -45.787  12.323  22.867  0.00  0.00     0.002 A 
BRANCH  10  13
ATOM     13  C   UNL d   1     -43.715  12.130  22.137  0.00  0.00     0.211 C 
ATOM     14  O   UNL d   1     -43.152  12.490  21.632  0.00  0.00    -0.644 OA
ATOM     15  O   UNL d   1     -43.463  11.435  22.559  0.00  0.00    -0.644 OA
ENDBRANCH  10  13
ENDBRANCH   2   7
BRANCH   6  16
ATOM     16  C   UNL d   1     -49.116  14.121  22.956  0.00  0.00     0.002 C 
BRANCH  16  17
ATOM     17  C   UNL d   1     -49.192  14.915  23.119  0.00  0.00     0.000 C 
BRANCH  17  18
ATOM     18  C   UNL d   1     -49.942  15.293  23.007  0.00  0.00     0.000 C 
BRANCH  18  19
ATOM     19  C   UNL d   1     -50.206  15.866  23.490  0.00  0.00     0.000 C 
ATOM     20  C   UNL d   1     -50.997  15.921  23.698  0.00  0.00     0.000 C 
ENDBRANCH  18  19
ENDBRANCH  17  18
ENDBRANCH  16  17
ENDBRANCH   6  16
TORSDOF 6
ENDMDL
MODEL 4
REMARK VINA RESULT:      -5.1      8.798     10.174
REMARK  6 active torsions:
REMARK  status: ('A' for Active; 'I' for Inactive)
REMARK    1  A    between atoms: C_2  and  C_4 
REMARK    2  A    between atoms: C_5  and  C_3 
REMARK    3  A    between atoms: C_16  and  C_15 
REMARK    4  A    between atoms: C_17  and  C_16 
REMARK    5  A    between atoms: C_19  and  C_17 
REMARK    6  A    between atoms: C_18  and  C_19 
ROOT
ATOM      1  N   UNL d   1     -38.687  14.491  18.309  0.00  0.00    -0.244 NA
ATOM      2  C   UNL d   1     -39.498  14.326  18.461  0.00  0.00     0.081 A 
ATOM      3  C   UNL d   1     -39.920  13.810  17.941  0.00  0.00     0.019 A 
ATOM      4  C   UNL d   1     -38.281  14.142  17.636  0.00  0.00     0.099 A 
ATOM      5  C   UNL d   1     -39.542  13.476  17.301  0.00  0.00     0.003 A 
ATOM      6  C   UNL d   1     -38.731  13.640  17.150  0.00  0.00     0.019 A 
ENDROOT
BRANCH   2   7
ATOM      7  C   UNL d   1     -39.846  14.659  19.085  0.00  0.00     0.018 A 
ATOM      8  C   UNL d   1     -40.339  15.299  18.977  0.00  0.00     0.002 A 
ATOM      9  C   UNL d   1     -40.706  15.646  19.657  0.00  0.00     0.006 A 
ATOM     10  C   UNL d   1     -40.565  15.342  20.403  0.00  0.00     0.064 A 
ATOM     11  C   UNL d   1     -40.047  14.673  20.496  0.00  0.00     0.006 A 
ATOM     12  C   UNL d   1     -39.703  14.352  19.830  0.00  0.00     0.002 A 
BRANCH  10  13
ATOM     13  C   UNL d   1     -40.931  15.688  21.084  0.00  0.00     0.211 C 
ATOM     14  O   UNL d   1     -41.735  15.922  21.107  0.00  0.00    -0.644 OA
ATOM     15  O   UNL d   1     -40.475  15.813  21.792  0.00  0.00    -0.644 OA
ENDBRANCH  10  13
ENDBRANCH   2   7
BRANCH   6  16
ATOM     16  C   UNL d   1     -38.320  13.292  16.475  0.00  0.00     0.002 C 
BRANCH  16  17
ATOM     17  C   UNL d   1     -38.141  13.780  15.849  0.00  0.00     0.000 C 
BRANCH  17  18
ATOM     18  C   UNL d   1     -38.032  13.445  15.078  0.00  0.00     0.000 C 
BRANCH  18  19
ATOM     19  C   UNL d   1     -37.945  13.894  14.427  0.00  0.00     0.000 C 
ATOM     20  C   UNL d   1     -37.940  13.565  13.677  0.00  0.00     0.000 C 
ENDBRANCH  18  19
ENDBRANCH  17  18
ENDBRANCH  16  17
ENDBRANCH   6  16
TORSDOF 6
ENDMDL
MODEL 5
REMARK VINA RESULT:      -4.5      9.080     10.428
REMARK  6 active torsions:
REMARK  status: ('A' for Active; 'I' for Inactive)
REMARK    1  A    between atoms: C_2  and  C_4 
REMARK    2  A    between atoms: C_5  and  C_3 
REMARK    3  A    between atoms: C_16  and  C_15 
REMARK    4  A    between atoms: C_17  and  C_16 
REMARK    5  A    between atoms: C_19  and  C_17 
REMARK    6  A    between atoms: C_18  and  C_19 
ROOT
ATOM      1  N   UNL d   1     -38.897  15.398  18.966  0.00  0.00    -0.244 NA
ATOM      2  C   UNL d   1     -39.166  14.776  19.463  0.00  0.00     0.081 A 
ATOM      3  C   UNL d   1     -39.467  14.067  19.113  0.00  0.00     0.019 A 
ATOM      4  C   UNL d   1     -38.923  15.327  18.109  0.00  0.00     0.099 A 
ATOM      5  C   UNL d   1     -39.495  13.992  18.302  0.00  0.00     0.003 A 
ATOM      6  C   UNL d   1     -39.227  14.615  17.805  0.00  0.00     0.019 A 
ENDROOT
BRANCH   2   7
ATOM      7  C   UNL d   1     -39.130  14.868  20.246  0.00  0.00     0.018 A 
ATOM      8  C   UNL d   1     -38.465  14.626  20.649  0.00  0.00     0.002 A 
ATOM      9  C   UNL d   1     -38.441  14.731  21.489  0.00  0.00     0.006 A 
ATOM     10  C   UNL d   1     -39.074  15.069  21.882  0.00  0.00     0.064 A 
ATOM     11  C   UNL d   1     -39.761  15.315  21.443  0.00  0.00     0.006 A 
ATOM     12  C   UNL d   1     -39.766  15.205  20.635  0.00  0.00     0.002 A 
BRANCH  10  13
ATOM     13  C   UNL d   1     -39.052  15.174  22.722  0.00  0.00     0.211 C 
ATOM     14  O   UNL d   1     -39.113  15.922  23.094  0.00  0.00    -0.644 OA
ATOM     15  O   UNL d   1     -38.964  14.498  23.231  0.00  0.00    -0.644 OA
ENDBRANCH  10  13
ENDBRANCH   2   7
BRANCH   6  16
ATOM     16  C   UNL d   1     -39.252  14.546  16.945  0.00  0.00     0.002 C 
BRANCH  16  17
ATOM     17  C   UNL d   1     -38.590  14.258  16.569  0.00  0.00     0.000 C 
BRANCH  17  18
ATOM     18  C   UNL d   1     -38.603  14.148  15.729  0.00  0.00     0.000 C 
BRANCH  18  19
ATOM     19  C   UNL d   1     -37.940  14.046  15.302  0.00  0.00     0.000 C 
ATOM     20  C   UNL d   1     -37.951  13.668  14.576  0.00  0.00     0.000 C 
ENDBRANCH  18  19
ENDBRANCH  17  18
ENDBRANCH  16  17
ENDBRANCH   6  16
TORSDOF 6
ENDMDL
MODEL 6
REMARK VINA RESULT:      -4.5      9.462     10.807
REMARK  6 active torsions:
REMARK  status: ('A' for Active; 'I' for Inactive)
REMARK    1  A    between atoms: C_2  and  C_4 
REMARK    2  A    between atoms: C_5  and  C_3 
REMARK    3  A    between atoms: C_16  and  C_15 
REMARK    4  A    between atoms: C_17  and  C_16 
REMARK    5  A    between atoms: C_19  and  C_17 
REMARK    6  A    between atoms: C_18  and  C_19 
ROOT
ATOM      1  N   UNL d   1     -38.383  14.710  18.809  0.00  0.00    -0.244 NA
ATOM      2  C   UNL d   1     -38.915  14.350  18.267  0.00  0.00     0.081 A 
ATOM      3  C   UNL d   1     -39.662  14.067  18.545  0.00  0.00     0.019 A 
ATOM      4  C   UNL d   1     -38.586  14.796  19.641  0.00  0.00     0.099 A 
ATOM      5  C   UNL d   1     -39.861  14.145  19.331  0.00  0.00     0.003 A 
ATOM      6  C   UNL d   1     -39.329  14.506  19.874  0.00  0.00     0.019 A 
ENDROOT
BRANCH   2   7
ATOM      7  C   UNL d   1     -38.704  14.284  17.509  0.00  0.00     0.018 A 
ATOM      8  C   UNL d   1     -38.229  13.664  17.278  0.00  0.00     0.002 A 
ATOM      9  C   UNL d   1     -38.010  13.606  16.461  0.00  0.00     0.006 A 
ATOM     10  C   UNL d   1     -38.273  14.162  15.922  0.00  0.00     0.064 A 
ATOM     11  C   UNL d   1     -38.769  14.803  16.184  0.00  0.00     0.006 A 
ATOM     12  C   UNL d   1     -38.969  14.842  16.973  0.00  0.00     0.002 A 
BRANCH  10  13
ATOM     13  C   UNL d   1     -38.055  14.106  15.105  0.00  0.00     0.211 C 
ATOM     14  O   UNL d   1     -37.940  14.772  14.612  0.00  0.00    -0.644 OA
ATOM     15  O   UNL d   1     -37.943  13.340  14.750  0.00  0.00    -0.644 OA
ENDBRANCH  10  13
ENDBRANCH   2   7
BRANCH   6  16
ATOM     16  C   UNL d   1     -39.530  14.593  20.708  0.00  0.00     0.002 C 
BRANCH  16  17
ATOM     17  C   UNL d   1     -39.141  14.118  21.243  0.00  0.00     0.000 C 
BRANCH  17  18
ATOM     18  C   UNL d   1     -39.310  14.196  22.070  0.00  0.00     0.000 C 
BRANCH  18  19
ATOM     19  C   UNL d   1     -39.291  13.577  22.569  0.00  0.00     0.000 C 
ATOM     20  C   UNL d   1     -38.747  13.535  23.179  0.00  0.00     0.000 C 
ENDBRANCH  18  19
ENDBRANCH  17  18
ENDBRANCH  16  17
ENDBRANCH   6  16
TORSDOF 6
ENDMDL
