MODEL 1
REMARK VINA RESULT:      -7.5      0.000      0.000
REMARK  3 active torsions:
REMARK  status: ('A' for Active; 'I' for Inactive)
REMARK    1  A    between atoms: C_3  and  C_5 
REMARK    2  A    between atoms: O_13  and  C_6 
REMARK    3  A    between atoms: O_15  and  C_8 
ROOT
ATOM      1  C   UNL d   1     -47.826  12.009  23.228  0.00  0.00     0.021 A 
ATOM      2  C   UNL d   1     -47.251  12.570  23.063  0.00  0.00     0.028 A 
ATOM      3  C   UNL d   1     -46.460  12.413  23.200  0.00  0.00     0.116 A 
ATOM      4  C   UNL d   1     -46.237  11.681  23.508  0.00  0.00     0.116 A 
ATOM      5  C   UNL d   1     -47.601  11.269  23.540  0.00  0.00     0.004 A 
ATOM      6  C   UNL d   1     -46.806  11.106  23.680  0.00  0.00     0.026 A 
ENDROOT
BRANCH   1   7
ATOM      7  C   UNL d   1     -48.620  12.174  23.088  0.00  0.00     0.103 A 
ATOM      8  N   UNL d   1     -49.086  12.501  23.685  0.00  0.00    -0.145 NA
ATOM      9  N   UNL d   1     -49.881  12.666  23.545  0.00  0.00    -0.106 NA
ATOM     10  C   UNL d   1     -50.209  12.502  22.808  0.00  0.00     0.297 A 
ATOM     11  O   UNL d   1     -51.010  12.667  22.663  0.00  0.00    -0.264 OA
ATOM     12  C   UNL d   1     -49.739  12.171  22.205  0.00  0.00     0.066 A 
ATOM     13  C   UNL d   1     -48.944  12.007  22.345  0.00  0.00     0.026 A 
ENDBRANCH   1   7
BRANCH   3  14
ATOM     14  O   UNL d   1     -45.888  12.984  23.030  0.00  0.00    -0.326 OA
ATOM     15  C   UNL d   1     -46.092  13.650  22.586  0.00  0.00     0.181 C 
ENDBRANCH   3  14
BRANCH   4  16
ATOM     16  O   UNL d   1     -45.438  11.517  23.649  0.00  0.00    -0.326 OA
ATOM     17  C   UNL d   1     -45.181  10.737  23.698  0.00  0.00     0.181 C 
ENDBRANCH   4  16
TORSDOF 3
ENDMDL
MODEL 2
REMARK VINA RESULT:      -7.1      1.757      4.047
REMARK  3 active torsions:
REMARK  status: ('A' for Active; 'I' for Inactive)
REMARK    1  A    between atoms: C_3  and  C_5 
REMARK    2  A    between atoms: O_13  and  C_6 
REMARK    3  A    between atoms: O_15  and  C_8 
ROOT
ATOM      1  C   UNL d   1     -47.942  13.657  22.924  0.00  0.00     0.021 A 
ATOM      2  C   UNL d   1     -48.628  13.209  22.904  0.00  0.00     0.028 A 
ATOM      3  C   UNL d   1     -49.364  13.567  22.893  0.00  0.00     0.116 A 
ATOM      4  C   UNL d   1     -49.416  14.390  22.903  0.00  0.00     0.116 A 
ATOM      5  C   UNL d   1     -47.995  14.489  22.934  0.00  0.00     0.004 A 
ATOM      6  C   UNL d   1     -48.732  14.855  22.923  0.00  0.00     0.026 A 
ENDROOT
BRANCH   1   7
ATOM      7  C   UNL d   1     -47.206  13.290  22.934  0.00  0.00     0.103 A 
ATOM      8  N   UNL d   1     -46.957  12.882  23.607  0.00  0.00    -0.145 NA
ATOM      9  N   UNL d   1     -46.219  12.515  23.617  0.00  0.00    -0.106 NA
ATOM     10  C   UNL d   1     -45.731  12.557  22.956  0.00  0.00     0.297 A 
ATOM     11  O   UNL d   1     -44.987  12.189  22.963  0.00  0.00    -0.264 OA
ATOM     12  C   UNL d   1     -45.982  12.970  22.277  0.00  0.00     0.066 A 
ATOM     13  C   UNL d   1     -46.719  13.337  22.266  0.00  0.00     0.026 A 
ENDBRANCH   1   7
BRANCH   3  14
ATOM     14  O   UNL d   1     -50.049  13.107  22.873  0.00  0.00    -0.326 OA
ATOM     15  C   UNL d   1     -50.008  12.319  22.628  0.00  0.00     0.181 C 
ENDBRANCH   3  14
BRANCH   4  16
ATOM     16  O   UNL d   1     -50.158  14.757  22.892  0.00  0.00    -0.326 OA
ATOM     17  C   UNL d   1     -50.223  15.557  23.073  0.00  0.00     0.181 C 
ENDBRANCH   4  16
TORSDOF 3
ENDMDL
MODEL 3
REMARK VINA RESULT:      -7.0      1.447      1.534
REMARK  3 active torsions:
REMARK  status: ('A' for Active; 'I' for Inactive)
REMARK    1  A    between atoms: C_3  and  C_5 
REMARK    2  A    between atoms: O_13  and  C_6 
REMARK    3  A    between atoms: O_15  and  C_8 
ROOT
ATOM      1  C   UNL d   1     -47.925  13.267  23.008  0.00  0.00     0.021 A 
ATOM      2  C   UNL d   1     -47.149  13.507  22.903  0.00  0.00     0.028 A 
ATOM      3  C   UNL d   1     -46.526  13.013  23.100  0.00  0.00     0.116 A 
ATOM      4  C   UNL d   1     -46.683  12.263  23.408  0.00  0.00     0.116 A 
ATOM      5  C   UNL d   1     -48.084  12.510  23.319  0.00  0.00     0.004 A 
ATOM      6  C   UNL d   1     -47.462  12.008  23.519  0.00  0.00     0.026 A 
ENDROOT
BRANCH   1   7
ATOM      7  C   UNL d   1     -48.546  13.769  22.808  0.00  0.00     0.103 A 
ATOM      8  N   UNL d   1     -48.751  14.392  23.308  0.00  0.00    -0.145 NA
ATOM      9  N   UNL d   1     -49.373  14.895  23.108  0.00  0.00    -0.106 NA
ATOM     10  C   UNL d   1     -49.789  14.772  22.409  0.00  0.00     0.297 A 
ATOM     11  O   UNL d   1     -50.417  15.277  22.204  0.00  0.00    -0.264 OA
ATOM     12  C   UNL d   1     -49.582  14.143  21.904  0.00  0.00     0.066 A 
ATOM     13  C   UNL d   1     -48.961  13.641  22.103  0.00  0.00     0.026 A 
ENDBRANCH   1   7
BRANCH   3  14
ATOM     14  O   UNL d   1     -45.747  13.263  22.991  0.00  0.00    -0.326 OA
ATOM     15  C   UNL d   1     -45.544  13.692  22.315  0.00  0.00     0.181 C 
ENDBRANCH   3  14
BRANCH   4  16
ATOM     16  O   UNL d   1     -46.057  11.760  23.608  0.00  0.00    -0.326 OA
ATOM     17  C   UNL d   1     -46.192  10.953  23.698  0.00  0.00     0.181 C 
ENDBRANCH   4  16
TORSDOF 3
ENDMDL
