MODEL 1
REMARK VINA RESULT:      80.1      0.000      0.000
REMARK  5 active torsions:
REMARK  status: ('A' for Active; 'I' for Inactive)
REMARK    1  A    between atoms: C_6  and  N_1 
REMARK    2  A    between atoms: C_5  and  C_3 
REMARK    3  A    between atoms: C_11  and  C_4 
REMARK    4  A    between atoms: N_13  and  C_6 
REMARK    5  A    between atoms: O_23  and  C_19 
ROOT
ATOM      1  N   UNL d   1     -55.451-101.030 -43.918  0.00  0.00    -0.203 N 
ATOM      2  N   UNL d   1     -55.061-101.482 -43.329  0.00  0.00    -0.163 NA
ATOM      3  C   UNL d   1     -56.114-100.682 -43.609  0.00  0.00     0.088 A 
ATOM      4  C   UNL d   1     -55.509-101.399 -42.651  0.00  0.00     0.103 A 
ATOM      5  C   UNL d   1     -56.149-100.915 -42.815  0.00  0.00     0.040 A 
ENDROOT
BRANCH   3   6
ATOM      6  C   UNL d   1     -56.645-100.206 -43.975  0.00  0.00     0.029 A 
ATOM      7  C   UNL d   1     -56.571 -99.385 -43.921  0.00  0.00     0.060 A 
ATOM      8  C   UNL d   1     -57.107 -98.911 -44.291  0.00  0.00     0.023 A 
ATOM      9 CL   UNL d   1     -55.942 -99.064 -43.485  0.00  0.00    -0.082 Cl
ATOM     10  C   UNL d   1     -57.733 -99.237 -44.725  0.00  0.00     0.059 A 
ATOM     11  C   UNL d   1     -57.806-100.021 -44.778  0.00  0.00     0.011 A 
ATOM     12 CL   UNL d   1     -58.285 -98.758 -45.106  0.00  0.00    -0.082 Cl
ATOM     13  C   UNL d   1     -57.258-100.520 -44.401  0.00  0.00     0.003 A 
ENDBRANCH   3   6
BRANCH   1  14
ATOM     14  C   UNL d   1     -55.173-100.961 -44.712  0.00  0.00     0.222 C 
ATOM     15  S   UNL d   1     -54.713-100.300 -44.935  0.00  0.00    -0.037 SA
BRANCH  14  16
ATOM     16  N   UNL d   1     -55.359-101.543 -45.255  0.00  0.00    -0.214 NA
ATOM     17  C   UNL d   1     -54.947-102.266 -45.262  0.00  0.00     0.122 C 
ENDBRANCH  14  16
ENDBRANCH   1  14
BRANCH   4  18
ATOM     18  C   UNL d   1     -55.315-101.755 -41.954  0.00  0.00     0.019 A 
ATOM     19  C   UNL d   1     -55.517-101.394 -41.240  0.00  0.00     0.004 A 
ATOM     20  C   UNL d   1     -55.328-101.740 -40.519  0.00  0.00     0.024 A 
ATOM     21  C   UNL d   1     -54.920-102.478 -40.518  0.00  0.00     0.094 A 
ATOM     22  C   UNL d   1     -54.719-102.838 -41.232  0.00  0.00     0.024 A 
ATOM     23  C   UNL d   1     -54.915-102.478 -41.952  0.00  0.00     0.004 A 
BRANCH  21  24
ATOM     24  O   UNL d   1     -54.720-102.845 -39.787  0.00  0.00    -0.328 OA
ATOM     25  C   UNL d   1     -55.246-102.820 -39.152  0.00  0.00     0.181 C 
ENDBRANCH  21  24
ENDBRANCH   4  18
TORSDOF 5
ENDMDL
MODEL 2
REMARK VINA RESULT:      80.3      3.577      6.070
REMARK  5 active torsions:
REMARK  status: ('A' for Active; 'I' for Inactive)
REMARK    1  A    between atoms: C_6  and  N_1 
REMARK    2  A    between atoms: C_5  and  C_3 
REMARK    3  A    between atoms: C_11  and  C_4 
REMARK    4  A    between atoms: N_13  and  C_6 
REMARK    5  A    between atoms: O_23  and  C_19 
ROOT
ATOM      1  N   UNL d   1     -55.169-100.585 -38.714  0.00  0.00    -0.203 N 
ATOM      2  N   UNL d   1     -55.129-100.557 -39.552  0.00  0.00    -0.163 NA
ATOM      3  C   UNL d   1     -55.157-101.355 -38.461  0.00  0.00     0.088 A 
ATOM      4  C   UNL d   1     -55.093-101.334 -39.801  0.00  0.00     0.103 A 
ATOM      5  C   UNL d   1     -55.109-101.822 -39.142  0.00  0.00     0.040 A 
ENDROOT
BRANCH   3   6
ATOM      6  C   UNL d   1     -55.184-101.633 -37.710  0.00  0.00     0.029 A 
ATOM      7  C   UNL d   1     -55.620-102.313 -37.536  0.00  0.00     0.060 A 
ATOM      8  C   UNL d   1     -55.644-102.589 -36.780  0.00  0.00     0.023 A 
ATOM      9 CL   UNL d   1     -56.026-102.700 -38.148  0.00  0.00    -0.082 Cl
ATOM     10  C   UNL d   1     -55.237-102.199 -36.173  0.00  0.00     0.059 A 
ATOM     11  C   UNL d   1     -54.820-101.549 -36.337  0.00  0.00     0.011 A 
ATOM     12 CL   UNL d   1     -55.257-102.475 -35.397  0.00  0.00    -0.082 Cl
ATOM     13  C   UNL d   1     -54.787-101.255 -37.114  0.00  0.00     0.003 A 
ENDBRANCH   3   6
BRANCH   1  14
ATOM     14  C   UNL d   1     -55.213 -99.898 -38.227  0.00  0.00     0.222 C 
ATOM     15  S   UNL d   1     -55.734 -99.277 -38.432  0.00  0.00    -0.037 SA
BRANCH  14  16
ATOM     16  N   UNL d   1     -54.746 -99.848 -37.558  0.00  0.00    -0.214 NA
ATOM     17  C   UNL d   1     -54.735 -99.155 -37.097  0.00  0.00     0.122 C 
ENDBRANCH  14  16
ENDBRANCH   1  14
BRANCH   4  18
ATOM     18  C   UNL d   1     -55.049-101.542 -40.578  0.00  0.00     0.019 A 
ATOM     19  C   UNL d   1     -55.270-102.302 -40.812  0.00  0.00     0.004 A 
ATOM     20  C   UNL d   1     -55.233-102.532 -41.600  0.00  0.00     0.024 A 
ATOM     21  C   UNL d   1     -54.962-101.977 -42.173  0.00  0.00     0.094 A 
ATOM     22  C   UNL d   1     -54.741-101.218 -41.939  0.00  0.00     0.024 A 
ATOM     23  C   UNL d   1     -54.784-100.997 -41.141  0.00  0.00     0.004 A 
BRANCH  21  24
ATOM     24  O   UNL d   1     -54.918-102.199 -42.984  0.00  0.00    -0.328 OA
ATOM     25  C   UNL d   1     -55.097-101.652 -43.575  0.00  0.00     0.181 C 
ENDBRANCH  21  24
ENDBRANCH   4  18
TORSDOF 5
ENDMDL
