MODEL 1
REMARK VINA RESULT:     113.3      0.000      0.000
REMARK  5 active torsions:
REMARK  status: ('A' for Active; 'I' for Inactive)
REMARK    1  A    between atoms: C_2  and  S_1 
REMARK    2  A    between atoms: C_9  and  S_1 
REMARK    3  A    between atoms: N_5  and  C_3 
REMARK    4  A    between atoms: O_28  and  C_23 
REMARK    5  A    between atoms: O_29  and  C_24 
ROOT
ATOM      1  C   UNL d   1      59.460  49.490  52.720  0.00  0.00     0.123 A 
ATOM      2  C   UNL d   1      59.409  49.298  51.921  0.00  0.00     0.078 A 
ATOM      3  C   UNL d   1      60.090  49.297  51.456  0.00  0.00     0.036 A 
ATOM      4  C   UNL d   1      60.190  49.680  53.055  0.00  0.00     0.112 A 
ATOM      5  N   UNL d   1      60.869  49.678  52.591  0.00  0.00    -0.243 NA
ATOM      6  C   UNL d   1      60.820  49.487  51.791  0.00  0.00     0.083 A 
ATOM      7  C   UNL d   1      60.039  49.105  50.658  0.00  0.00     0.027 A 
ATOM      8  C   UNL d   1      61.499  49.486  51.327  0.00  0.00     0.021 A 
ATOM      9  C   UNL d   1      60.720  49.104  50.193  0.00  0.00     0.094 A 
ATOM     10  C   UNL d   1      61.450  49.294  50.528  0.00  0.00     0.026 A 
ENDROOT
BRANCH   1  11
ATOM     11  S   UNL d   1      58.774  49.493  53.195  0.00  0.00     0.213 S 
ATOM     12  O   UNL d   1      58.304  49.612  52.516  0.00  0.00    -0.217 OA
ATOM     13  O   UNL d   1      59.243  49.374  53.870  0.00  0.00    -0.217 OA
BRANCH  11  14
ATOM     14  C   UNL d   1      58.088  49.496  53.670  0.00  0.00     0.088 A 
ATOM     15  C   UNL d   1      57.353  49.644  53.323  0.00  0.00     0.013 A 
ATOM     16  C   UNL d   1      56.673  49.648  53.787  0.00  0.00     0.025 A 
ATOM     17  C   UNL d   1      56.725  49.502  54.609  0.00  0.00     0.094 A 
ATOM     18  C   UNL d   1      57.472  49.354  54.946  0.00  0.00     0.025 A 
ATOM     19  C   UNL d   1      58.145  49.351  54.480  0.00  0.00     0.013 A 
BRANCH  17  20
ATOM     20  O   UNL d   1      56.040  49.506  55.078  0.00  0.00    -0.328 OA
ATOM     21  C   UNL d   1      56.093  49.658  55.887  0.00  0.00     0.181 C 
ENDBRANCH  17  20
ENDBRANCH  11  14
ENDBRANCH   1  11
BRANCH   2  22
ATOM     22  N   UNL d   1      58.680  49.108  51.586  0.00  0.00    -0.303 N 
ATOM     23  C   UNL d   1      58.228  49.693  51.222  0.00  0.00     0.081 A 
ATOM     24  C   UNL d   1      57.491  49.501  50.884  0.00  0.00     0.053 A 
ATOM     25  C   UNL d   1      57.213  48.726  50.914  0.00  0.00     0.239 A 
ATOM     26  C   UNL d   1      57.666  48.130  51.281  0.00  0.00     0.053 A 
ATOM     27  O   UNL d   1      56.860  47.969  50.900  0.00  0.00    -0.298 OA
ATOM     28  O   UNL d   1      56.701  49.245  50.532  0.00  0.00    -0.298 OA
ATOM     29  C   UNL d   1      58.403  48.322  51.619  0.00  0.00     0.081 A 
ATOM     30  C   UNL d   1      56.132  48.038  50.508  0.00  0.00     0.146 A 
ATOM     31  C   UNL d   1      56.035  48.826  50.282  0.00  0.00     0.146 A 
ENDBRANCH   2  22
BRANCH   9  32
ATOM     32  O   UNL d   1      60.662  48.911  49.391  0.00  0.00    -0.328 OA
ATOM     33  C   UNL d   1      59.917  48.800  49.051  0.00  0.00     0.181 C 
ENDBRANCH   9  32
TORSDOF 5
ENDMDL
