MODEL 1
REMARK VINA RESULT:      -4.1      0.000      0.000
REMARK  8 active torsions:
REMARK  status: ('A' for Active; 'I' for Inactive)
REMARK    1  A    between atoms: C_2  and  C_4 
REMARK    2  A    between atoms: S_9  and  C_6 
REMARK    3  A    between atoms: C_7  and  C_17 
REMARK       I    between atoms: N_16  and  C_7 
REMARK    4  A    between atoms: C_17  and  S_9 
REMARK    5  A    between atoms: O_19  and  C_14 
REMARK    6  A    between atoms: C_15  and  C_21 
REMARK    7  A    between atoms: C_20  and  N_16 
REMARK    8  A    between atoms: C_21  and  C_20 
ROOT
ATOM      1  C   UNL d   1      58.087   0.307  29.489  0.00  0.00     0.286 C 
ATOM      2  O   UNL d   1      57.952   0.597  28.730  0.00  0.00    -0.265 OA
ATOM      3  N   UNL d   1      58.617  -0.301  29.601  0.00  0.00    -0.206 NA
ENDROOT
BRANCH   1   4
ATOM      4  C   UNL d   1      57.683   0.635  30.132  0.00  0.00     0.099 C 
BRANCH   4   5
ATOM      5  S   UNL d   1      57.993   0.557  30.888  0.00  0.00    -0.061 SA
BRANCH   5   6
ATOM      6  C   UNL d   1      57.497   0.571  31.546  0.00  0.00     0.133 A 
ATOM      7  N   UNL d   1      56.683   0.588  31.455  0.00  0.00    -0.141 NA
ATOM      8  N   UNL d   1      56.188   0.603  32.105  0.00  0.00    -0.147 NA
ATOM      9  C   UNL d   1      56.511   0.600  32.864  0.00  0.00     0.109 A 
ATOM     10  C   UNL d   1      57.332   0.584  32.964  0.00  0.00     0.024 A 
ATOM     11  C   UNL d   1      57.819   0.569  32.313  0.00  0.00     0.029 A 
BRANCH   9  12
ATOM     12  C   UNL d   1      56.018   0.615  33.523  0.00  0.00     0.049 A 
ATOM     13  S   UNL d   1      56.253   0.570  34.311  0.00  0.00    -0.085 SA
ATOM     14  C   UNL d   1      55.584   0.604  34.792  0.00  0.00     0.035 A 
ATOM     15  C   UNL d   1      54.920   0.672  34.291  0.00  0.00     0.007 A 
ATOM     16  C   UNL d   1      55.186   0.679  33.507  0.00  0.00     0.009 A 
ENDBRANCH   9  12
ENDBRANCH   5   6
ENDBRANCH   4   5
ENDBRANCH   1   4
BRANCH   3  17
ATOM     17  C   UNL d   1      59.020  -0.629  28.958  0.00  0.00     0.102 C 
BRANCH  17  18
ATOM     18  C   UNL d   1      58.935  -1.425  28.779  0.00  0.00     0.023 C 
BRANCH  18  19
ATOM     19  C   UNL d   1      59.599  -1.919  28.750  0.00  0.00     0.024 A 
ATOM     20  C   UNL d   1      59.513  -2.730  28.810  0.00  0.00     0.094 A 
ATOM     21  C   UNL d   1      60.166  -3.215  28.782  0.00  0.00     0.024 A 
ATOM     22  C   UNL d   1      60.922  -2.888  28.692  0.00  0.00     0.002 A 
ATOM     23  C   UNL d   1      61.008  -2.067  28.631  0.00  0.00     0.000 A 
ATOM     24  C   UNL d   1      60.342  -1.586  28.661  0.00  0.00     0.002 A 
BRANCH  20  25
ATOM     25  O   UNL d   1      58.766  -3.060  28.899  0.00  0.00    -0.328 OA
ATOM     26  C   UNL d   1      58.579  -3.753  28.500  0.00  0.00     0.181 C 
ENDBRANCH  20  25
ENDBRANCH  18  19
ENDBRANCH  17  18
ENDBRANCH   3  17
TORSDOF 8
ENDMDL
MODEL 2
REMARK VINA RESULT:      -2.8      1.872      5.970
REMARK  8 active torsions:
REMARK  status: ('A' for Active; 'I' for Inactive)
REMARK    1  A    between atoms: C_2  and  C_4 
REMARK    2  A    between atoms: S_9  and  C_6 
REMARK    3  A    between atoms: C_7  and  C_17 
REMARK       I    between atoms: N_16  and  C_7 
REMARK    4  A    between atoms: C_17  and  S_9 
REMARK    5  A    between atoms: O_19  and  C_14 
REMARK    6  A    between atoms: C_15  and  C_21 
REMARK    7  A    between atoms: C_20  and  N_16 
REMARK    8  A    between atoms: C_21  and  C_20 
ROOT
ATOM      1  C   UNL d   1      57.653   0.075  30.576  0.00  0.00     0.286 C 
ATOM      2  O   UNL d   1      58.162   0.681  30.802  0.00  0.00    -0.265 OA
ATOM      3  N   UNL d   1      57.022  -0.120  31.052  0.00  0.00    -0.206 NA
ENDROOT
BRANCH   1   4
ATOM      4  C   UNL d   1      57.786  -0.330  29.868  0.00  0.00     0.099 C 
BRANCH   4   5
ATOM      5  S   UNL d   1      58.550  -0.546  29.661  0.00  0.00    -0.061 SA
BRANCH   5   6
ATOM      6  C   UNL d   1      58.720  -1.323  29.443  0.00  0.00     0.133 A 
ATOM      7  N   UNL d   1      58.122  -1.831  29.211  0.00  0.00    -0.141 NA
ATOM      8  N   UNL d   1      58.286  -2.602  28.994  0.00  0.00    -0.147 NA
ATOM      9  C   UNL d   1      59.065  -2.873  29.009  0.00  0.00     0.109 A 
ATOM     10  C   UNL d   1      59.675  -2.365  29.242  0.00  0.00     0.024 A 
ATOM     11  C   UNL d   1      59.505  -1.599  29.457  0.00  0.00     0.029 A 
BRANCH   9  12
ATOM     12  C   UNL d   1      59.238  -3.647  28.792  0.00  0.00     0.049 A 
ATOM     13  S   UNL d   1      59.987  -3.965  28.663  0.00  0.00    -0.085 SA
ATOM     14  C   UNL d   1      59.910  -4.759  28.456  0.00  0.00     0.035 A 
ATOM     15  C   UNL d   1      59.094  -4.938  28.455  0.00  0.00     0.007 A 
ATOM     16  C   UNL d   1      58.678  -4.253  28.662  0.00  0.00     0.009 A 
ENDBRANCH   9  12
ENDBRANCH   5   6
ENDBRANCH   4   5
ENDBRANCH   1   4
BRANCH   3  17
ATOM     17  C   UNL d   1      56.890   0.285  31.761  0.00  0.00     0.102 C 
BRANCH  17  18
ATOM     18  C   UNL d   1      57.020  -0.087  32.480  0.00  0.00     0.023 C 
BRANCH  18  19
ATOM     19  C   UNL d   1      56.438  -0.073  33.067  0.00  0.00     0.024 A 
ATOM     20  C   UNL d   1      56.608   0.221  33.811  0.00  0.00     0.094 A 
ATOM     21  C   UNL d   1      56.035   0.235  34.389  0.00  0.00     0.024 A 
ATOM     22  C   UNL d   1      55.275  -0.050  34.225  0.00  0.00     0.002 A 
ATOM     23  C   UNL d   1      55.102  -0.348  33.473  0.00  0.00     0.000 A 
ATOM     24  C   UNL d   1      55.689  -0.357  32.897  0.00  0.00     0.002 A 
BRANCH  20  25
ATOM     25  O   UNL d   1      57.360   0.505  33.979  0.00  0.00    -0.328 OA
ATOM     26  C   UNL d   1      57.563   0.681  34.756  0.00  0.00     0.181 C 
ENDBRANCH  20  25
ENDBRANCH  18  19
ENDBRANCH  17  18
ENDBRANCH   3  17
TORSDOF 8
ENDMDL
MODEL 3
REMARK VINA RESULT:      -1.9      4.019      6.234
REMARK  8 active torsions:
REMARK  status: ('A' for Active; 'I' for Inactive)
REMARK    1  A    between atoms: C_2  and  C_4 
REMARK    2  A    between atoms: S_9  and  C_6 
REMARK    3  A    between atoms: C_7  and  C_17 
REMARK       I    between atoms: N_16  and  C_7 
REMARK    4  A    between atoms: C_17  and  S_9 
REMARK    5  A    between atoms: O_19  and  C_14 
REMARK    6  A    between atoms: C_15  and  C_21 
REMARK    7  A    between atoms: C_20  and  N_16 
REMARK    8  A    between atoms: C_21  and  C_20 
ROOT
ATOM      1  C   UNL d   1      58.042  -5.280  28.467  0.00  0.00     0.286 C 
ATOM      2  O   UNL d   1      57.223  -5.210  28.480  0.00  0.00    -0.265 OA
ATOM      3  N   UNL d   1      58.385  -6.019  28.463  0.00  0.00    -0.206 NA
ENDROOT
BRANCH   1   4
ATOM      4  C   UNL d   1      58.513  -4.600  28.457  0.00  0.00     0.099 C 
BRANCH   4   5
ATOM      5  S   UNL d   1      58.176  -3.872  28.633  0.00  0.00    -0.061 SA
BRANCH   5   6
ATOM      6  C   UNL d   1      58.654  -3.219  28.792  0.00  0.00     0.133 A 
ATOM      7  N   UNL d   1      59.445  -3.220  28.580  0.00  0.00    -0.141 NA
ATOM      8  N   UNL d   1      59.923  -2.574  28.735  0.00  0.00    -0.147 NA
ATOM      9  C   UNL d   1      59.604  -1.912  29.111  0.00  0.00     0.109 A 
ATOM     10  C   UNL d   1      58.806  -1.904  29.329  0.00  0.00     0.024 A 
ATOM     11  C   UNL d   1      58.336  -2.550  29.171  0.00  0.00     0.029 A 
BRANCH   9  12
ATOM     12  C   UNL d   1      60.078  -1.259  29.271  0.00  0.00     0.049 A 
ATOM     13  S   UNL d   1      59.856  -0.468  29.216  0.00  0.00    -0.085 SA
ATOM     14  C   UNL d   1      60.499   0.005  29.425  0.00  0.00     0.035 A 
ATOM     15  C   UNL d   1      61.133  -0.504  29.615  0.00  0.00     0.007 A 
ATOM     16  C   UNL d   1      60.875  -1.285  29.520  0.00  0.00     0.009 A 
ENDBRANCH   9  12
ENDBRANCH   5   6
ENDBRANCH   4   5
ENDBRANCH   1   4
BRANCH   3  17
ATOM     17  C   UNL d   1      57.914  -6.699  28.473  0.00  0.00     0.102 C 
BRANCH  17  18
ATOM     18  C   UNL d   1      58.262  -7.441  28.522  0.00  0.00     0.023 C 
BRANCH  18  19
ATOM     19  C   UNL d   1      57.791  -8.117  28.591  0.00  0.00     0.024 A 
ATOM     20  C   UNL d   1      58.127  -8.836  28.787  0.00  0.00     0.094 A 
ATOM     21  C   UNL d   1      57.664  -9.502  28.856  0.00  0.00     0.024 A 
ATOM     22  C   UNL d   1      56.847  -9.453  28.726  0.00  0.00     0.002 A 
ATOM     23  C   UNL d   1      56.507  -8.725  28.528  0.00  0.00     0.000 A 
ATOM     24  C   UNL d   1      56.984  -8.059  28.462  0.00  0.00     0.002 A 
BRANCH  20  25
ATOM     25  O   UNL d   1      58.936  -8.891  28.916  0.00  0.00    -0.328 OA
ATOM     26  C   UNL d   1      59.301  -9.627  28.898  0.00  0.00     0.181 C 
ENDBRANCH  20  25
ENDBRANCH  18  19
ENDBRANCH  17  18
ENDBRANCH   3  17
TORSDOF 8
ENDMDL
MODEL 4
REMARK VINA RESULT:      -1.4      1.995      6.513
REMARK  8 active torsions:
REMARK  status: ('A' for Active; 'I' for Inactive)
REMARK    1  A    between atoms: C_2  and  C_4 
REMARK    2  A    between atoms: S_9  and  C_6 
REMARK    3  A    between atoms: C_7  and  C_17 
REMARK       I    between atoms: N_16  and  C_7 
REMARK    4  A    between atoms: C_17  and  S_9 
REMARK    5  A    between atoms: O_19  and  C_14 
REMARK    6  A    between atoms: C_15  and  C_21 
REMARK    7  A    between atoms: C_20  and  N_16 
REMARK    8  A    between atoms: C_21  and  C_20 
ROOT
ATOM      1  C   UNL d   1      56.483   0.258  32.250  0.00  0.00     0.286 C 
ATOM      2  O   UNL d   1      57.050   0.023  32.798  0.00  0.00    -0.265 OA
ATOM      3  N   UNL d   1      55.781   0.581  32.508  0.00  0.00    -0.206 NA
ENDROOT
BRANCH   1   4
ATOM      4  C   UNL d   1      56.629   0.164  31.441  0.00  0.00     0.099 C 
BRANCH   4   5
ATOM      5  S   UNL d   1      57.328   0.451  31.120  0.00  0.00    -0.061 SA
BRANCH   5   6
ATOM      6  C   UNL d   1      57.805  -0.035  30.655  0.00  0.00     0.133 A 
ATOM      7  N   UNL d   1      57.757  -0.851  30.720  0.00  0.00    -0.141 NA
ATOM      8  N   UNL d   1      58.228  -1.337  30.261  0.00  0.00    -0.147 NA
ATOM      9  C   UNL d   1      58.759  -1.002  29.725  0.00  0.00     0.109 A 
ATOM     10  C   UNL d   1      58.812  -0.180  29.654  0.00  0.00     0.024 A 
ATOM     11  C   UNL d   1      58.341   0.298  30.114  0.00  0.00     0.029 A 
BRANCH   9  12
ATOM     12  C   UNL d   1      59.236  -1.485  29.260  0.00  0.00     0.049 A 
ATOM     13  S   UNL d   1      59.912  -1.256  28.849  0.00  0.00    -0.085 SA
ATOM     14  C   UNL d   1      60.220  -1.912  28.455  0.00  0.00     0.035 A 
ATOM     15  C   UNL d   1      59.724  -2.562  28.626  0.00  0.00     0.007 A 
ATOM     16  C   UNL d   1      59.116  -2.300  29.122  0.00  0.00     0.009 A 
ENDBRANCH   9  12
ENDBRANCH   5   6
ENDBRANCH   4   5
ENDBRANCH   1   4
BRANCH   3  17
ATOM     17  C   UNL d   1      55.635   0.675  33.317  0.00  0.00     0.102 C 
BRANCH  17  18
ATOM     18  C   UNL d   1      54.873   0.600  33.610  0.00  0.00     0.023 C 
BRANCH  18  19
ATOM     19  C   UNL d   1      54.736   0.624  34.425  0.00  0.00     0.024 A 
ATOM     20  C   UNL d   1      53.972   0.657  34.715  0.00  0.00     0.094 A 
ATOM     21  C   UNL d   1      53.837   0.681  35.517  0.00  0.00     0.024 A 
ATOM     22  C   UNL d   1      54.477   0.671  36.045  0.00  0.00     0.002 A 
ATOM     23  C   UNL d   1      55.250   0.637  35.751  0.00  0.00     0.000 A 
ATOM     24  C   UNL d   1      55.374   0.614  34.939  0.00  0.00     0.002 A 
BRANCH  20  25
ATOM     25  O   UNL d   1      53.335   0.667  34.197  0.00  0.00    -0.328 OA
ATOM     26  C   UNL d   1      52.593   0.434  34.463  0.00  0.00     0.181 C 
ENDBRANCH  20  25
ENDBRANCH  18  19
ENDBRANCH  17  18
ENDBRANCH   3  17
TORSDOF 8
ENDMDL
