MODEL 1
REMARK VINA RESULT:      96.0      0.000      0.000
REMARK  5 active torsions:
REMARK  status: ('A' for Active; 'I' for Inactive)
REMARK    1  A    between atoms: C_12  and  N_3 
REMARK    2  A    between atoms: C_11  and  C_5 
REMARK    3  A    between atoms: C_10  and  C_8 
REMARK    4  A    between atoms: O_27  and  C_14 
REMARK    5  A    between atoms: O_28  and  C_21 
ROOT
ATOM      1  C   UNL d   1     -49.952  27.202  35.249  0.00  0.00     0.143 A 
ATOM      2  C   UNL d   1     -50.532  26.809  35.689  0.00  0.00     0.172 A 
ATOM      3  N   UNL d   1     -50.460  27.035  36.484  0.00  0.00    -0.242 N 
ATOM      4  C   UNL d   1     -49.830  27.572  36.532  0.00  0.00     0.355 A 
ATOM      5  C   UNL d   1     -49.894  27.084  34.446  0.00  0.00     0.163 A 
ATOM      6  N   UNL d   1     -51.058  26.291  35.312  0.00  0.00    -0.207 NA
ATOM      7  N   UNL d   1     -49.522  27.672  35.772  0.00  0.00    -0.187 NA
ATOM      8  C   UNL d   1     -50.991  26.177  34.494  0.00  0.00     0.166 A 
ATOM      9  N   UNL d   1     -50.409  26.574  34.060  0.00  0.00    -0.220 NA
ATOM     10  O   UNL d   1     -49.564  27.938  37.224  0.00  0.00    -0.244 OA
ENDROOT
BRANCH   8  11
ATOM     11  C   UNL d   1     -51.508  25.665  34.111  0.00  0.00     0.060 A 
ATOM     12  C   UNL d   1     -52.147  25.965  33.692  0.00  0.00     0.097 A 
ATOM     13  C   UNL d   1     -52.668  25.448  33.307  0.00  0.00     0.026 A 
ATOM     14  C   UNL d   1     -52.544  24.641  33.345  0.00  0.00     0.026 A 
ATOM     15  C   UNL d   1     -51.903  24.349  33.767  0.00  0.00     0.094 A 
ATOM     16  C   UNL d   1     -51.383  24.850  34.150  0.00  0.00     0.029 A 
BRANCH  12  17
ATOM     17  O   UNL d   1     -52.266  26.783  33.657  0.00  0.00    -0.328 OA
ATOM     18  C   UNL d   1     -53.007  27.063  33.410  0.00  0.00     0.181 C 
ENDBRANCH  12  17
BRANCH  15  19
ATOM     19  O   UNL d   1     -51.777  23.534  33.806  0.00  0.00    -0.328 OA
ATOM     20  C   UNL d   1     -51.162  23.188  33.378  0.00  0.00     0.181 C 
ENDBRANCH  15  19
ENDBRANCH   8  11
BRANCH   5  21
ATOM     21  C   UNL d   1     -49.316  27.477  34.006  0.00  0.00     0.316 C 
ATOM     22  O   UNL d   1     -48.524  27.250  34.056  0.00  0.00    -0.262 OA
ATOM     23  N   UNL d   1     -49.540  28.105  33.510  0.00  0.00    -0.101 N 
ENDBRANCH   5  21
BRANCH   3  24
ATOM     24  C   UNL d   1     -50.925  26.776  37.105  0.00  0.00     0.070 A 
ATOM     25  C   UNL d   1     -51.551  26.281  36.950  0.00  0.00     0.020 A 
ATOM     26  C   UNL d   1     -52.023  26.017  37.580  0.00  0.00     0.031 A 
ATOM     27  C   UNL d   1     -51.847  26.263  38.353  0.00  0.00     0.140 A 
ATOM     28  C   UNL d   1     -51.214  26.761  38.503  0.00  0.00     0.031 A 
ATOM     29  F   UNL d   1     -52.322  25.996  38.977  0.00  0.00    -0.204 F 
ATOM     30  C   UNL d   1     -50.750  27.019  37.874  0.00  0.00     0.020 A 
ENDBRANCH   3  24
TORSDOF 5
ENDMDL
