MODEL 1
REMARK VINA RESULT:      26.4      0.000      0.000
REMARK  2 active torsions:
REMARK  status: ('A' for Active; 'I' for Inactive)
REMARK    1  A    between atoms: N_11  and  C_4 
REMARK    2  A    between atoms: C_16  and  N_12 
ROOT
ATOM      1  N   UNL d   1      46.196 -18.001  43.189  0.00  0.00    -0.195 N 
ATOM      2  C   UNL d   1      46.322 -18.779  43.000  0.00  0.00     0.168 A 
ATOM      3  C   UNL d   1      46.404 -19.004  42.238  0.00  0.00     0.073 A 
ATOM      4  C   UNL d   1      46.116 -17.793  43.955  0.00  0.00     0.153 A 
ATOM      5  N   UNL d   1      46.234 -17.671  41.856  0.00  0.00    -0.143 NA
ATOM      6  C   UNL d   1      46.359 -18.449  41.667  0.00  0.00     0.185 A 
ATOM      7  N   UNL d   1      46.365 -19.328  43.582  0.00  0.00    -0.227 NA
ATOM      8  C   UNL d   1      46.528 -19.773  42.051  0.00  0.00     0.007 A 
ATOM      9  N   UNL d   1      46.440 -18.661  40.891  0.00  0.00    -0.225 NA
ATOM     10  C   UNL d   1      46.158 -18.335  44.535  0.00  0.00     0.057 A 
ATOM     11  C   UNL d   1      46.610 -19.999  41.290  0.00  0.00     0.019 A 
ATOM     12  C   UNL d   1      46.284 -19.112  44.346  0.00  0.00     0.086 A 
ATOM     13  C   UNL d   1      46.566 -19.439  40.702  0.00  0.00     0.083 A 
ATOM     14  C   UNL d   1      46.571 -20.325  42.637  0.00  0.00     0.000 C 
ATOM     15  C   UNL d   1      46.328 -19.681  44.953  0.00  0.00     0.021 C 
ATOM     16  C   UNL d   1      46.647 -19.657  39.942  0.00  0.00     0.021 C 
ENDROOT
BRANCH   4  17
ATOM     17  N   UNL d   1      45.987 -16.990  44.142  0.00  0.00    -0.286 N 
ATOM     18  C   UNL d   1      45.509 -16.755  44.776  0.00  0.00     0.101 A 
ATOM     19  C   UNL d   1      45.403 -15.948  44.931  0.00  0.00     0.100 A 
ATOM     20  N   UNL d   1      45.772 -15.374  44.457  0.00  0.00    -0.301 N 
ATOM     21  C   UNL d   1      46.259 -15.604  43.810  0.00  0.00     0.100 A 
ATOM     22  C   UNL d   1      46.363 -16.412  43.658  0.00  0.00     0.101 A 
BRANCH  20  23
ATOM     23  C   UNL d   1      45.663 -14.568  44.616  0.00  0.00     0.064 A 
ATOM     24  C   UNL d   1      44.910 -14.275  44.792  0.00  0.00     0.016 A 
ATOM     25  C   UNL d   1      44.261 -14.783  44.810  0.00  0.00     0.002 C 
ATOM     26  C   UNL d   1      44.799 -13.457  44.953  0.00  0.00     0.001 A 
ATOM     27  C   UNL d   1      45.455 -12.935  44.937  0.00  0.00     0.000 A 
ATOM     28  C   UNL d   1      46.218 -13.238  44.758  0.00  0.00     0.002 A 
ATOM     29  C   UNL d   1      46.318 -14.049  44.599  0.00  0.00     0.018 A 
ENDBRANCH  20  23
ENDBRANCH   4  17
TORSDOF 2
ENDMDL
