MODEL 1
REMARK VINA RESULT:      -7.2      0.000      0.000
REMARK  5 active torsions:
REMARK  status: ('A' for Active; 'I' for Inactive)
REMARK    1  A    between atoms: N_2  and  S_1 
REMARK    2  A    between atoms: C_6  and  S_1 
REMARK       I    between atoms: C_3  and  N_4 
REMARK    3  A    between atoms: C_5  and  C_3 
REMARK    4  A    between atoms: O_22  and  C_12 
REMARK    5  A    between atoms: O_26  and  C_16 
ROOT
ATOM      1  N   UNL d   1     -49.570  12.672  22.064  0.00  0.00    -0.226 N 
ATOM      2  C   UNL d   1     -47.357  12.175  23.065  0.00  0.00     0.265 C 
ATOM      3  N   UNL d   1     -48.094  12.339  22.733  0.00  0.00    -0.269 N 
ATOM      4  C   UNL d   1     -49.495  12.157  22.695  0.00  0.00     0.111 A 
ATOM      5  C   UNL d   1     -48.884  13.030  21.761  0.00  0.00     0.111 A 
ATOM      6  C   UNL d   1     -48.159  12.854  22.104  0.00  0.00     0.103 A 
ATOM      7  C   UNL d   1     -48.779  11.981  23.036  0.00  0.00     0.103 A 
ATOM      8  O   UNL d   1     -47.310  11.654  23.697  0.00  0.00    -0.267 OA
ENDROOT
BRANCH   2   9
ATOM      9  C   UNL d   1     -46.690  12.523  22.770  0.00  0.00     0.059 A 
ATOM     10  C   UNL d   1     -46.518  13.309  22.946  0.00  0.00     0.031 A 
ATOM     11  C   UNL d   1     -45.856  13.654  22.654  0.00  0.00     0.116 A 
ATOM     12  C   UNL d   1     -45.341  13.226  22.173  0.00  0.00     0.116 A 
ATOM     13  C   UNL d   1     -45.513  12.440  21.996  0.00  0.00     0.026 A 
ATOM     14  C   UNL d   1     -46.175  12.094  22.289  0.00  0.00     0.007 A 
BRANCH  11  15
ATOM     15  O   UNL d   1     -45.712  14.457  22.854  0.00  0.00    -0.326 OA
ATOM     16  C   UNL d   1     -46.356  14.987  22.952  0.00  0.00     0.181 C 
ENDBRANCH  11  15
BRANCH  12  17
ATOM     17  O   UNL d   1     -44.655  13.580  21.868  0.00  0.00    -0.326 OA
ATOM     18  C   UNL d   1     -44.135  13.014  21.586  0.00  0.00     0.181 C 
ENDBRANCH  12  17
ENDBRANCH   2   9
BRANCH   1  19
ATOM     19  S   UNL d   1     -50.303  12.836  21.733  0.00  0.00     0.271 S 
ATOM     20  O   UNL d   1     -50.244  12.170  21.237  0.00  0.00    -0.200 OA
ATOM     21  O   UNL d   1     -51.048  13.014  21.406  0.00  0.00    -0.200 OA
BRANCH  19  22
ATOM     22  C   UNL d   1     -50.375  13.499  22.220  0.00  0.00     0.104 A 
ATOM     23  C   UNL d   1     -50.647  13.431  22.999  0.00  0.00     0.014 A 
ATOM     24  C   UNL d   1     -50.723  14.077  23.492  0.00  0.00     0.012 A 
ATOM     25  C   UNL d   1     -50.522  14.828  23.206  0.00  0.00     0.058 A 
ATOM     26  C   UNL d   1     -50.248  14.919  22.433  0.00  0.00     0.012 A 
ATOM     27 CL   UNL d   1     -50.593  15.491  23.693  0.00  0.00    -0.082 Cl
ATOM     28  C   UNL d   1     -50.173  14.250  21.934  0.00  0.00     0.014 A 
ENDBRANCH  19  22
ENDBRANCH   1  19
TORSDOF 5
ENDMDL
MODEL 2
REMARK VINA RESULT:      -7.0      1.404      2.067
REMARK  5 active torsions:
REMARK  status: ('A' for Active; 'I' for Inactive)
REMARK    1  A    between atoms: N_2  and  S_1 
REMARK    2  A    between atoms: C_6  and  S_1 
REMARK       I    between atoms: C_3  and  N_4 
REMARK    3  A    between atoms: C_5  and  C_3 
REMARK    4  A    between atoms: O_22  and  C_12 
REMARK    5  A    between atoms: O_26  and  C_16 
ROOT
ATOM      1  N   UNL d   1     -48.559  12.020  23.192  0.00  0.00    -0.226 N 
ATOM      2  C   UNL d   1     -46.430  13.290  23.231  0.00  0.00     0.265 C 
ATOM      3  N   UNL d   1     -47.139  12.869  23.219  0.00  0.00    -0.269 N 
ATOM      4  C   UNL d   1     -48.474  12.694  23.649  0.00  0.00     0.111 A 
ATOM      5  C   UNL d   1     -47.913  11.766  22.736  0.00  0.00     0.111 A 
ATOM      6  C   UNL d   1     -47.215  12.199  22.761  0.00  0.00     0.103 A 
ATOM      7  C   UNL d   1     -47.785  13.123  23.675  0.00  0.00     0.103 A 
ATOM      8  O   UNL d   1     -46.371  13.962  23.698  0.00  0.00    -0.267 OA
ENDROOT
BRANCH   2   9
ATOM      9  C   UNL d   1     -45.801  13.043  22.788  0.00  0.00     0.059 A 
ATOM     10  C   UNL d   1     -45.305  12.447  23.066  0.00  0.00     0.031 A 
ATOM     11  C   UNL d   1     -44.681  12.202  22.626  0.00  0.00     0.116 A 
ATOM     12  C   UNL d   1     -44.530  12.543  21.892  0.00  0.00     0.116 A 
ATOM     13  C   UNL d   1     -45.026  13.140  21.613  0.00  0.00     0.026 A 
ATOM     14  C   UNL d   1     -45.650  13.386  22.053  0.00  0.00     0.007 A 
BRANCH  11  15
ATOM     15  O   UNL d   1     -44.196  11.592  22.939  0.00  0.00    -0.326 OA
ATOM     16  C   UNL d   1     -44.545  10.877  23.211  0.00  0.00     0.181 C 
ENDBRANCH  11  15
BRANCH  12  17
ATOM     17  O   UNL d   1     -43.885  12.293  21.433  0.00  0.00    -0.326 OA
ATOM     18  C   UNL d   1     -43.416  12.927  21.216  0.00  0.00     0.181 C 
ENDBRANCH  12  17
ENDBRANCH   2   9
BRANCH   1  19
ATOM     19  S   UNL d   1     -49.265  11.601  23.180  0.00  0.00     0.271 S 
ATOM     20  O   UNL d   1     -48.950  11.030  23.698  0.00  0.00    -0.200 OA
ATOM     21  O   UNL d   1     -49.986  11.184  23.159  0.00  0.00    -0.200 OA
BRANCH  19  22
ATOM     22  C   UNL d   1     -49.589  12.160  22.666  0.00  0.00     0.104 A 
ATOM     23  C   UNL d   1     -50.036  12.795  22.953  0.00  0.00     0.014 A 
ATOM     24  C   UNL d   1     -50.363  13.356  22.458  0.00  0.00     0.012 A 
ATOM     25  C   UNL d   1     -50.245  13.290  21.641  0.00  0.00     0.058 A 
ATOM     26  C   UNL d   1     -49.802  12.664  21.334  0.00  0.00     0.012 A 
ATOM     27 CL   UNL d   1     -50.569  13.849  21.127  0.00  0.00    -0.082 Cl
ATOM     28  C   UNL d   1     -49.471  12.094  21.850  0.00  0.00     0.014 A 
ENDBRANCH  19  22
ENDBRANCH   1  19
TORSDOF 5
ENDMDL
MODEL 3
REMARK VINA RESULT:      -6.3      1.692      2.432
REMARK  5 active torsions:
REMARK  status: ('A' for Active; 'I' for Inactive)
REMARK    1  A    between atoms: N_2  and  S_1 
REMARK    2  A    between atoms: C_6  and  S_1 
REMARK       I    between atoms: C_3  and  N_4 
REMARK    3  A    between atoms: C_5  and  C_3 
REMARK    4  A    between atoms: O_22  and  C_12 
REMARK    5  A    between atoms: O_26  and  C_16 
ROOT
ATOM      1  N   UNL d   1     -49.432  14.859  23.069  0.00  0.00    -0.226 N 
ATOM      2  C   UNL d   1     -47.024  14.428  22.666  0.00  0.00     0.265 C 
ATOM      3  N   UNL d   1     -47.824  14.573  22.800  0.00  0.00    -0.269 N 
ATOM      4  C   UNL d   1     -48.952  15.422  22.719  0.00  0.00     0.111 A 
ATOM      5  C   UNL d   1     -49.095  14.133  23.290  0.00  0.00     0.111 A 
ATOM      6  C   UNL d   1     -48.295  14.007  23.149  0.00  0.00     0.103 A 
ATOM      7  C   UNL d   1     -48.161  15.300  22.579  0.00  0.00     0.103 A 
ATOM      8  O   UNL d   1     -46.565  15.009  22.314  0.00  0.00    -0.267 OA
ENDROOT
BRANCH   2   9
ATOM      9  C   UNL d   1     -46.696  13.721  22.881  0.00  0.00     0.059 A 
ATOM     10  C   UNL d   1     -46.021  13.443  22.500  0.00  0.00     0.031 A 
ATOM     11  C   UNL d   1     -45.696  12.741  22.713  0.00  0.00     0.116 A 
ATOM     12  C   UNL d   1     -46.033  12.292  23.315  0.00  0.00     0.116 A 
ATOM     13  C   UNL d   1     -46.709  12.571  23.697  0.00  0.00     0.026 A 
ATOM     14  C   UNL d   1     -47.034  13.272  23.484  0.00  0.00     0.007 A 
BRANCH  11  15
ATOM     15  O   UNL d   1     -45.007  12.488  22.303  0.00  0.00    -0.326 OA
ATOM     16  C   UNL d   1     -44.592  13.025  21.809  0.00  0.00     0.181 C 
ENDBRANCH  11  15
BRANCH  12  17
ATOM     17  O   UNL d   1     -45.700  11.566  23.539  0.00  0.00    -0.326 OA
ATOM     18  C   UNL d   1     -46.282  11.006  23.673  0.00  0.00     0.181 C 
ENDBRANCH  12  17
ENDBRANCH   2   9
BRANCH   1  19
ATOM     19  S   UNL d   1     -50.229  15.003  23.202  0.00  0.00     0.271 S 
ATOM     20  O   UNL d   1     -50.044  15.646  23.698  0.00  0.00    -0.200 OA
ATOM     21  O   UNL d   1     -51.041  15.139  23.329  0.00  0.00    -0.200 OA
BRANCH  19  22
ATOM     22  C   UNL d   1     -50.426  14.368  22.713  0.00  0.00     0.104 A 
ATOM     23  C   UNL d   1     -50.481  13.598  23.013  0.00  0.00     0.014 A 
ATOM     24  C   UNL d   1     -50.674  12.960  22.542  0.00  0.00     0.012 A 
ATOM     25  C   UNL d   1     -50.820  13.084  21.737  0.00  0.00     0.058 A 
ATOM     26  C   UNL d   1     -50.771  13.843  21.417  0.00  0.00     0.012 A 
ATOM     27 CL   UNL d   1     -51.017  12.449  21.248  0.00  0.00    -0.082 Cl
ATOM     28  C   UNL d   1     -50.572  14.492  21.908  0.00  0.00     0.014 A 
ENDBRANCH  19  22
ENDBRANCH   1  19
TORSDOF 5
ENDMDL
MODEL 4
REMARK VINA RESULT:      -5.3      8.389     10.178
REMARK  5 active torsions:
REMARK  status: ('A' for Active; 'I' for Inactive)
REMARK    1  A    between atoms: N_2  and  S_1 
REMARK    2  A    between atoms: C_6  and  S_1 
REMARK       I    between atoms: C_3  and  N_4 
REMARK    3  A    between atoms: C_5  and  C_3 
REMARK    4  A    between atoms: O_22  and  C_12 
REMARK    5  A    between atoms: O_26  and  C_16 
ROOT
ATOM      1  N   UNL d   1     -38.634  14.579  17.653  0.00  0.00    -0.226 N 
ATOM      2  C   UNL d   1     -38.422  15.225  20.037  0.00  0.00     0.265 C 
ATOM      3  N   UNL d   1     -38.492  15.012  19.244  0.00  0.00    -0.269 N 
ATOM      4  C   UNL d   1     -38.174  15.216  17.882  0.00  0.00     0.111 A 
ATOM      5  C   UNL d   1     -39.033  14.147  18.240  0.00  0.00     0.111 A 
ATOM      6  C   UNL d   1     -38.952  14.375  19.025  0.00  0.00     0.103 A 
ATOM      7  C   UNL d   1     -38.092  15.443  18.657  0.00  0.00     0.103 A 
ATOM      8  O   UNL d   1     -37.955  15.869  20.239  0.00  0.00    -0.267 OA
ENDROOT
BRANCH   2   9
ATOM      9  C   UNL d   1     -38.811  14.806  20.608  0.00  0.00     0.059 A 
ATOM     10  C   UNL d   1     -39.564  15.033  20.852  0.00  0.00     0.031 A 
ATOM     11  C   UNL d   1     -39.949  14.616  21.418  0.00  0.00     0.116 A 
ATOM     12  C   UNL d   1     -39.596  13.957  21.762  0.00  0.00     0.116 A 
ATOM     13  C   UNL d   1     -38.842  13.728  21.519  0.00  0.00     0.026 A 
ATOM     14  C   UNL d   1     -38.457  14.145  20.952  0.00  0.00     0.007 A 
BRANCH  11  15
ATOM     15  O   UNL d   1     -40.716  14.876  21.643  0.00  0.00    -0.326 OA
ATOM     16  C   UNL d   1     -41.136  15.415  21.153  0.00  0.00     0.181 C 
ENDBRANCH  11  15
BRANCH  12  17
ATOM     17  O   UNL d   1     -39.991  13.522  22.349  0.00  0.00    -0.326 OA
ATOM     18  C   UNL d   1     -39.615  13.597  23.072  0.00  0.00     0.181 C 
ENDBRANCH  12  17
ENDBRANCH   2   9
BRANCH   1  19
ATOM     19  S   UNL d   1     -38.703  14.366  16.863  0.00  0.00     0.271 S 
ATOM     20  O   UNL d   1     -37.968  13.975  16.890  0.00  0.00    -0.200 OA
ATOM     21  O   UNL d   1     -38.785  14.156  16.061  0.00  0.00    -0.200 OA
BRANCH  19  22
ATOM     22  C   UNL d   1     -39.432  14.750  16.823  0.00  0.00     0.104 A 
ATOM     23  C   UNL d   1     -39.492  15.526  16.538  0.00  0.00     0.014 A 
ATOM     24  C   UNL d   1     -40.206  15.919  16.493  0.00  0.00     0.012 A 
ATOM     25  C   UNL d   1     -40.895  15.532  16.738  0.00  0.00     0.058 A 
ATOM     26  C   UNL d   1     -40.859  14.759  17.025  0.00  0.00     0.012 A 
ATOM     27 CL   UNL d   1     -41.625  15.916  16.698  0.00  0.00    -0.082 Cl
ATOM     28  C   UNL d   1     -40.122  14.363  17.069  0.00  0.00     0.014 A 
ENDBRANCH  19  22
ENDBRANCH   1  19
TORSDOF 5
ENDMDL
MODEL 5
REMARK VINA RESULT:      -4.5      1.845      4.319
REMARK  5 active torsions:
REMARK  status: ('A' for Active; 'I' for Inactive)
REMARK    1  A    between atoms: N_2  and  S_1 
REMARK    2  A    between atoms: C_6  and  S_1 
REMARK       I    between atoms: C_3  and  N_4 
REMARK    3  A    between atoms: C_5  and  C_3 
REMARK    4  A    between atoms: O_22  and  C_12 
REMARK    5  A    between atoms: O_26  and  C_16 
ROOT
ATOM      1  N   UNL d   1     -47.180  11.897  23.069  0.00  0.00    -0.226 N 
ATOM      2  C   UNL d   1     -49.413  12.769  22.434  0.00  0.00     0.265 C 
ATOM      3  N   UNL d   1     -48.671  12.478  22.644  0.00  0.00    -0.269 N 
ATOM      4  C   UNL d   1     -47.705  11.446  22.632  0.00  0.00     0.111 A 
ATOM      5  C   UNL d   1     -47.411  12.661  23.298  0.00  0.00     0.111 A 
ATOM      6  C   UNL d   1     -48.154  12.934  23.080  0.00  0.00     0.103 A 
ATOM      7  C   UNL d   1     -48.440  11.713  22.415  0.00  0.00     0.103 A 
ATOM      8  O   UNL d   1     -49.920  12.296  21.996  0.00  0.00    -0.267 OA
ENDROOT
BRANCH   2   9
ATOM      9  C   UNL d   1     -49.637  13.513  22.657  0.00  0.00     0.059 A 
ATOM     10  C   UNL d   1     -49.357  14.172  22.251  0.00  0.00     0.031 A 
ATOM     11  C   UNL d   1     -49.580  14.910  22.472  0.00  0.00     0.116 A 
ATOM     12  C   UNL d   1     -50.091  15.016  23.109  0.00  0.00     0.116 A 
ATOM     13  C   UNL d   1     -50.372  14.356  23.517  0.00  0.00     0.026 A 
ATOM     14  C   UNL d   1     -50.149  13.619  23.295  0.00  0.00     0.007 A 
BRANCH  11  15
ATOM     15  O   UNL d   1     -49.275  15.559  22.036  0.00  0.00    -0.326 OA
ATOM     16  C   UNL d   1     -48.444  15.667  21.969  0.00  0.00     0.181 C 
ENDBRANCH  11  15
BRANCH  12  17
ATOM     17  O   UNL d   1     -50.324  15.778  23.342  0.00  0.00    -0.326 OA
ATOM     18  C   UNL d   1     -51.063  15.762  23.695  0.00  0.00     0.181 C 
ENDBRANCH  12  17
ENDBRANCH   2   9
BRANCH   1  19
ATOM     19  S   UNL d   1     -46.442  11.607  23.278  0.00  0.00     0.271 S 
ATOM     20  O   UNL d   1     -46.788  10.925  23.607  0.00  0.00    -0.200 OA
ATOM     21  O   UNL d   1     -45.686  11.324  23.485  0.00  0.00    -0.200 OA
BRANCH  19  22
ATOM     22  C   UNL d   1     -46.086  12.279  22.956  0.00  0.00     0.104 A 
ATOM     23  C   UNL d   1     -45.880  12.311  22.155  0.00  0.00     0.014 A 
ATOM     24  C   UNL d   1     -45.528  12.968  21.821  0.00  0.00     0.012 A 
ATOM     25  C   UNL d   1     -45.371  13.626  22.298  0.00  0.00     0.058 A 
ATOM     26  C   UNL d   1     -45.569  13.616  23.100  0.00  0.00     0.012 A 
ATOM     27 CL   UNL d   1     -45.016  14.298  21.976  0.00  0.00    -0.082 Cl
ATOM     28  C   UNL d   1     -45.929  12.937  23.433  0.00  0.00     0.014 A 
ENDBRANCH  19  22
ENDBRANCH   1  19
TORSDOF 5
ENDMDL
