MODEL 1
REMARK VINA RESULT:      -6.4      0.000      0.000
REMARK  3 active torsions:
REMARK  status: ('A' for Active; 'I' for Inactive)
REMARK    1  A    between atoms: C_8  and  C_1 
REMARK    2  A    between atoms: N_5  and  C_2 
REMARK       I    between atoms: C_7  and  N_5 
REMARK    3  A    between atoms: C_9  and  C_7 
ROOT
ATOM      1  C   UNL d   1      59.050  -0.203  29.570  0.00  0.00     0.229 A 
ATOM      2  C   UNL d   1      57.959  -0.015  30.313  0.00  0.00     0.297 A 
ATOM      3  O   UNL d   1      58.778  -0.088  30.342  0.00  0.00    -0.252 OA
ATOM      4  N   UNL d   1      58.399  -0.201  29.075  0.00  0.00    -0.117 NA
ATOM      5  N   UNL d   1      57.726  -0.084  29.534  0.00  0.00    -0.101 NA
ENDROOT
BRANCH   2   6
ATOM      6  N   UNL d   1      57.469   0.107  30.963  0.00  0.00    -0.165 NA
ATOM      7  C   UNL d   1      57.105  -0.525  31.327  0.00  0.00     0.282 C 
ATOM      8  O   UNL d   1      57.220  -1.297  31.052  0.00  0.00    -0.265 OA
BRANCH   7   9
ATOM      9  C   UNL d   1      56.615  -0.402  31.978  0.00  0.00     0.058 A 
ATOM     10  C   UNL d   1      56.333  -1.051  32.400  0.00  0.00     0.005 A 
ATOM     11  C   UNL d   1      55.840  -0.937  33.056  0.00  0.00     0.000 A 
ATOM     12  C   UNL d   1      55.632  -0.169  33.284  0.00  0.00     0.000 A 
ATOM     13  C   UNL d   1      55.918   0.477  32.856  0.00  0.00     0.000 A 
ATOM     14  C   UNL d   1      55.143  -0.037  33.932  0.00  0.00     0.000 C 
ATOM     15  C   UNL d   1      56.410   0.362  32.202  0.00  0.00     0.005 A 
ENDBRANCH   7   9
ENDBRANCH   2   6
BRANCH   1  16
ATOM     16  C   UNL d   1      59.841  -0.303  29.347  0.00  0.00     0.143 A 
ATOM     17  O   UNL d   1      60.213  -1.015  29.185  0.00  0.00    -0.301 OA
ATOM     18  C   UNL d   1      60.994  -0.856  28.988  0.00  0.00     0.123 A 
ATOM     19  C   UNL d   1      61.109  -0.037  29.028  0.00  0.00     0.029 A 
ATOM     20  C   UNL d   1      60.397   0.306  29.250  0.00  0.00     0.030 A 
ENDBRANCH   1  16
TORSDOF 3
ENDMDL
MODEL 2
REMARK VINA RESULT:      -5.4      0.814      1.135
REMARK  3 active torsions:
REMARK  status: ('A' for Active; 'I' for Inactive)
REMARK    1  A    between atoms: C_8  and  C_1 
REMARK    2  A    between atoms: N_5  and  C_2 
REMARK       I    between atoms: C_7  and  N_5 
REMARK    3  A    between atoms: C_9  and  C_7 
ROOT
ATOM      1  C   UNL d   1      58.435  -0.215  30.098  0.00  0.00     0.229 A 
ATOM      2  C   UNL d   1      57.504  -0.151  31.050  0.00  0.00     0.297 A 
ATOM      3  O   UNL d   1      58.152   0.241  30.727  0.00  0.00    -0.252 OA
ATOM      4  N   UNL d   1      57.961  -0.879  30.040  0.00  0.00    -0.117 NA
ATOM      5  N   UNL d   1      57.387  -0.839  30.628  0.00  0.00    -0.101 NA
ENDROOT
BRANCH   2   6
ATOM      6  N   UNL d   1      57.058   0.115  31.689  0.00  0.00    -0.165 NA
ATOM      7  C   UNL d   1      56.729  -0.417  32.211  0.00  0.00     0.282 C 
ATOM      8  O   UNL d   1      56.837  -1.232  32.110  0.00  0.00    -0.265 OA
BRANCH   7   9
ATOM      9  C   UNL d   1      56.283  -0.150  32.850  0.00  0.00     0.058 A 
ATOM     10  C   UNL d   1      55.503  -0.400  32.931  0.00  0.00     0.005 A 
ATOM     11  C   UNL d   1      55.046  -0.136  33.571  0.00  0.00     0.000 A 
ATOM     12  C   UNL d   1      55.379   0.378  34.127  0.00  0.00     0.000 A 
ATOM     13  C   UNL d   1      56.163   0.625  34.039  0.00  0.00     0.000 A 
ATOM     14  C   UNL d   1      54.942   0.650  34.768  0.00  0.00     0.000 C 
ATOM     15  C   UNL d   1      56.617   0.362  33.401  0.00  0.00     0.005 A 
ENDBRANCH   7   9
ENDBRANCH   2   6
BRANCH   1  16
ATOM     16  C   UNL d   1      59.082  -0.025  29.619  0.00  0.00     0.143 A 
ATOM     17  O   UNL d   1      59.860   0.052  29.864  0.00  0.00    -0.301 OA
ATOM     18  C   UNL d   1      60.316   0.245  29.208  0.00  0.00     0.123 A 
ATOM     19  C   UNL d   1      59.817   0.288  28.550  0.00  0.00     0.029 A 
ATOM     20  C   UNL d   1      59.054   0.122  28.802  0.00  0.00     0.030 A 
ENDBRANCH   1  16
TORSDOF 3
ENDMDL
MODEL 3
REMARK VINA RESULT:      -5.1      1.514      4.977
REMARK  3 active torsions:
REMARK  status: ('A' for Active; 'I' for Inactive)
REMARK    1  A    between atoms: C_8  and  C_1 
REMARK    2  A    between atoms: N_5  and  C_2 
REMARK       I    between atoms: C_7  and  N_5 
REMARK    3  A    between atoms: C_9  and  C_7 
ROOT
ATOM      1  C   UNL d   1      55.881  -0.275  32.931  0.00  0.00     0.229 A 
ATOM      2  C   UNL d   1      56.630  -0.476  31.846  0.00  0.00     0.297 A 
ATOM      3  O   UNL d   1      56.256   0.102  32.297  0.00  0.00    -0.252 OA
ATOM      4  N   UNL d   1      56.027  -1.076  32.864  0.00  0.00    -0.117 NA
ATOM      5  N   UNL d   1      56.489  -1.201  32.195  0.00  0.00    -0.101 NA
ENDROOT
BRANCH   2   6
ATOM      6  N   UNL d   1      57.068  -0.336  31.163  0.00  0.00    -0.165 NA
ATOM      7  C   UNL d   1      57.741   0.122  31.193  0.00  0.00     0.282 C 
ATOM      8  O   UNL d   1      57.997   0.454  31.907  0.00  0.00    -0.265 OA
BRANCH   7   9
ATOM      9  C   UNL d   1      58.179   0.261  30.509  0.00  0.00     0.058 A 
ATOM     10  C   UNL d   1      58.989   0.113  30.510  0.00  0.00     0.005 A 
ATOM     11  C   UNL d   1      59.437   0.250  29.827  0.00  0.00     0.000 A 
ATOM     12  C   UNL d   1      59.066   0.536  29.144  0.00  0.00     0.000 A 
ATOM     13  C   UNL d   1      58.253   0.682  29.150  0.00  0.00     0.000 A 
ATOM     14  C   UNL d   1      59.495   0.677  28.457  0.00  0.00     0.000 C 
ATOM     15  C   UNL d   1      57.807   0.545  29.832  0.00  0.00     0.005 A 
ENDBRANCH   7   9
ENDBRANCH   2   6
BRANCH   1  16
ATOM     16  C   UNL d   1      55.440   0.101  33.521  0.00  0.00     0.143 A 
ATOM     17  O   UNL d   1      54.650   0.314  33.474  0.00  0.00    -0.301 OA
ATOM     18  C   UNL d   1      54.440   0.672  34.184  0.00  0.00     0.123 A 
ATOM     19  C   UNL d   1      55.106   0.681  34.675  0.00  0.00     0.029 A 
ATOM     20  C   UNL d   1      55.724   0.329  34.267  0.00  0.00     0.030 A 
ENDBRANCH   1  16
TORSDOF 3
ENDMDL
MODEL 4
REMARK VINA RESULT:      -3.9      1.524      2.039
REMARK  3 active torsions:
REMARK  status: ('A' for Active; 'I' for Inactive)
REMARK    1  A    between atoms: C_8  and  C_1 
REMARK    2  A    between atoms: N_5  and  C_2 
REMARK       I    between atoms: C_7  and  N_5 
REMARK    3  A    between atoms: C_9  and  C_7 
ROOT
ATOM      1  C   UNL d   1      58.005   0.362  30.583  0.00  0.00     0.229 A 
ATOM      2  C   UNL d   1      57.414   0.548  31.763  0.00  0.00     0.297 A 
ATOM      3  O   UNL d   1      57.278   0.498  30.953  0.00  0.00    -0.252 OA
ATOM      4  N   UNL d   1      58.578   0.330  31.166  0.00  0.00    -0.117 NA
ATOM      5  N   UNL d   1      58.213   0.445  31.894  0.00  0.00    -0.101 NA
ENDROOT
BRANCH   2   6
ATOM      6  N   UNL d   1      56.835   0.680  32.335  0.00  0.00    -0.165 NA
ATOM      7  C   UNL d   1      56.594   0.074  32.823  0.00  0.00     0.282 C 
ATOM      8  O   UNL d   1      56.924  -0.682  32.755  0.00  0.00    -0.265 OA
BRANCH   7   9
ATOM      9  C   UNL d   1      56.016   0.207  33.394  0.00  0.00     0.058 A 
ATOM     10  C   UNL d   1      56.238   0.479  34.139  0.00  0.00     0.005 A 
ATOM     11  C   UNL d   1      55.663   0.616  34.720  0.00  0.00     0.000 A 
ATOM     12  C   UNL d   1      54.866   0.478  34.548  0.00  0.00     0.000 A 
ATOM     13  C   UNL d   1      54.649   0.204  33.798  0.00  0.00     0.000 A 
ATOM     14  C   UNL d   1      54.281   0.608  35.112  0.00  0.00     0.000 C 
ATOM     15  C   UNL d   1      55.224   0.069  33.220  0.00  0.00     0.005 A 
ENDBRANCH   7   9
ENDBRANCH   2   6
BRANCH   1  16
ATOM     16  C   UNL d   1      58.122   0.275  29.768  0.00  0.00     0.143 A 
ATOM     17  O   UNL d   1      57.548   0.345  29.187  0.00  0.00    -0.301 OA
ATOM     18  C   UNL d   1      57.906   0.216  28.459  0.00  0.00     0.123 A 
ATOM     19  C   UNL d   1      58.710   0.066  28.589  0.00  0.00     0.029 A 
ATOM     20  C   UNL d   1      58.844   0.102  29.398  0.00  0.00     0.030 A 
ENDBRANCH   1  16
TORSDOF 3
ENDMDL
