MODEL 1
REMARK VINA RESULT:      -5.4      0.000      0.000
REMARK  3 active torsions:
REMARK  status: ('A' for Active; 'I' for Inactive)
REMARK    1  A    between atoms: C_6  and  C_3 
REMARK    2  A    between atoms: C_9  and  C_6 
REMARK    3  A    between atoms: C_10  and  C_9 
ROOT
ATOM      1  N   UNL d   1     -41.163-123.447 -52.851  0.00  0.00    -0.225 NA
ATOM      2  N   UNL d   1     -41.140-122.105 -52.726  0.00  0.00    -0.225 NA
ATOM      3  C   UNL d   1     -41.156-122.718 -53.285  0.00  0.00     0.163 A 
ATOM      4  C   UNL d   1     -41.151-123.271 -52.066  0.00  0.00     0.101 A 
ATOM      5  C   UNL d   1     -41.137-122.425 -51.987  0.00  0.00     0.101 A 
ATOM      6  C   UNL d   1     -41.149-123.696 -51.358  0.00  0.00     0.021 A 
ATOM      7  C   UNL d   1     -41.123-122.081 -51.238  0.00  0.00     0.021 A 
ATOM      8  C   UNL d   1     -41.136-123.376 -50.667  0.00  0.00     0.002 A 
ATOM      9  C   UNL d   1     -41.123-122.555 -50.591  0.00  0.00     0.002 A 
ENDROOT
BRANCH   3  10
ATOM     10  C   UNL d   1     -41.165-122.642 -54.105  0.00  0.00     0.039 C 
BRANCH  10  11
ATOM     11  C   UNL d   1     -41.853-122.398 -54.490  0.00  0.00     0.003 C 
BRANCH  11  12
ATOM     12  C   UNL d   1     -41.845-122.262 -55.304  0.00  0.00     0.000 C 
ATOM     13  C   UNL d   1     -42.496-121.902 -55.668  0.00  0.00     0.000 C 
ENDBRANCH  11  12
ENDBRANCH  10  11
ENDBRANCH   3  10
TORSDOF 3
ENDMDL
MODEL 2
REMARK VINA RESULT:      -5.0      0.699      3.516
REMARK  3 active torsions:
REMARK  status: ('A' for Active; 'I' for Inactive)
REMARK    1  A    between atoms: C_6  and  C_3 
REMARK    2  A    between atoms: C_9  and  C_6 
REMARK    3  A    between atoms: C_10  and  C_9 
ROOT
ATOM      1  N   UNL d   1     -41.787-121.767 -53.080  0.00  0.00    -0.225 NA
ATOM      2  N   UNL d   1     -41.123-122.934 -53.202  0.00  0.00    -0.225 NA
ATOM      3  C   UNL d   1     -41.327-122.340 -52.659  0.00  0.00     0.163 A 
ATOM      4  C   UNL d   1     -41.854-122.012 -53.845  0.00  0.00     0.101 A 
ATOM      5  C   UNL d   1     -41.435-122.748 -53.921  0.00  0.00     0.101 A 
ATOM      6  C   UNL d   1     -42.214-121.732 -54.533  0.00  0.00     0.021 A 
ATOM      7  C   UNL d   1     -41.408-123.133 -54.650  0.00  0.00     0.021 A 
ATOM      8  C   UNL d   1     -42.187-122.089 -55.204  0.00  0.00     0.002 A 
ATOM      9  C   UNL d   1     -41.781-122.803 -55.279  0.00  0.00     0.002 A 
ENDROOT
BRANCH   3  10
ATOM     10  C   UNL d   1     -41.123-122.308 -51.861  0.00  0.00     0.039 C 
BRANCH  10  11
ATOM     11  C   UNL d   1     -41.637-122.614 -51.291  0.00  0.00     0.003 C 
BRANCH  11  12
ATOM     12  C   UNL d   1     -41.418-122.614 -50.496  0.00  0.00     0.000 C 
ATOM     13  C   UNL d   1     -41.972-122.822 -49.916  0.00  0.00     0.000 C 
ENDBRANCH  11  12
ENDBRANCH  10  11
ENDBRANCH   3  10
TORSDOF 3
ENDMDL
MODEL 3
REMARK VINA RESULT:      -4.4      0.762      1.319
REMARK  3 active torsions:
REMARK  status: ('A' for Active; 'I' for Inactive)
REMARK    1  A    between atoms: C_6  and  C_3 
REMARK    2  A    between atoms: C_9  and  C_6 
REMARK    3  A    between atoms: C_10  and  C_9 
ROOT
ATOM      1  N   UNL d   1     -41.727-122.192 -51.926  0.00  0.00    -0.225 NA
ATOM      2  N   UNL d   1     -41.134-123.402 -51.963  0.00  0.00    -0.225 NA
ATOM      3  C   UNL d   1     -41.311-122.736 -52.425  0.00  0.00     0.163 A 
ATOM      4  C   UNL d   1     -41.794-122.523 -51.195  0.00  0.00     0.101 A 
ATOM      5  C   UNL d   1     -41.420-123.286 -51.218  0.00  0.00     0.101 A 
ATOM      6  C   UNL d   1     -42.122-122.308 -50.469  0.00  0.00     0.021 A 
ATOM      7  C   UNL d   1     -41.402-123.757 -50.542  0.00  0.00     0.021 A 
ATOM      8  C   UNL d   1     -42.104-122.745 -49.845  0.00  0.00     0.002 A 
ATOM      9  C   UNL d   1     -41.741-123.485 -49.868  0.00  0.00     0.002 A 
ENDROOT
BRANCH   3  10
ATOM     10  C   UNL d   1     -41.123-122.619 -53.219  0.00  0.00     0.039 C 
BRANCH  10  11
ATOM     11  C   UNL d   1     -41.712-122.669 -53.795  0.00  0.00     0.003 C 
BRANCH  11  12
ATOM     12  C   UNL d   1     -41.506-122.701 -54.593  0.00  0.00     0.000 C 
ATOM     13  C   UNL d   1     -41.935-122.258 -55.147  0.00  0.00     0.000 C 
ENDBRANCH  11  12
ENDBRANCH  10  11
ENDBRANCH   3  10
TORSDOF 3
ENDMDL
MODEL 4
REMARK VINA RESULT:      -3.6      1.855      2.734
REMARK  3 active torsions:
REMARK  status: ('A' for Active; 'I' for Inactive)
REMARK    1  A    between atoms: C_6  and  C_3 
REMARK    2  A    between atoms: C_9  and  C_6 
REMARK    3  A    between atoms: C_10  and  C_9 
ROOT
ATOM      1  N   UNL d   1     -42.386-122.541 -50.383  0.00  0.00    -0.225 NA
ATOM      2  N   UNL d   1     -41.124-122.891 -50.066  0.00  0.00    -0.225 NA
ATOM      3  C   UNL d   1     -41.583-122.529 -50.654  0.00  0.00     0.163 A 
ATOM      4  C   UNL d   1     -42.402-122.897 -49.661  0.00  0.00     0.101 A 
ATOM      5  C   UNL d   1     -41.606-123.118 -49.461  0.00  0.00     0.101 A 
ATOM      6  C   UNL d   1     -42.978-123.087 -49.101  0.00  0.00     0.021 A 
ATOM      7  C   UNL d   1     -41.451-123.496 -48.745  0.00  0.00     0.021 A 
ATOM      8  C   UNL d   1     -42.832-123.437 -48.441  0.00  0.00     0.002 A 
ATOM      9  C   UNL d   1     -42.059-123.651 -48.246  0.00  0.00     0.002 A 
ENDROOT
BRANCH   3  10
ATOM     10  C   UNL d   1     -41.317-122.215 -51.368  0.00  0.00     0.039 C 
BRANCH  10  11
ATOM     11  C   UNL d   1     -41.611-122.506 -52.082  0.00  0.00     0.003 C 
BRANCH  11  12
ATOM     12  C   UNL d   1     -41.123-122.543 -52.746  0.00  0.00     0.000 C 
ATOM     13  C   UNL d   1     -41.444-122.432 -53.501  0.00  0.00     0.000 C 
ENDBRANCH  11  12
ENDBRANCH  10  11
ENDBRANCH   3  10
TORSDOF 3
ENDMDL
MODEL 5
REMARK VINA RESULT:      -2.5      0.958      1.324
REMARK  3 active torsions:
REMARK  status: ('A' for Active; 'I' for Inactive)
REMARK    1  A    between atoms: C_6  and  C_3 
REMARK    2  A    between atoms: C_9  and  C_6 
REMARK    3  A    between atoms: C_10  and  C_9 
ROOT
ATOM      1  N   UNL d   1     -41.975-123.135 -51.820  0.00  0.00    -0.225 NA
ATOM      2  N   UNL d   1     -41.627-121.907 -51.388  0.00  0.00    -0.225 NA
ATOM      3  C   UNL d   1     -41.811-122.342 -52.070  0.00  0.00     0.163 A 
ATOM      4  C   UNL d   1     -41.890-123.168 -51.020  0.00  0.00     0.101 A 
ATOM      5  C   UNL d   1     -41.671-122.394 -50.748  0.00  0.00     0.101 A 
ATOM      6  C   UNL d   1     -41.963-123.747 -50.435  0.00  0.00     0.021 A 
ATOM      7  C   UNL d   1     -41.546-122.260 -49.944  0.00  0.00     0.021 A 
ATOM      8  C   UNL d   1     -41.846-123.620 -49.694  0.00  0.00     0.002 A 
ATOM      9  C   UNL d   1     -41.634-122.868 -49.429  0.00  0.00     0.002 A 
ENDROOT
BRANCH   3  10
ATOM     10  C   UNL d   1     -41.833-122.063 -52.845  0.00  0.00     0.039 C 
BRANCH  10  11
ATOM     11  C   UNL d   1     -41.427-122.465 -53.440  0.00  0.00     0.003 C 
BRANCH  11  12
ATOM     12  C   UNL d   1     -41.264-122.089 -54.156  0.00  0.00     0.000 C 
ATOM     13  C   UNL d   1     -41.727-122.255 -54.824  0.00  0.00     0.000 C 
ENDBRANCH  11  12
ENDBRANCH  10  11
ENDBRANCH   3  10
TORSDOF 3
ENDMDL
