MODEL 1
REMARK VINA RESULT:      -5.0      0.000      0.000
REMARK  2 active torsions:
REMARK  status: ('A' for Active; 'I' for Inactive)
REMARK       I    between atoms: N_2  and  C_1 
REMARK    1  A    between atoms: C_3  and  C_1 
REMARK    2  A    between atoms: C_4  and  N_2 
ROOT
ATOM      1  C   UNL d   1      56.820  -0.514  31.808  0.00  0.00     0.059 A 
ATOM      2  C   UNL d   1      56.654   0.129  32.296  0.00  0.00     0.025 A 
ATOM      3  C   UNL d   1      56.130   0.038  32.938  0.00  0.00     0.099 A 
ATOM      4  N   UNL d   1      55.962   0.682  33.428  0.00  0.00    -0.241 NA
ATOM      5  N   UNL d   1      55.262  -0.795  33.713  0.00  0.00    -0.241 NA
ATOM      6  C   UNL d   1      55.779  -0.694  33.084  0.00  0.00     0.099 A 
ATOM      7  C   UNL d   1      56.467  -1.250  31.955  0.00  0.00     0.006 A 
ATOM      8  C   UNL d   1      55.949  -1.340  32.589  0.00  0.00     0.021 A 
ATOM      9  C   UNL d   1      55.441   0.585  34.064  0.00  0.00     0.120 A 
ATOM     10  C   UNL d   1      55.092  -0.149  34.206  0.00  0.00     0.120 A 
ENDROOT
BRANCH   1  11
ATOM     11  C   UNL d   1      57.337  -0.423  31.174  0.00  0.00     0.281 C 
ATOM     12  N   UNL d   1      57.647   0.320  30.996  0.00  0.00    -0.189 NA
ATOM     13  O   UNL d   1      57.545  -1.078  30.719  0.00  0.00    -0.265 OA
BRANCH  12  14
ATOM     14  C   UNL d   1      58.164   0.410  30.361  0.00  0.00     0.166 A 
ATOM     15  N   UNL d   1      57.880   0.341  29.590  0.00  0.00    -0.225 NA
ATOM     16  C   UNL d   1      58.399   0.430  28.952  0.00  0.00     0.107 A 
ATOM     17  C   UNL d   1      59.197   0.588  29.089  0.00  0.00     0.054 A 
ATOM     18  C   UNL d   1      59.477   0.656  29.865  0.00  0.00     0.011 A 
ATOM     19 BR   UNL d   1      59.715   0.677  28.455  0.00  0.00    -0.048 Br
ATOM     20  C   UNL d   1      58.958   0.566  30.498  0.00  0.00     0.039 A 
ENDBRANCH  12  14
ENDBRANCH   1  11
TORSDOF 2
ENDMDL
MODEL 2
REMARK VINA RESULT:      -5.0      2.023      4.687
REMARK  2 active torsions:
REMARK  status: ('A' for Active; 'I' for Inactive)
REMARK       I    between atoms: N_2  and  C_1 
REMARK    1  A    between atoms: C_3  and  C_1 
REMARK    2  A    between atoms: C_4  and  N_2 
ROOT
ATOM      1  C   UNL d   1      58.011   0.084  30.555  0.00  0.00     0.059 A 
ATOM      2  C   UNL d   1      58.058  -0.614  30.119  0.00  0.00     0.025 A 
ATOM      3  C   UNL d   1      58.673  -0.717  29.567  0.00  0.00     0.099 A 
ATOM      4  N   UNL d   1      58.722  -1.416  29.128  0.00  0.00    -0.241 NA
ATOM      5  N   UNL d   1      59.844  -0.212  28.916  0.00  0.00    -0.241 NA
ATOM      6  C   UNL d   1      59.234  -0.121  29.457  0.00  0.00     0.099 A 
ATOM      7  C   UNL d   1      58.574   0.682  30.445  0.00  0.00     0.006 A 
ATOM      8  C   UNL d   1      59.183   0.581  29.899  0.00  0.00     0.021 A 
ATOM      9  C   UNL d   1      59.336  -1.511  28.581  0.00  0.00     0.120 A 
ATOM     10  C   UNL d   1      59.894  -0.913  28.475  0.00  0.00     0.120 A 
ENDROOT
BRANCH   1  11
ATOM     11  C   UNL d   1      57.403   0.185  31.100  0.00  0.00     0.281 C 
ATOM     12  N   UNL d   1      57.458  -0.156  31.850  0.00  0.00    -0.189 NA
ATOM     13  O   UNL d   1      56.738   0.627  30.896  0.00  0.00    -0.265 OA
BRANCH  12  14
ATOM     14  C   UNL d   1      56.849  -0.054  32.394  0.00  0.00     0.166 A 
ATOM     15  N   UNL d   1      56.876   0.579  32.923  0.00  0.00    -0.225 NA
ATOM     16  C   UNL d   1      56.264   0.682  33.471  0.00  0.00     0.107 A 
ATOM     17  C   UNL d   1      55.631   0.153  33.486  0.00  0.00     0.054 A 
ATOM     18  C   UNL d   1      55.610  -0.481  32.954  0.00  0.00     0.011 A 
ATOM     19 BR   UNL d   1      55.022   0.254  34.031  0.00  0.00    -0.048 Br
ATOM     20  C   UNL d   1      56.219  -0.581  32.410  0.00  0.00     0.039 A 
ENDBRANCH  12  14
ENDBRANCH   1  11
TORSDOF 2
ENDMDL
MODEL 3
REMARK VINA RESULT:      -3.4      2.280      4.715
REMARK  2 active torsions:
REMARK  status: ('A' for Active; 'I' for Inactive)
REMARK       I    between atoms: N_2  and  C_1 
REMARK    1  A    between atoms: C_3  and  C_1 
REMARK    2  A    between atoms: C_4  and  N_2 
ROOT
ATOM      1  C   UNL d   1      58.221  -1.058  30.138  0.00  0.00     0.059 A 
ATOM      2  C   UNL d   1      58.938  -0.683  29.981  0.00  0.00     0.025 A 
ATOM      3  C   UNL d   1      59.490  -1.040  29.470  0.00  0.00     0.099 A 
ATOM      4  N   UNL d   1      60.210  -0.665  29.312  0.00  0.00    -0.241 NA
ATOM      5  N   UNL d   1      59.855  -2.128  28.615  0.00  0.00    -0.241 NA
ATOM      6  C   UNL d   1      59.319  -1.768  29.120  0.00  0.00     0.099 A 
ATOM      7  C   UNL d   1      58.049  -1.789  29.787  0.00  0.00     0.006 A 
ATOM      8  C   UNL d   1      58.595  -2.143  29.280  0.00  0.00     0.021 A 
ATOM      9  C   UNL d   1      60.754  -1.026  28.802  0.00  0.00     0.120 A 
ATOM     10  C   UNL d   1      60.578  -1.753  28.455  0.00  0.00     0.120 A 
ENDROOT
BRANCH   1  11
ATOM     11  C   UNL d   1      57.677  -0.705  30.644  0.00  0.00     0.281 C 
ATOM     12  N   UNL d   1      57.437  -1.093  31.331  0.00  0.00    -0.189 NA
ATOM     13  O   UNL d   1      57.372   0.039  30.462  0.00  0.00    -0.265 OA
BRANCH  12  14
ATOM     14  C   UNL d   1      56.892  -0.739  31.836  0.00  0.00     0.166 A 
ATOM     15  N   UNL d   1      56.842   0.084  31.869  0.00  0.00    -0.225 NA
ATOM     16  C   UNL d   1      56.295   0.442  32.377  0.00  0.00     0.107 A 
ATOM     17  C   UNL d   1      55.802  -0.025  32.846  0.00  0.00     0.054 A 
ATOM     18  C   UNL d   1      55.857  -0.850  32.808  0.00  0.00     0.011 A 
ATOM     19 BR   UNL d   1      55.257   0.329  33.352  0.00  0.00    -0.048 Br
ATOM     20  C   UNL d   1      56.402  -1.203  32.303  0.00  0.00     0.039 A 
ENDBRANCH  12  14
ENDBRANCH   1  11
TORSDOF 2
ENDMDL
