MODEL 1
REMARK VINA RESULT:      34.8      0.000      0.000
REMARK  4 active torsions:
REMARK  status: ('A' for Active; 'I' for Inactive)
REMARK    1  A    between atoms: C_3  and  C_1 
REMARK    2  A    between atoms: N_10  and  C_3 
REMARK    3  A    between atoms: C_13  and  C_3 
REMARK    4  A    between atoms: C_5  and  N_10 
ROOT
ATOM      1  C   UNL d   1      45.451 -14.268  44.345  0.00  0.00     0.086 C 
ENDROOT
BRANCH   1   2
ATOM      2  C   UNL d   1      45.636 -13.547  43.968  0.00  0.00     0.037 A 
ATOM      3  C   UNL d   1      46.183 -12.980  44.256  0.00  0.00     0.083 A 
ATOM      4  N   UNL d   1      46.208 -12.378  43.751  0.00  0.00    -0.245 NA
ATOM      5  C   UNL d   1      46.619 -13.043  44.951  0.00  0.00     0.021 C 
ATOM      6  C   UNL d   1      45.696 -12.520  43.129  0.00  0.00     0.081 A 
ATOM      7  C   UNL d   1      45.337 -13.254  43.266  0.00  0.00     0.021 A 
ATOM      8  C   UNL d   1      45.506 -12.081  42.457  0.00  0.00     0.019 A 
ATOM      9  C   UNL d   1      44.794 -13.539  42.728  0.00  0.00     0.002 A 
ATOM     10  C   UNL d   1      44.597 -13.116  42.059  0.00  0.00     0.000 A 
ATOM     11  C   UNL d   1      44.955 -12.382  41.923  0.00  0.00     0.002 A 
ENDBRANCH   1   2
BRANCH   1  12
ATOM     12  N   UNL d   1      46.042 -14.804  44.506  0.00  0.00    -0.225 NA
BRANCH  12  13
ATOM     13  C   UNL d   1      45.976 -15.555  44.213  0.00  0.00     0.191 A 
ATOM     14  N   UNL d   1      45.785 -15.872  43.450  0.00  0.00    -0.107 NA
ATOM     15  O   UNL d   1      45.805 -16.689  43.495  0.00  0.00    -0.210 OA
ATOM     16  C   UNL d   1      46.003 -16.908  44.261  0.00  0.00     0.128 A 
ATOM     17  C   UNL d   1      46.109 -16.213  44.711  0.00  0.00     0.068 A 
ATOM     18  C   UNL d   1      46.073 -17.698  44.504  0.00  0.00     0.029 C 
ENDBRANCH  12  13
ENDBRANCH   1  12
BRANCH   1  19
ATOM     19  C   UNL d   1      44.667 -14.422  44.548  0.00  0.00     0.037 A 
ATOM     20  C   UNL d   1      44.407 -15.177  44.588  0.00  0.00     0.100 A 
ATOM     21  N   UNL d   1      43.626 -15.358  44.790  0.00  0.00    -0.242 NA
ATOM     22  C   UNL d   1      43.105 -14.724  44.953  0.00  0.00     0.099 A 
ATOM     23  C   UNL d   1      43.382 -13.947  44.910  0.00  0.00     0.021 A 
ATOM     24  C   UNL d   1      44.152 -13.781  44.711  0.00  0.00     0.005 A 
ENDBRANCH   1  19
TORSDOF 4
ENDMDL
MODEL 2
REMARK VINA RESULT:      37.3      2.346      4.456
REMARK  4 active torsions:
REMARK  status: ('A' for Active; 'I' for Inactive)
REMARK    1  A    between atoms: C_3  and  C_1 
REMARK    2  A    between atoms: N_10  and  C_3 
REMARK    3  A    between atoms: C_13  and  C_3 
REMARK    4  A    between atoms: C_5  and  N_10 
ROOT
ATOM      1  C   UNL d   1      46.335 -18.056  43.542  0.00  0.00     0.086 C 
ENDROOT
BRANCH   1   2
ATOM      2  C   UNL d   1      45.942 -17.486  44.006  0.00  0.00     0.037 A 
ATOM      3  C   UNL d   1      45.408 -17.658  44.631  0.00  0.00     0.083 A 
ATOM      4  N   UNL d   1      45.152 -16.979  44.935  0.00  0.00    -0.245 NA
ATOM      5  C   UNL d   1      45.190 -18.411  44.882  0.00  0.00     0.021 C 
ATOM      6  C   UNL d   1      45.496 -16.354  44.536  0.00  0.00     0.081 A 
ATOM      7  C   UNL d   1      45.991 -16.671  43.954  0.00  0.00     0.021 A 
ATOM      8  C   UNL d   1      45.425 -15.537  44.625  0.00  0.00     0.019 A 
ATOM      9  C   UNL d   1      46.409 -16.168  43.466  0.00  0.00     0.002 A 
ATOM     10  C   UNL d   1      46.349 -15.358  43.542  0.00  0.00     0.000 A 
ATOM     11  C   UNL d   1      45.854 -15.041  44.125  0.00  0.00     0.002 A 
ENDBRANCH   1   2
BRANCH   1  12
ATOM     12  N   UNL d   1      46.612 -17.854  42.803  0.00  0.00    -0.225 NA
BRANCH  12  13
ATOM     13  C   UNL d   1      46.191 -18.089  42.153  0.00  0.00     0.191 A 
ATOM     14  N   UNL d   1      45.364 -18.126  41.972  0.00  0.00    -0.107 NA
ATOM     15  O   UNL d   1      45.277 -18.416  41.212  0.00  0.00    -0.210 OA
ATOM     16  C   UNL d   1      46.020 -18.567  40.898  0.00  0.00     0.128 A 
ATOM     17  C   UNL d   1      46.591 -18.367  41.473  0.00  0.00     0.068 A 
ATOM     18  C   UNL d   1      46.138 -18.867  40.133  0.00  0.00     0.029 C 
ENDBRANCH  12  13
ENDBRANCH   1  12
BRANCH   1  19
ATOM     19  C   UNL d   1      46.435 -18.817  43.842  0.00  0.00     0.037 A 
ATOM     20  C   UNL d   1      46.438 -19.444  43.346  0.00  0.00     0.100 A 
ATOM     21  N   UNL d   1      46.537 -20.217  43.624  0.00  0.00    -0.242 NA
ATOM     22  C   UNL d   1      46.635 -20.330  44.447  0.00  0.00     0.099 A 
ATOM     23  C   UNL d   1      46.630 -19.676  44.952  0.00  0.00     0.021 A 
ATOM     24  C   UNL d   1      46.532 -18.922  44.668  0.00  0.00     0.005 A 
ENDBRANCH   1  19
TORSDOF 4
ENDMDL
