MODEL 1
REMARK VINA RESULT:      44.4      0.000      0.000
REMARK  7 active torsions:
REMARK  status: ('A' for Active; 'I' for Inactive)
REMARK    1  A    between atoms: N_2  and  S_1 
REMARK    2  A    between atoms: C_6  and  S_1 
REMARK    3  A    between atoms: C_3  and  N_2 
REMARK       I    between atoms: C_7  and  N_10 
REMARK    4  A    between atoms: C_17  and  C_7 
REMARK    5  A    between atoms: N_10  and  C_18 
REMARK    6  A    between atoms: C_19  and  C_17 
REMARK    7  A    between atoms: O_27  and  C_20 
ROOT
ATOM      1  C   UNL d   1      45.173 -12.273  41.932  0.00  0.00     0.106 A 
ATOM      2  C   UNL d   1      44.535 -12.208  41.401  0.00  0.00     0.015 A 
ATOM      3  C   UNL d   1      45.936 -12.389  41.665  0.00  0.00     0.015 A 
ATOM      4  C   UNL d   1      45.459 -12.381  40.311  0.00  0.00     0.085 A 
ATOM      5  C   UNL d   1      44.695 -12.264  40.599  0.00  0.00     0.020 A 
ATOM      6  C   UNL d   1      46.076 -12.443  40.850  0.00  0.00     0.020 A 
ENDROOT
BRANCH   1   7
ATOM      7  S   UNL d   1      45.027 -12.218  42.763  0.00  0.00     0.300 S 
ATOM      8  O   UNL d   1      45.862 -12.117  42.882  0.00  0.00    -0.198 OA
ATOM      9  O   UNL d   1      44.213 -12.318  42.620  0.00  0.00    -0.198 OA
BRANCH   7  10
ATOM     10  N   UNL d   1      44.906 -12.161  43.581  0.00  0.00     0.034 NA
BRANCH  10  11
ATOM     11  C   UNL d   1      44.998 -12.877  44.049  0.00  0.00     0.760 A 
ATOM     12  N   UNL d   1      45.762 -13.115  44.265  0.00  0.00    -0.059 NA
ATOM     13  C   UNL d   1      45.854 -13.805  44.716  0.00  0.00     0.101 A 
ATOM     14  C   UNL d   1      46.637 -14.073  44.954  0.00  0.00     0.021 C 
ATOM     15  C   UNL d   1      45.197 -14.238  44.939  0.00  0.00     0.040 A 
ATOM     16  C   UNL d   1      44.463 -13.981  44.711  0.00  0.00     0.101 A 
ATOM     17  N   UNL d   1      44.355 -13.303  44.267  0.00  0.00    -0.059 NA
ATOM     18  C   UNL d   1      43.800 -14.446  44.954  0.00  0.00     0.021 C 
ENDBRANCH  10  11
ENDBRANCH   7  10
ENDBRANCH   1   7
BRANCH   4  19
ATOM     19  N   UNL d   1      45.626 -12.438  39.502  0.00  0.00    -0.208 NA
ATOM     20  C   UNL d   1      45.231 -13.003  39.029  0.00  0.00     0.279 C 
ATOM     21  O   UNL d   1      44.658 -13.521  39.374  0.00  0.00    -0.265 OA
BRANCH  20  22
ATOM     22  C   UNL d   1      45.404 -13.052  38.227  0.00  0.00     0.062 C 
BRANCH  22  23
ATOM     23  C   UNL d   1      45.238 -13.772  37.788  0.00  0.00     0.005 A 
ATOM     24  C   UNL d   1      45.825 -14.103  37.310  0.00  0.00     0.002 A 
ATOM     25  C   UNL d   1      45.665 -14.790  36.892  0.00  0.00     0.024 A 
ATOM     26  C   UNL d   1      44.929 -15.159  36.938  0.00  0.00     0.094 A 
ATOM     27  C   UNL d   1      44.349 -14.843  37.403  0.00  0.00     0.024 A 
ATOM     28  C   UNL d   1      44.495 -14.155  37.827  0.00  0.00     0.002 A 
BRANCH  26  29
ATOM     29  O   UNL d   1      44.803 -15.870  36.489  0.00  0.00    -0.328 OA
ATOM     30  C   UNL d   1      44.097 -16.298  36.528  0.00  0.00     0.181 C 
ENDBRANCH  26  29
ENDBRANCH  22  23
ENDBRANCH  20  22
ENDBRANCH   4  19
TORSDOF 7
ENDMDL
