MODEL 1
REMARK VINA RESULT:      -3.4      0.000      0.000
REMARK  2 active torsions:
REMARK  status: ('A' for Active; 'I' for Inactive)
REMARK    1  A    between atoms: N_5  and  C_1 
REMARK    2  A    between atoms: C_8  and  C_4 
ROOT
ATOM      1  C   UNL d   1      58.338  -0.084  30.262  0.00  0.00     0.166 A 
ATOM      2  N   UNL d   1      57.966   0.399  30.794  0.00  0.00    -0.225 NA
ATOM      3  N   UNL d   1      57.572  -1.166  30.787  0.00  0.00    -0.241 NA
ATOM      4  C   UNL d   1      58.137  -0.881  30.259  0.00  0.00     0.116 A 
ATOM      5  C   UNL d   1      57.408   0.146  31.324  0.00  0.00     0.101 A 
ATOM      6  C   UNL d   1      57.207  -0.651  31.320  0.00  0.00     0.099 A 
ATOM      7  C   UNL d   1      57.036   0.629  31.856  0.00  0.00     0.021 A 
ATOM      8  C   UNL d   1      56.641  -0.936  31.849  0.00  0.00     0.021 A 
ATOM      9  C   UNL d   1      56.296  -0.427  32.360  0.00  0.00     0.002 A 
ATOM     10  C   UNL d   1      56.497   0.370  32.364  0.00  0.00     0.002 A 
ENDROOT
BRANCH   1  11
ATOM     11  N   UNL d   1      58.895   0.170  29.735  0.00  0.00    -0.284 N 
ATOM     12  C   UNL d   1      59.685   0.186  29.981  0.00  0.00     0.108 A 
ATOM     13  C   UNL d   1      60.269   0.449  29.439  0.00  0.00     0.142 A 
ATOM     14  O   UNL d   1      60.045   0.682  28.684  0.00  0.00    -0.300 OA
ATOM     15  C   UNL d   1      59.260   0.660  28.457  0.00  0.00     0.142 A 
ATOM     16  C   UNL d   1      58.665   0.406  28.971  0.00  0.00     0.108 A 
ENDBRANCH   1  11
BRANCH   4  17
ATOM     17  C   UNL d   1      58.501  -1.395  29.727  0.00  0.00     0.021 A 
ATOM     18  C   UNL d   1      59.203  -1.774  29.935  0.00  0.00     0.002 A 
ATOM     19  C   UNL d   1      59.569  -2.290  29.403  0.00  0.00     0.000 A 
ATOM     20  C   UNL d   1      59.230  -2.426  28.663  0.00  0.00     0.000 A 
ATOM     21  C   UNL d   1      58.526  -2.046  28.455  0.00  0.00     0.000 A 
ATOM     22  C   UNL d   1      58.162  -1.531  28.988  0.00  0.00     0.002 A 
ENDBRANCH   4  17
TORSDOF 2
ENDMDL
MODEL 2
REMARK VINA RESULT:      -3.1      0.789      2.093
REMARK  2 active torsions:
REMARK  status: ('A' for Active; 'I' for Inactive)
REMARK    1  A    between atoms: N_5  and  C_1 
REMARK    2  A    between atoms: C_8  and  C_4 
ROOT
ATOM      1  C   UNL d   1      58.127  -0.938  30.256  0.00  0.00     0.166 A 
ATOM      2  N   UNL d   1      57.563  -1.182  30.782  0.00  0.00    -0.225 NA
ATOM      3  N   UNL d   1      57.976   0.378  30.781  0.00  0.00    -0.241 NA
ATOM      4  C   UNL d   1      58.337  -0.144  30.255  0.00  0.00     0.116 A 
ATOM      5  C   UNL d   1      57.192  -0.690  31.309  0.00  0.00     0.101 A 
ATOM      6  C   UNL d   1      57.403   0.104  31.309  0.00  0.00     0.099 A 
ATOM      7  C   UNL d   1      56.628  -0.934  31.836  0.00  0.00     0.021 A 
ATOM      8  C   UNL d   1      57.041   0.626  31.836  0.00  0.00     0.021 A 
ATOM      9  C   UNL d   1      56.488   0.347  32.341  0.00  0.00     0.002 A 
ATOM     10  C   UNL d   1      56.277  -0.448  32.342  0.00  0.00     0.002 A 
ENDROOT
BRANCH   1  11
ATOM     11  N   UNL d   1      58.495  -1.429  29.730  0.00  0.00    -0.284 N 
ATOM     12  C   UNL d   1      59.183  -1.819  29.979  0.00  0.00     0.108 A 
ATOM     13  C   UNL d   1      59.571  -2.330  29.439  0.00  0.00     0.142 A 
ATOM     14  O   UNL d   1      59.264  -2.432  28.685  0.00  0.00    -0.300 OA
ATOM     15  C   UNL d   1      58.584  -2.040  28.455  0.00  0.00     0.142 A 
ATOM     16  C   UNL d   1      58.182  -1.530  28.967  0.00  0.00     0.108 A 
ENDBRANCH   1  11
BRANCH   4  17
ATOM     17  C   UNL d   1      58.908   0.131  29.730  0.00  0.00     0.021 A 
ATOM     18  C   UNL d   1      58.686   0.404  28.983  0.00  0.00     0.002 A 
ATOM     19  C   UNL d   1      59.258   0.680  28.455  0.00  0.00     0.000 A 
ATOM     20  C   UNL d   1      60.053   0.682  28.674  0.00  0.00     0.000 A 
ATOM     21  C   UNL d   1      60.277   0.408  29.421  0.00  0.00     0.000 A 
ATOM     22  C   UNL d   1      59.704   0.133  29.949  0.00  0.00     0.002 A 
ENDBRANCH   4  17
TORSDOF 2
ENDMDL
MODEL 3
REMARK VINA RESULT:      -3.0      1.620      3.585
REMARK  2 active torsions:
REMARK  status: ('A' for Active; 'I' for Inactive)
REMARK    1  A    between atoms: N_5  and  C_1 
REMARK    2  A    between atoms: C_8  and  C_4 
ROOT
ATOM      1  C   UNL d   1      59.017  -1.471  28.971  0.00  0.00     0.166 A 
ATOM      2  N   UNL d   1      58.620  -2.164  28.842  0.00  0.00    -0.225 NA
ATOM      3  N   UNL d   1      60.233  -2.204  28.842  0.00  0.00    -0.241 NA
ATOM      4  C   UNL d   1      59.839  -1.491  28.970  0.00  0.00     0.116 A 
ATOM      5  C   UNL d   1      58.982  -2.877  28.713  0.00  0.00     0.101 A 
ATOM      6  C   UNL d   1      59.804  -2.898  28.713  0.00  0.00     0.099 A 
ATOM      7  C   UNL d   1      58.585  -3.571  28.584  0.00  0.00     0.021 A 
ATOM      8  C   UNL d   1      60.198  -3.611  28.584  0.00  0.00     0.021 A 
ATOM      9  C   UNL d   1      59.770  -4.275  28.460  0.00  0.00     0.002 A 
ATOM     10  C   UNL d   1      58.948  -4.255  28.461  0.00  0.00     0.002 A 
ENDROOT
BRANCH   1  11
ATOM     11  N   UNL d   1      58.654  -0.761  29.099  0.00  0.00    -0.284 N 
ATOM     12  C   UNL d   1      58.453  -0.563  29.878  0.00  0.00     0.108 A 
ATOM     13  C   UNL d   1      58.076   0.174  30.019  0.00  0.00     0.142 A 
ATOM     14  O   UNL d   1      57.917   0.675  29.389  0.00  0.00    -0.300 OA
ATOM     15  C   UNL d   1      58.123   0.464  28.627  0.00  0.00     0.142 A 
ATOM     16  C   UNL d   1      58.495  -0.255  28.459  0.00  0.00     0.108 A 
ENDBRANCH   1  11
BRANCH   4  17
ATOM     17  C   UNL d   1      60.268  -0.800  29.099  0.00  0.00     0.021 A 
ATOM     18  C   UNL d   1      60.470  -0.316  28.462  0.00  0.00     0.002 A 
ATOM     19  C   UNL d   1      60.901   0.378  28.589  0.00  0.00     0.000 A 
ATOM     20  C   UNL d   1      61.129   0.586  29.354  0.00  0.00     0.000 A 
ATOM     21  C   UNL d   1      60.926   0.101  29.992  0.00  0.00     0.000 A 
ATOM     22  C   UNL d   1      60.496  -0.592  29.864  0.00  0.00     0.002 A 
ENDBRANCH   4  17
TORSDOF 2
ENDMDL
