MODEL 1
REMARK VINA RESULT:      34.8      0.000      0.000
REMARK  3 active torsions:
REMARK  status: ('A' for Active; 'I' for Inactive)
REMARK    1  A    between atoms: S_15  and  C_3 
REMARK    2  A    between atoms: C_5  and  C_14 
REMARK    3  A    between atoms: C_14  and  S_15 
ROOT
ATOM      1  N   UNL d   1     -58.090 -98.760 -44.380  0.00  0.00    -0.263 N 
ATOM      2  C   UNL d   1     -58.713 -98.758 -43.822  0.00  0.00     0.202 A 
ATOM      3  C   UNL d   1     -57.389 -98.763 -43.944  0.00  0.00     0.202 A 
ATOM      4  N   UNL d   1     -58.349 -98.758 -43.068  0.00  0.00    -0.121 NA
ATOM      5  S   UNL d   1     -59.446 -98.755 -44.226  0.00  0.00    -0.047 SA
ATOM      6  N   UNL d   1     -57.574 -98.761 -43.128  0.00  0.00    -0.121 NA
ATOM      7  C   UNL d   1     -58.446 -98.760 -45.119  0.00  0.00     0.074 A 
ATOM      8  C   UNL d   1     -59.273 -98.757 -45.025  0.00  0.00     0.049 A 
ATOM      9  C   UNL d   1     -58.124 -98.762 -45.880  0.00  0.00     0.018 A 
ATOM     10  C   UNL d   1     -59.757 -98.755 -45.694  0.00  0.00     0.008 A 
ATOM     11  C   UNL d   1     -58.609 -98.760 -46.555  0.00  0.00     0.002 A 
ATOM     12  C   UNL d   1     -59.436 -98.757 -46.461  0.00  0.00     0.001 A 
ENDROOT
BRANCH   3  13
ATOM     13  S   UNL d   1     -56.566 -98.766 -44.273  0.00  0.00    -0.048 SA
BRANCH  13  14
ATOM     14  C   UNL d   1     -55.987 -99.217 -43.917  0.00  0.00     0.042 C 
BRANCH  14  15
ATOM     15  C   UNL d   1     -55.519 -99.694 -44.383  0.00  0.00     0.051 A 
ATOM     16  C   UNL d   1     -55.083 -99.564 -45.072  0.00  0.00     0.127 A 
ATOM     17  O   UNL d   1     -54.720-100.253 -45.293  0.00  0.00    -0.211 OA
ATOM     18  C   UNL d   1     -55.025 -98.799 -45.494  0.00  0.00     0.029 C 
ATOM     19  N   UNL d   1     -54.911-100.805 -44.771  0.00  0.00    -0.126 NA
ATOM     20  C   UNL d   1     -55.409-100.483 -44.193  0.00  0.00     0.111 A 
ATOM     21  C   UNL d   1     -55.739-100.868 -43.544  0.00  0.00     0.023 C 
ENDBRANCH  14  15
ENDBRANCH  13  14
ENDBRANCH   3  13
TORSDOF 3
ENDMDL
