MODEL 1
REMARK VINA RESULT:      -1.7      0.000      0.000
REMARK  3 active torsions:
REMARK  status: ('A' for Active; 'I' for Inactive)
REMARK    1  A    between atoms: C_9  and  C_3 
REMARK    2  A    between atoms: N_10  and  C_9 
REMARK    3  A    between atoms: C_11  and  C_9 
ROOT
ATOM      1  C   UNL d   1      59.199  -0.863  29.601  0.00  0.00     0.075 C 
ENDROOT
BRANCH   1   2
ATOM      2  C   UNL d   1      58.627  -0.560  30.111  0.00  0.00     0.106 A 
ATOM      3  C   UNL d   1      57.978  -0.086  29.894  0.00  0.00     0.289 A 
ATOM      4  N   UNL d   1      57.551   0.091  30.574  0.00  0.00    -0.169 N 
ATOM      5  O   UNL d   1      57.798   0.162  29.126  0.00  0.00    -0.265 OA
ATOM      6  C   UNL d   1      57.930  -0.270  31.211  0.00  0.00     0.200 A 
ATOM      7  N   UNL d   1      56.895   0.487  30.863  0.00  0.00    -0.141 NA
ATOM      8  S   UNL d   1      58.590  -0.670  30.930  0.00  0.00    -0.042 SA
ATOM      9  N   UNL d   1      57.503  -0.093  31.893  0.00  0.00    -0.200 NA
ATOM     10  C   UNL d   1      56.862   0.375  31.677  0.00  0.00     0.184 A 
ATOM     11  C   UNL d   1      56.285   0.682  32.182  0.00  0.00     0.044 C 
ENDBRANCH   1   2
BRANCH   1  12
ATOM     12  N   UNL d   1      59.835  -0.390  29.383  0.00  0.00    -0.300 N 
ATOM     13  C   UNL d   1      60.492  -0.337  29.865  0.00  0.00     0.107 A 
ATOM     14  C   UNL d   1      61.131   0.143  29.637  0.00  0.00     0.142 A 
ATOM     15  O   UNL d   1      61.105   0.566  28.929  0.00  0.00    -0.300 OA
ATOM     16  C   UNL d   1      60.433   0.501  28.455  0.00  0.00     0.142 A 
ATOM     17  C   UNL d   1      59.797   0.026  28.677  0.00  0.00     0.107 A 
ENDBRANCH   1  12
BRANCH   1  18
ATOM     18  C   UNL d   1      59.132  -1.628  29.317  0.00  0.00     0.017 A 
ATOM     19  C   UNL d   1      58.530  -1.816  28.784  0.00  0.00     0.002 A 
ATOM     20  C   UNL d   1      58.460  -2.591  28.494  0.00  0.00     0.000 A 
ATOM     21  C   UNL d   1      58.987  -3.157  28.740  0.00  0.00     0.000 A 
ATOM     22  C   UNL d   1      59.588  -2.959  29.276  0.00  0.00     0.000 A 
ATOM     23  C   UNL d   1      58.928  -3.945  28.456  0.00  0.00     0.000 C 
ATOM     24  C   UNL d   1      59.655  -2.204  29.557  0.00  0.00     0.002 A 
ENDBRANCH   1  18
TORSDOF 3
ENDMDL
