MODEL 1
REMARK VINA RESULT:      17.0      0.000      0.000
REMARK  3 active torsions:
REMARK  status: ('A' for Active; 'I' for Inactive)
REMARK    1  A    between atoms: S_3  and  N_1 
REMARK    2  A    between atoms: C_7  and  C_4 
REMARK    3  A    between atoms: C_11  and  C_5 
ROOT
ATOM      1  N   UNL d   1      46.032 -18.511  44.003  0.00  0.00    -0.155 N 
ATOM      2  N   UNL d   1      45.864 -17.822  44.464  0.00  0.00    -0.156 NA
ATOM      3  C   UNL d   1      46.164 -18.225  43.234  0.00  0.00     0.102 A 
ATOM      4  C   UNL d   1      45.896 -17.162  43.982  0.00  0.00     0.104 A 
ATOM      5  C   UNL d   1      46.086 -17.428  43.212  0.00  0.00     0.041 A 
ENDROOT
BRANCH   4   6
ATOM      6  C   UNL d   1      45.767 -16.404  44.223  0.00  0.00     0.019 A 
ATOM      7  C   UNL d   1      46.340 -15.821  44.072  0.00  0.00     0.002 A 
ATOM      8  C   UNL d   1      46.229 -15.041  44.308  0.00  0.00     0.007 A 
ATOM      9  C   UNL d   1      45.529 -14.818  44.709  0.00  0.00     0.035 A 
ATOM     10  C   UNL d   1      44.955 -15.403  44.860  0.00  0.00     0.007 A 
ATOM     11 BR   UNL d   1      45.418 -14.042  44.945  0.00  0.00    -0.049 Br
ATOM     12  C   UNL d   1      45.067 -16.185  44.623  0.00  0.00     0.002 A 
ENDBRANCH   4   6
BRANCH   1  13
ATOM     13  S   UNL d   1      46.057 -19.272  44.261  0.00  0.00     0.266 S 
ATOM     14  O   UNL d   1      46.092 -20.063  44.538  0.00  0.00    -0.203 OA
ATOM     15  O   UNL d   1      45.489 -19.475  43.726  0.00  0.00    -0.203 OA
ATOM     16  C   UNL d   1      46.647 -19.058  44.816  0.00  0.00     0.165 C 
ENDBRANCH   1  13
BRANCH   3  17
ATOM     17  C   UNL d   1      46.348 -18.704  42.590  0.00  0.00     0.048 A 
ATOM     18  S   UNL d   1      46.455 -18.471  41.810  0.00  0.00    -0.085 SA
ATOM     19  C   UNL d   1      46.630 -19.116  41.357  0.00  0.00     0.035 A 
ATOM     20  C   UNL d   1      46.636 -19.772  41.846  0.00  0.00     0.007 A 
ATOM     21  C   UNL d   1      46.465 -19.528  42.600  0.00  0.00     0.009 A 
ENDBRANCH   3  17
TORSDOF 3
ENDMDL
