MODEL 1
REMARK VINA RESULT:      -9.5      0.000      0.000
REMARK  5 active torsions:
REMARK  status: ('A' for Active; 'I' for Inactive)
REMARK    1  A    between atoms: N_6  and  S_1 
REMARK    2  A    between atoms: C_11  and  S_1 
REMARK    3  A    between atoms: C_2  and  N_5 
REMARK    4  A    between atoms: C_9  and  C_4 
REMARK       I    between atoms: N_5  and  C_7 
REMARK    5  A    between atoms: C_7  and  C_15 
ROOT
ATOM      1  C   UNL d   1      52.021  33.877  53.264  0.00  0.00     0.104 A 
ATOM      2  C   UNL d   1      50.611  34.246  52.486  0.00  0.00     0.058 A 
ATOM      3  C   UNL d   1      51.301  33.590  53.551  0.00  0.00     0.013 A 
ATOM      4  C   UNL d   1      52.033  34.362  52.567  0.00  0.00     0.013 A 
ATOM      5  C   UNL d   1      50.602  33.759  53.187  0.00  0.00     0.005 A 
ATOM      6  C   UNL d   1      51.325  34.533  52.197  0.00  0.00     0.005 A 
ENDROOT
BRANCH   2   7
ATOM      7  C   UNL d   1      49.887  34.438  52.085  0.00  0.00     0.281 C 
ATOM      8  N   UNL d   1      49.323  34.912  52.457  0.00  0.00    -0.183 NA
ATOM      9  O   UNL d   1      49.732  34.156  51.320  0.00  0.00    -0.265 OA
BRANCH   8  10
ATOM     10  C   UNL d   1      48.620  35.094  52.059  0.00  0.00     0.197 A 
ATOM     11  N   UNL d   1      47.994  35.509  52.456  0.00  0.00    -0.220 NA
ATOM     12  C   UNL d   1      47.383  35.606  51.928  0.00  0.00     0.096 A 
ATOM     13  C   UNL d   1      47.603  35.268  51.218  0.00  0.00     0.058 A 
ATOM     14  S   UNL d   1      48.365  34.950  51.291  0.00  0.00    -0.046 SA
BRANCH  12  15
ATOM     15  C   UNL d   1      46.671  35.962  52.037  0.00  0.00     0.048 A 
ATOM     16  S   UNL d   1      45.977  35.980  51.587  0.00  0.00    -0.085 SA
ATOM     17  C   UNL d   1      45.434  36.441  51.989  0.00  0.00     0.035 A 
ATOM     18  C   UNL d   1      45.758  36.708  52.665  0.00  0.00     0.007 A 
ATOM     19  C   UNL d   1      46.537  36.414  52.707  0.00  0.00     0.009 A 
ENDBRANCH  12  15
ENDBRANCH   8  10
ENDBRANCH   2   7
BRANCH   1  20
ATOM     20  S   UNL d   1      52.750  33.703  53.639  0.00  0.00     0.271 S 
ATOM     21  O   UNL d   1      52.741  32.920  53.284  0.00  0.00    -0.200 OA
ATOM     22  O   UNL d   1      52.768  34.458  53.988  0.00  0.00    -0.200 OA
BRANCH  20  23
ATOM     23  N   UNL d   1      53.488  33.510  54.012  0.00  0.00    -0.229 N 
ATOM     24  C   UNL d   1      54.026  33.007  53.633  0.00  0.00     0.092 A 
ATOM     25  C   UNL d   1      54.747  32.819  54.000  0.00  0.00     0.020 A 
ATOM     26  C   UNL d   1      54.914  33.141  54.741  0.00  0.00     0.003 A 
ATOM     27  C   UNL d   1      54.379  33.638  55.113  0.00  0.00     0.020 A 
ATOM     28  C   UNL d   1      53.680  33.825  54.768  0.00  0.00     0.092 A 
ENDBRANCH  20  23
ENDBRANCH   1  20
TORSDOF 5
ENDMDL
MODEL 2
REMARK VINA RESULT:      -8.6      1.186      6.452
REMARK  5 active torsions:
REMARK  status: ('A' for Active; 'I' for Inactive)
REMARK    1  A    between atoms: N_6  and  S_1 
REMARK    2  A    between atoms: C_11  and  S_1 
REMARK    3  A    between atoms: C_2  and  N_5 
REMARK    4  A    between atoms: C_9  and  C_4 
REMARK       I    between atoms: N_5  and  C_7 
REMARK    5  A    between atoms: C_7  and  C_15 
ROOT
ATOM      1  C   UNL d   1      48.554  35.124  52.167  0.00  0.00     0.104 A 
ATOM      2  C   UNL d   1      50.057  34.470  52.372  0.00  0.00     0.058 A 
ATOM      3  C   UNL d   1      48.919  34.717  51.546  0.00  0.00     0.013 A 
ATOM      4  C   UNL d   1      48.955  35.204  52.911  0.00  0.00     0.013 A 
ATOM      5  C   UNL d   1      49.651  34.391  51.626  0.00  0.00     0.005 A 
ATOM      6  C   UNL d   1      49.698  34.874  52.992  0.00  0.00     0.005 A 
ENDROOT
BRANCH   2   7
ATOM      7  C   UNL d   1      50.830  34.135  52.480  0.00  0.00     0.281 C 
ATOM      8  N   UNL d   1      50.995  33.689  53.156  0.00  0.00    -0.183 NA
ATOM      9  O   UNL d   1      51.430  34.246  51.917  0.00  0.00    -0.265 OA
BRANCH   8  10
ATOM     10  C   UNL d   1      51.752  33.366  53.253  0.00  0.00     0.197 A 
ATOM     11  N   UNL d   1      52.278  33.671  53.846  0.00  0.00    -0.220 NA
ATOM     12  C   UNL d   1      52.970  33.247  53.808  0.00  0.00     0.096 A 
ATOM     13  C   UNL d   1      52.897  32.690  53.216  0.00  0.00     0.058 A 
ATOM     14  S   UNL d   1      52.148  32.757  52.869  0.00  0.00    -0.046 SA
BRANCH  12  15
ATOM     15  C   UNL d   1      53.636  33.324  54.252  0.00  0.00     0.048 A 
ATOM     16  S   UNL d   1      54.377  32.958  54.221  0.00  0.00    -0.085 SA
ATOM     17  C   UNL d   1      54.832  33.269  54.824  0.00  0.00     0.035 A 
ATOM     18  C   UNL d   1      54.409  33.810  55.227  0.00  0.00     0.007 A 
ATOM     19  C   UNL d   1      53.654  33.854  54.876  0.00  0.00     0.009 A 
ENDBRANCH  12  15
ENDBRANCH   8  10
ENDBRANCH   2   7
BRANCH   1  20
ATOM     20  S   UNL d   1      47.792  35.465  52.088  0.00  0.00     0.271 S 
ATOM     21  O   UNL d   1      47.638  34.952  51.414  0.00  0.00    -0.200 OA
ATOM     22  O   UNL d   1      47.930  35.964  52.738  0.00  0.00    -0.200 OA
BRANCH  20  23
ATOM     23  N   UNL d   1      47.016  35.798  51.992  0.00  0.00    -0.229 N 
ATOM     24  C   UNL d   1      46.750  36.385  52.512  0.00  0.00     0.092 A 
ATOM     25  C   UNL d   1      45.991  36.708  52.416  0.00  0.00     0.020 A 
ATOM     26  C   UNL d   1      45.515  36.436  51.799  0.00  0.00     0.003 A 
ATOM     27  C   UNL d   1      45.783  35.856  51.287  0.00  0.00     0.020 A 
ATOM     28  C   UNL d   1      46.514  35.537  51.371  0.00  0.00     0.092 A 
ENDBRANCH  20  23
ENDBRANCH   1  20
TORSDOF 5
ENDMDL
