MODEL 1
REMARK VINA RESULT:      -1.2      0.000      0.000
REMARK  3 active torsions:
REMARK  status: ('A' for Active; 'I' for Inactive)
REMARK    1  A    between atoms: C_7  and  N_1 
REMARK    2  A    between atoms: C_10  and  C_3 
REMARK    3  A    between atoms: C_8  and  C_7 
ROOT
ATOM      1  N   UNL d   1      59.504  -1.777  28.863  0.00  0.00    -0.289 N 
ATOM      2  N   UNL d   1      60.848  -2.261  28.960  0.00  0.00    -0.217 NA
ATOM      3  C   UNL d   1      60.312  -1.638  28.970  0.00  0.00     0.149 A 
ATOM      4  C   UNL d   1      59.769  -3.185  28.734  0.00  0.00     0.044 A 
ATOM      5  C   UNL d   1      60.585  -3.034  28.843  0.00  0.00     0.139 A 
ATOM      6  C   UNL d   1      59.233  -2.562  28.744  0.00  0.00     0.068 A 
ATOM      7  S   UNL d   1      61.117  -3.673  28.831  0.00  0.00    -0.057 SA
ATOM      8  C   UNL d   1      59.499  -3.964  28.616  0.00  0.00     0.004 A 
ATOM      9  C   UNL d   1      58.422  -2.698  28.637  0.00  0.00     0.018 A 
ATOM     10  C   UNL d   1      58.685  -4.097  28.509  0.00  0.00     0.000 A 
ATOM     11  C   UNL d   1      58.149  -3.474  28.519  0.00  0.00     0.002 A 
ENDROOT
BRANCH   1  12
ATOM     12  C   UNL d   1      58.969  -1.154  28.873  0.00  0.00     0.106 C 
BRANCH  12  13
ATOM     13  C   UNL d   1      58.472  -1.042  29.523  0.00  0.00     0.118 A 
ATOM     14  O   UNL d   1      58.516  -1.443  30.228  0.00  0.00    -0.304 OA
ATOM     15  C   UNL d   1      57.922  -1.162  30.717  0.00  0.00     0.123 A 
ATOM     16  C   UNL d   1      57.507  -0.578  30.304  0.00  0.00     0.029 A 
ATOM     17  C   UNL d   1      57.850  -0.503  29.558  0.00  0.00     0.028 A 
ENDBRANCH  12  13
ENDBRANCH   1  12
BRANCH   3  18
ATOM     18  C   UNL d   1      60.573  -0.861  29.087  0.00  0.00     0.035 A 
ATOM     19  C   UNL d   1      60.540  -0.313  28.475  0.00  0.00     0.003 A 
ATOM     20  C   UNL d   1      60.804   0.454  28.608  0.00  0.00     0.000 A 
ATOM     21  C   UNL d   1      61.097   0.682  29.336  0.00  0.00     0.000 A 
ATOM     22  C   UNL d   1      61.131   0.125  29.958  0.00  0.00     0.000 A 
ATOM     23  C   UNL d   1      60.867  -0.645  29.829  0.00  0.00     0.003 A 
ENDBRANCH   3  18
TORSDOF 3
ENDMDL
MODEL 2
REMARK VINA RESULT:      -0.5      1.251      2.859
REMARK  3 active torsions:
REMARK  status: ('A' for Active; 'I' for Inactive)
REMARK    1  A    between atoms: C_7  and  N_1 
REMARK    2  A    between atoms: C_10  and  C_3 
REMARK    3  A    between atoms: C_8  and  C_7 
ROOT
ATOM      1  N   UNL d   1      59.169  -0.843  29.570  0.00  0.00    -0.289 N 
ATOM      2  N   UNL d   1      58.168  -1.838  29.811  0.00  0.00    -0.217 NA
ATOM      3  C   UNL d   1      58.432  -1.062  29.874  0.00  0.00     0.149 A 
ATOM      4  C   UNL d   1      59.384  -2.197  29.131  0.00  0.00     0.044 A 
ATOM      5  C   UNL d   1      58.636  -2.408  29.443  0.00  0.00     0.139 A 
ATOM      6  C   UNL d   1      59.648  -1.421  29.195  0.00  0.00     0.068 A 
ATOM      7  S   UNL d   1      58.381  -3.196  29.372  0.00  0.00    -0.057 SA
ATOM      8  C   UNL d   1      59.860  -2.769  28.759  0.00  0.00     0.004 A 
ATOM      9  C   UNL d   1      60.387  -1.197  28.891  0.00  0.00     0.018 A 
ATOM     10  C   UNL d   1      60.601  -2.542  28.455  0.00  0.00     0.000 A 
ATOM     11  C   UNL d   1      60.865  -1.766  28.518  0.00  0.00     0.002 A 
ENDROOT
BRANCH   1  12
ATOM     12  C   UNL d   1      59.433  -0.067  29.633  0.00  0.00     0.106 C 
BRANCH  12  13
ATOM     13  C   UNL d   1      60.045   0.123  30.154  0.00  0.00     0.118 A 
ATOM     14  O   UNL d   1      60.153  -0.191  30.894  0.00  0.00    -0.304 OA
ATOM     15  C   UNL d   1      60.824   0.148  31.219  0.00  0.00     0.123 A 
ATOM     16  C   UNL d   1      61.133   0.680  30.666  0.00  0.00     0.029 A 
ATOM     17  C   UNL d   1      60.647   0.664  30.000  0.00  0.00     0.028 A 
ENDBRANCH  12  13
ENDBRANCH   1  12
BRANCH   3  18
ATOM     18  C   UNL d   1      57.964  -0.488  30.243  0.00  0.00     0.035 A 
ATOM     19  C   UNL d   1      57.853  -0.500  31.058  0.00  0.00     0.003 A 
ATOM     20  C   UNL d   1      57.385   0.078  31.409  0.00  0.00     0.000 A 
ATOM     21  C   UNL d   1      57.029   0.664  30.963  0.00  0.00     0.000 A 
ATOM     22  C   UNL d   1      57.142   0.676  30.135  0.00  0.00     0.000 A 
ATOM     23  C   UNL d   1      57.610   0.099  29.780  0.00  0.00     0.003 A 
ENDBRANCH   3  18
TORSDOF 3
ENDMDL
