MODEL 1
REMARK VINA RESULT:      -8.9      0.000      0.000
REMARK  1 active torsions:
REMARK  status: ('A' for Active; 'I' for Inactive)
REMARK    1  A    between atoms: C_4  and  N_1 
ROOT
ATOM      1  N   UNL d   1      53.423  32.115  53.615  0.00  0.00    -0.240 N 
ATOM      2  C   UNL d   1      53.468  31.297  53.492  0.00  0.00     0.267 A 
ATOM      3  C   UNL d   1      52.777  32.398  53.175  0.00  0.00     0.267 A 
ATOM      4  C   UNL d   1      52.433  31.758  52.789  0.00  0.00     0.066 A 
ATOM      5  C   UNL d   1      52.856  31.076  52.982  0.00  0.00     0.066 A 
ATOM      6  O   UNL d   1      54.033  30.788  53.826  0.00  0.00    -0.267 OA
ATOM      7  O   UNL d   1      52.534  33.185  53.141  0.00  0.00    -0.267 OA
ENDROOT
BRANCH   1   8
ATOM      8  C   UNL d   1      53.927  32.567  54.086  0.00  0.00     0.097 A 
ATOM      9  C   UNL d   1      54.596  32.915  53.753  0.00  0.00     0.156 A 
ATOM     10  F   UNL d   1      54.759  32.811  52.949  0.00  0.00    -0.203 F 
ATOM     11  C   UNL d   1      55.102  33.368  54.221  0.00  0.00     0.031 A 
ATOM     12  C   UNL d   1      54.931  33.467  55.023  0.00  0.00     0.002 A 
ATOM     13  C   UNL d   1      54.261  33.117  55.354  0.00  0.00     0.002 A 
ATOM     14  C   UNL d   1      53.759  32.665  54.879  0.00  0.00     0.020 A 
ENDBRANCH   1   8
TORSDOF 1
ENDMDL
MODEL 2
REMARK VINA RESULT:      -8.5      1.759      2.947
REMARK  1 active torsions:
REMARK  status: ('A' for Active; 'I' for Inactive)
REMARK    1  A    between atoms: C_4  and  N_1 
ROOT
ATOM      1  N   UNL d   1      53.439  33.679  54.097  0.00  0.00    -0.240 N 
ATOM      2  C   UNL d   1      53.676  34.046  54.801  0.00  0.00     0.267 A 
ATOM      3  C   UNL d   1      54.033  33.139  53.885  0.00  0.00     0.267 A 
ATOM      4  C   UNL d   1      54.626  33.177  54.454  0.00  0.00     0.066 A 
ATOM      5  C   UNL d   1      54.410  33.736  55.022  0.00  0.00     0.066 A 
ATOM      6  O   UNL d   1      53.248  34.626  55.213  0.00  0.00    -0.267 OA
ATOM      7  O   UNL d   1      54.019  32.656  53.217  0.00  0.00    -0.267 OA
ENDROOT
BRANCH   1   8
ATOM      8  C   UNL d   1      52.740  33.824  53.682  0.00  0.00     0.097 A 
ATOM      9  C   UNL d   1      52.699  34.460  53.161  0.00  0.00     0.156 A 
ATOM     10  F   UNL d   1      53.356  34.951  53.055  0.00  0.00    -0.203 F 
ATOM     11  C   UNL d   1      52.002  34.608  52.744  0.00  0.00     0.031 A 
ATOM     12  C   UNL d   1      51.351  34.112  52.856  0.00  0.00     0.002 A 
ATOM     13  C   UNL d   1      51.396  33.475  53.380  0.00  0.00     0.002 A 
ATOM     14  C   UNL d   1      52.096  33.334  53.793  0.00  0.00     0.020 A 
ENDBRANCH   1   8
TORSDOF 1
ENDMDL
MODEL 3
REMARK VINA RESULT:      -8.3      1.164      2.622
REMARK  1 active torsions:
REMARK  status: ('A' for Active; 'I' for Inactive)
REMARK    1  A    between atoms: C_4  and  N_1 
ROOT
ATOM      1  N   UNL d   1      54.199  32.574  54.135  0.00  0.00    -0.240 N 
ATOM      2  C   UNL d   1      54.128  32.817  54.924  0.00  0.00     0.267 A 
ATOM      3  C   UNL d   1      54.840  32.985  53.805  0.00  0.00     0.267 A 
ATOM      4  C   UNL d   1      55.157  33.473  54.387  0.00  0.00     0.066 A 
ATOM      5  C   UNL d   1      54.720  33.372  55.080  0.00  0.00     0.066 A 
ATOM      6  O   UNL d   1      53.558  32.546  55.464  0.00  0.00    -0.267 OA
ATOM      7  O   UNL d   1      55.104  32.909  53.028  0.00  0.00    -0.267 OA
ENDROOT
BRANCH   1   8
ATOM      8  C   UNL d   1      53.720  32.025  53.748  0.00  0.00     0.097 A 
ATOM      9  C   UNL d   1      53.070  32.284  53.313  0.00  0.00     0.156 A 
ATOM     10  F   UNL d   1      52.899  33.093  53.267  0.00  0.00    -0.203 F 
ATOM     11  C   UNL d   1      52.588  31.739  52.924  0.00  0.00     0.031 A 
ATOM     12  C   UNL d   1      52.766  30.934  52.976  0.00  0.00     0.002 A 
ATOM     13  C   UNL d   1      53.419  30.677  53.412  0.00  0.00     0.002 A 
ATOM     14  C   UNL d   1      53.895  31.229  53.798  0.00  0.00     0.020 A 
ENDBRANCH   1   8
TORSDOF 1
ENDMDL
MODEL 4
REMARK VINA RESULT:      -8.3      1.351      1.751
REMARK  1 active torsions:
REMARK  status: ('A' for Active; 'I' for Inactive)
REMARK    1  A    between atoms: C_4  and  N_1 
ROOT
ATOM      1  N   UNL d   1      52.694  33.685  53.479  0.00  0.00    -0.240 N 
ATOM      2  C   UNL d   1      52.100  33.172  53.213  0.00  0.00     0.267 A 
ATOM      3  C   UNL d   1      52.503  34.447  53.209  0.00  0.00     0.267 A 
ATOM      4  C   UNL d   1      51.801  34.397  52.783  0.00  0.00     0.066 A 
ATOM      5  C   UNL d   1      51.548  33.612  52.783  0.00  0.00     0.066 A 
ATOM      6  O   UNL d   1      52.068  32.354  53.356  0.00  0.00    -0.267 OA
ATOM      7  O   UNL d   1      52.948  35.126  53.350  0.00  0.00    -0.267 OA
ENDROOT
BRANCH   1   8
ATOM      8  C   UNL d   1      53.353  33.478  53.930  0.00  0.00     0.097 A 
ATOM      9  C   UNL d   1      54.022  33.173  53.559  0.00  0.00     0.156 A 
ATOM     10  F   UNL d   1      54.031  33.075  52.737  0.00  0.00    -0.203 F 
ATOM     11  C   UNL d   1      54.684  32.964  54.005  0.00  0.00     0.031 A 
ATOM     12  C   UNL d   1      54.666  33.066  54.825  0.00  0.00     0.002 A 
ATOM     13  C   UNL d   1      53.994  33.372  55.194  0.00  0.00     0.002 A 
ATOM     14  C   UNL d   1      53.336  33.578  54.740  0.00  0.00     0.020 A 
ENDBRANCH   1   8
TORSDOF 1
ENDMDL
