MODEL 1
REMARK VINA RESULT:     128.5      0.000      0.000
REMARK  4 active torsions:
REMARK  status: ('A' for Active; 'I' for Inactive)
REMARK    1  A    between atoms: N_14  and  C_2 
REMARK       I    between atoms: C_9  and  N_11 
REMARK    2  A    between atoms: C_13  and  C_9 
REMARK    3  A    between atoms: C_10  and  C_17 
REMARK       I    between atoms: N_12  and  C_10 
REMARK    4  A    between atoms: C_30  and  N_14 
ROOT
ATOM      1  C   UNL d   1      61.337  47.108  50.141  0.00  0.00     0.057 A 
ATOM      2  C   UNL d   1      60.875  47.021  50.834  0.00  0.00     0.006 A 
ATOM      3  C   UNL d   1      61.395  47.844  49.773  0.00  0.00     0.006 A 
ATOM      4  C   UNL d   1      60.541  48.414  50.773  0.00  0.00     0.084 A 
ATOM      5  C   UNL d   1      60.484  47.678  51.140  0.00  0.00     0.019 A 
ATOM      6  C   UNL d   1      60.998  48.500  50.087  0.00  0.00     0.019 A 
ENDROOT
BRANCH   1   7
ATOM      7  C   UNL d   1      61.746  46.463  49.806  0.00  0.00     0.265 C 
ATOM      8  N   UNL d   1      61.726  45.718  50.169  0.00  0.00    -0.270 N 
ATOM      9  C   UNL d   1      61.635  44.933  50.659  0.00  0.00     0.096 A 
ATOM     10  C   UNL d   1      61.875  44.918  50.298  0.00  0.00     0.096 A 
ATOM     11  C   UNL d   1      62.065  44.357  50.260  0.00  0.00     0.077 A 
ATOM     12  N   UNL d   1      62.323  43.574  50.217  0.00  0.00    -0.171 NA
ATOM     13  C   UNL d   1      62.741  42.960  49.854  0.00  0.00     0.267 C 
ATOM     14  C   UNL d   1      62.299  44.340  49.911  0.00  0.00     0.077 A 
ATOM     15  O   UNL d   1      63.154  43.095  49.163  0.00  0.00    -0.271 OA
ATOM     16  O   UNL d   1      62.175  46.569  49.104  0.00  0.00    -0.267 OA
BRANCH  13  17
ATOM     17  C   UNL d   1      62.736  42.211  50.196  0.00  0.00     0.151 A 
ATOM     18  O   UNL d   1      62.368  42.003  50.892  0.00  0.00    -0.301 OA
ATOM     19  C   UNL d   1      62.500  41.206  51.032  0.00  0.00     0.123 A 
ATOM     20  C   UNL d   1      62.957  40.919  50.411  0.00  0.00     0.029 A 
ATOM     21  C   UNL d   1      63.104  41.536  49.895  0.00  0.00     0.031 A 
ENDBRANCH  13  17
ENDBRANCH   1   7
BRANCH   4  22
ATOM     22  N   UNL d   1      60.142  49.069  51.091  0.00  0.00    -0.221 NA
BRANCH  22  23
ATOM     23  C   UNL d   1      59.323  49.148  50.984  0.00  0.00     0.194 A 
ATOM     24  S   UNL d   1      58.925  48.963  50.305  0.00  0.00    -0.046 SA
ATOM     25  C   UNL d   1      58.112  49.123  50.432  0.00  0.00     0.062 A 
ATOM     26  C   UNL d   1      57.365  49.107  50.087  0.00  0.00     0.107 A 
ATOM     27  C   UNL d   1      58.029  49.408  51.199  0.00  0.00     0.102 A 
ATOM     28  S   UNL d   1      56.826  49.379  50.636  0.00  0.00     0.213 S 
ATOM     29  C   UNL d   1      57.228  49.567  51.324  0.00  0.00     0.118 A 
ATOM     30  O   UNL d   1      56.312  49.226  50.002  0.00  0.00    -0.217 OA
ATOM     31  O   UNL d   1      56.180  49.634  51.093  0.00  0.00    -0.217 OA
ATOM     32  N   UNL d   1      58.783  49.426  51.548  0.00  0.00    -0.220 NA
ENDBRANCH  22  23
ENDBRANCH   4  22
TORSDOF 4
ENDMDL
