MODEL 1
REMARK VINA RESULT:      15.5      0.000      0.000
REMARK  1 active torsions:
REMARK  status: ('A' for Active; 'I' for Inactive)
REMARK    1  A    between atoms: C_6  and  C_1 
ROOT
ATOM      1  C   UNL d   1     -57.230 -98.780 -44.468  0.00  0.00     0.163 A 
ATOM      2  N   UNL d   1     -57.762 -98.768 -45.098  0.00  0.00    -0.225 NA
ATOM      3  N   UNL d   1     -57.648 -98.785 -43.747  0.00  0.00    -0.225 NA
ATOM      4  C   UNL d   1     -58.535 -98.766 -44.785  0.00  0.00     0.101 A 
ATOM      5  C   UNL d   1     -58.463 -98.776 -43.939  0.00  0.00     0.101 A 
ATOM      6  C   UNL d   1     -59.272 -98.756 -45.113  0.00  0.00     0.021 A 
ATOM      7  C   UNL d   1     -59.134 -98.776 -43.480  0.00  0.00     0.021 A 
ATOM      8  C   UNL d   1     -59.942 -98.757 -44.630  0.00  0.00     0.002 A 
ATOM      9  C   UNL d   1     -59.875 -98.766 -43.843  0.00  0.00     0.002 A 
ENDROOT
BRANCH   1  10
ATOM     10  C   UNL d   1     -56.409 -98.785 -44.562  0.00  0.00     0.039 A 
ATOM     11  C   UNL d   1     -56.046 -98.757 -45.301  0.00  0.00     0.024 A 
ATOM     12  C   UNL d   1     -55.229 -98.763 -45.370  0.00  0.00     0.099 A 
ATOM     13  N   UNL d   1     -54.721 -98.797 -44.734  0.00  0.00    -0.242 NA
ATOM     14  C   UNL d   1     -55.082 -98.826 -43.964  0.00  0.00     0.099 A 
ATOM     15  C   UNL d   1     -55.928 -98.819 -43.893  0.00  0.00     0.024 A 
ENDBRANCH   1  10
TORSDOF 1
ENDMDL
