MODEL 1
REMARK VINA RESULT:      -9.3      0.000      0.000
REMARK  3 active torsions:
REMARK  status: ('A' for Active; 'I' for Inactive)
REMARK    1  A    between atoms: C_2  and  S_1 
REMARK    2  A    between atoms: N_3  and  S_1 
REMARK    3  A    between atoms: C_12  and  N_3 
ROOT
ATOM      1  S   UNL d   1     -47.824  13.988  22.602  0.00  0.00     0.285 S 
ATOM      2  O   UNL d   1     -47.555  14.460  23.121  0.00  0.00    -0.198 OA
ATOM      3  O   UNL d   1     -48.174  13.680  21.983  0.00  0.00    -0.198 OA
ENDROOT
BRANCH   1   4
ATOM      4  C   UNL d   1     -47.552  13.260  22.907  0.00  0.00     0.105 A 
ATOM      5  C   UNL d   1     -46.738  13.114  22.968  0.00  0.00     0.012 A 
ATOM      6  C   UNL d   1     -46.469  12.393  23.270  0.00  0.00     0.001 A 
ATOM      7  C   UNL d   1     -46.197  13.707  22.719  0.00  0.00     0.001 C 
ATOM      8  C   UNL d   1     -47.014  11.822  23.509  0.00  0.00     0.000 A 
ATOM      9  C   UNL d   1     -47.833  11.959  23.453  0.00  0.00     0.001 A 
ATOM     10  C   UNL d   1     -48.102  12.680  23.151  0.00  0.00     0.013 A 
ATOM     11  C   UNL d   1     -48.378  11.376  23.698  0.00  0.00     0.000 C 
ENDBRANCH   1   4
BRANCH   1  12
ATOM     12  N   UNL d   1     -48.036  14.670  22.386  0.00  0.00    -0.158 NA
BRANCH  12  13
ATOM     13  C   UNL d   1     -48.708  14.765  22.524  0.00  0.00     0.095 A 
ATOM     14  C   UNL d   1     -48.895  15.161  23.063  0.00  0.00     0.040 A 
ATOM     15  C   UNL d   1     -49.559  15.246  23.189  0.00  0.00     0.089 A 
ATOM     16  N   UNL d   1     -49.883  15.604  23.678  0.00  0.00    -0.236 NA
ATOM     17  C   UNL d   1     -50.039  14.953  22.801  0.00  0.00     0.049 A 
ATOM     18  C   UNL d   1     -50.565  15.525  23.582  0.00  0.00     0.135 A 
ATOM     19  S   UNL d   1     -50.652  15.126  23.045  0.00  0.00    -0.064 SA
ATOM     20  C   UNL d   1     -49.839  14.558  22.264  0.00  0.00     0.010 A 
ATOM     21  C   UNL d   1     -49.172  14.463  22.124  0.00  0.00     0.021 A 
ENDBRANCH  12  13
ENDBRANCH   1  12
TORSDOF 3
ENDMDL
MODEL 2
REMARK VINA RESULT:      -9.2      1.797      2.319
REMARK  3 active torsions:
REMARK  status: ('A' for Active; 'I' for Inactive)
REMARK    1  A    between atoms: C_2  and  S_1 
REMARK    2  A    between atoms: N_3  and  S_1 
REMARK    3  A    between atoms: C_12  and  N_3 
ROOT
ATOM      1  S   UNL d   1     -48.557  12.181  23.026  0.00  0.00     0.285 S 
ATOM      2  O   UNL d   1     -48.487  11.808  22.378  0.00  0.00    -0.198 OA
ATOM      3  O   UNL d   1     -48.825  12.491  23.684  0.00  0.00    -0.198 OA
ENDROOT
BRANCH   1   4
ATOM      4  C   UNL d   1     -47.787  12.497  23.099  0.00  0.00     0.105 A 
ATOM      5  C   UNL d   1     -47.182  12.041  23.435  0.00  0.00     0.012 A 
ATOM      6  C   UNL d   1     -46.420  12.354  23.508  0.00  0.00     0.001 A 
ATOM      7  C   UNL d   1     -47.356  11.261  23.698  0.00  0.00     0.001 C 
ATOM      8  C   UNL d   1     -46.268  13.120  23.245  0.00  0.00     0.000 A 
ATOM      9  C   UNL d   1     -46.868  13.587  22.906  0.00  0.00     0.001 A 
ATOM     10  C   UNL d   1     -47.630  13.274  22.833  0.00  0.00     0.013 A 
ATOM     11  C   UNL d   1     -46.706  14.362  22.642  0.00  0.00     0.000 C 
ENDBRANCH   1   4
BRANCH   1  12
ATOM     12  N   UNL d   1     -49.223  11.869  22.899  0.00  0.00    -0.158 NA
BRANCH  12  13
ATOM     13  C   UNL d   1     -49.693  12.360  22.764  0.00  0.00     0.095 A 
ATOM     14  C   UNL d   1     -49.875  12.489  22.107  0.00  0.00     0.040 A 
ATOM     15  C   UNL d   1     -50.339  12.974  21.988  0.00  0.00     0.089 A 
ATOM     16  N   UNL d   1     -50.609  13.204  21.399  0.00  0.00    -0.236 NA
ATOM     17  C   UNL d   1     -50.624  13.331  22.495  0.00  0.00     0.049 A 
ATOM     18  C   UNL d   1     -51.061  13.705  21.556  0.00  0.00     0.135 A 
ATOM     19  S   UNL d   1     -51.064  13.777  22.226  0.00  0.00    -0.064 SA
ATOM     20  C   UNL d   1     -50.433  13.193  23.150  0.00  0.00     0.010 A 
ATOM     21  C   UNL d   1     -49.966  12.705  23.286  0.00  0.00     0.021 A 
ENDBRANCH  12  13
ENDBRANCH   1  12
TORSDOF 3
ENDMDL
MODEL 3
REMARK VINA RESULT:      -8.6      1.391      3.616
REMARK  3 active torsions:
REMARK  status: ('A' for Active; 'I' for Inactive)
REMARK    1  A    between atoms: C_2  and  S_1 
REMARK    2  A    between atoms: N_3  and  S_1 
REMARK    3  A    between atoms: C_12  and  N_3 
ROOT
ATOM      1  S   UNL d   1     -49.206  13.330  21.940  0.00  0.00     0.285 S 
ATOM      2  O   UNL d   1     -48.856  13.702  21.389  0.00  0.00    -0.198 OA
ATOM      3  O   UNL d   1     -49.434  12.793  22.451  0.00  0.00    -0.198 OA
ENDROOT
BRANCH   1   4
ATOM      4  C   UNL d   1     -49.745  13.914  22.196  0.00  0.00     0.105 A 
ATOM      5  C   UNL d   1     -50.530  13.897  21.933  0.00  0.00     0.012 A 
ATOM      6  C   UNL d   1     -51.064  14.476  22.186  0.00  0.00     0.001 A 
ATOM      7  C   UNL d   1     -50.773  13.285  21.409  0.00  0.00     0.001 C 
ATOM      8  C   UNL d   1     -50.810  15.068  22.700  0.00  0.00     0.000 A 
ATOM      9  C   UNL d   1     -50.023  15.094  22.970  0.00  0.00     0.001 A 
ATOM     10  C   UNL d   1     -49.489  14.515  22.717  0.00  0.00     0.013 A 
ATOM     11  C   UNL d   1     -49.773  15.697  23.491  0.00  0.00     0.000 C 
ENDBRANCH   1   4
BRANCH   1  12
ATOM     12  N   UNL d   1     -48.701  12.855  21.664  0.00  0.00    -0.158 NA
BRANCH  12  13
ATOM     13  C   UNL d   1     -48.201  12.743  22.130  0.00  0.00     0.095 A 
ATOM     14  C   UNL d   1     -47.584  13.051  22.051  0.00  0.00     0.040 A 
ATOM     15  C   UNL d   1     -47.100  12.933  22.516  0.00  0.00     0.089 A 
ATOM     16  N   UNL d   1     -46.455  13.166  22.566  0.00  0.00    -0.236 NA
ATOM     17  C   UNL d   1     -47.209  12.522  23.052  0.00  0.00     0.049 A 
ATOM     18  C   UNL d   1     -46.174  12.891  23.137  0.00  0.00     0.135 A 
ATOM     19  S   UNL d   1     -46.640  12.500  23.427  0.00  0.00    -0.064 SA
ATOM     20  C   UNL d   1     -47.831  12.219  23.119  0.00  0.00     0.010 A 
ATOM     21  C   UNL d   1     -48.330  12.329  22.657  0.00  0.00     0.021 A 
ENDBRANCH  12  13
ENDBRANCH   1  12
TORSDOF 3
ENDMDL
