MODEL 1
REMARK VINA RESULT:      -3.0      0.000      0.000
REMARK  7 active torsions:
REMARK  status: ('A' for Active; 'I' for Inactive)
REMARK    1  A    between atoms: S_10  and  C_9 
REMARK    2  A    between atoms: C_15  and  S_10 
REMARK    3  A    between atoms: C_11  and  C_15 
REMARK       I    between atoms: N_16  and  C_11 
REMARK    4  A    between atoms: C_24  and  N_16 
REMARK    5  A    between atoms: C_21  and  C_24 
REMARK    6  A    between atoms: C_25  and  C_21 
REMARK    7  A    between atoms: O_23  and  C_25 
ROOT
ATOM      1  C   UNL d   1      33.171  21.411 -22.163  0.00  0.00     0.004 A 
ATOM      2  C   UNL d   1      33.138  21.175 -21.382  0.00  0.00     0.000 A 
ATOM      3  C   UNL d   1      33.170  22.213 -22.369  0.00  0.00     0.039 A 
ATOM      4  C   UNL d   1      33.137  22.795 -21.797  0.00  0.00     0.196 A 
ATOM      5  C   UNL d   1      33.104  21.761 -20.794  0.00  0.00     0.003 A 
ATOM      6  C   UNL d   1      33.103  22.585 -21.005  0.00  0.00     0.039 A 
ATOM      7  C   UNL d   1      33.206  20.825 -22.753  0.00  0.00     0.006 A 
ATOM      8  C   UNL d   1      33.139  20.374 -21.177  0.00  0.00     0.001 A 
ATOM      9  C   UNL d   1      33.206  20.023 -22.548  0.00  0.00     0.030 A 
ATOM     10  O   UNL d   1      33.136  23.601 -22.003  0.00  0.00    -0.287 OA
ATOM     11  C   UNL d   1      33.173  19.814 -21.755  0.00  0.00     0.006 A 
ATOM     12  C   UNL d   1      33.204  22.445 -23.167  0.00  0.00     0.003 A 
ATOM     13  C   UNL d   1      33.070  21.530 -19.997  0.00  0.00     0.000 A 
ATOM     14  C   UNL d   1      33.069  23.149 -20.411  0.00  0.00     0.003 A 
ATOM     15  C   UNL d   1      33.239  21.056 -23.550  0.00  0.00     0.001 A 
ATOM     16  C   UNL d   1      33.240  21.823 -23.780  0.00  0.00     0.000 A 
ATOM     17  C   UNL d   1      33.035  22.941 -19.613  0.00  0.00     0.000 A 
ATOM     18  C   UNL d   1      33.036  22.085 -19.394  0.00  0.00     0.000 A 
ENDROOT
BRANCH   9  19
ATOM     19  S   UNL d   1      33.241  19.427 -23.133  0.00  0.00    -0.081 SA
BRANCH  19  20
ATOM     20  C   UNL d   1      33.095  18.636 -22.929  0.00  0.00     0.098 C 
BRANCH  20  21
ATOM     21  C   UNL d   1      32.816  18.119 -23.466  0.00  0.00     0.286 C 
ATOM     22  O   UNL d   1      33.234  17.975 -24.157  0.00  0.00    -0.265 OA
ATOM     23  N   UNL d   1      32.109  17.723 -23.337  0.00  0.00    -0.206 NA
BRANCH  23  24
ATOM     24  C   UNL d   1      31.802  17.181 -23.884  0.00  0.00     0.104 C 
BRANCH  24  25
ATOM     25  C   UNL d   1      31.122  16.774 -23.699  0.00  0.00     0.047 C 
BRANCH  25  26
ATOM     26  C   UNL d   1      30.578  16.625 -24.293  0.00  0.00     0.118 C 
BRANCH  26  27
ATOM     27  O   UNL d   1      30.086  15.988 -24.257  0.00  0.00    -0.326 OA
ATOM     28  C   UNL d   1      29.271  16.081 -24.255  0.00  0.00     0.181 C 
ENDBRANCH  26  27
ENDBRANCH  25  26
ENDBRANCH  24  25
ENDBRANCH  23  24
ENDBRANCH  20  21
ENDBRANCH  19  20
ENDBRANCH   9  19
TORSDOF 7
ENDMDL
MODEL 2
REMARK VINA RESULT:      -1.6      1.260      2.220
REMARK  7 active torsions:
REMARK  status: ('A' for Active; 'I' for Inactive)
REMARK    1  A    between atoms: S_10  and  C_9 
REMARK    2  A    between atoms: C_15  and  S_10 
REMARK    3  A    between atoms: C_11  and  C_15 
REMARK       I    between atoms: N_16  and  C_11 
REMARK    4  A    between atoms: C_24  and  N_16 
REMARK    5  A    between atoms: C_21  and  C_24 
REMARK    6  A    between atoms: C_25  and  C_21 
REMARK    7  A    between atoms: O_23  and  C_25 
ROOT
ATOM      1  C   UNL d   1      33.231  20.516 -23.002  0.00  0.00     0.004 A 
ATOM      2  C   UNL d   1      33.231  21.070 -23.602  0.00  0.00     0.000 A 
ATOM      3  C   UNL d   1      33.234  20.747 -22.207  0.00  0.00     0.039 A 
ATOM      4  C   UNL d   1      33.237  21.536 -21.997  0.00  0.00     0.196 A 
ATOM      5  C   UNL d   1      33.234  21.875 -23.397  0.00  0.00     0.003 A 
ATOM      6  C   UNL d   1      33.237  22.112 -22.581  0.00  0.00     0.039 A 
ATOM      7  C   UNL d   1      33.228  19.710 -23.207  0.00  0.00     0.006 A 
ATOM      8  C   UNL d   1      33.228  20.839 -24.397  0.00  0.00     0.001 A 
ATOM      9  C   UNL d   1      33.226  19.479 -24.001  0.00  0.00     0.030 A 
ATOM     10  O   UNL d   1      33.239  21.768 -21.198  0.00  0.00    -0.287 OA
ATOM     11  C   UNL d   1      33.226  20.056 -24.585  0.00  0.00     0.006 A 
ATOM     12  C   UNL d   1      33.234  20.176 -21.602  0.00  0.00     0.003 A 
ATOM     13  C   UNL d   1      33.234  22.445 -24.002  0.00  0.00     0.000 A 
ATOM     14  C   UNL d   1      33.239  22.911 -22.396  0.00  0.00     0.003 A 
ATOM     15  C   UNL d   1      33.228  19.140 -22.602  0.00  0.00     0.001 A 
ATOM     16  C   UNL d   1      33.231  19.332 -21.825  0.00  0.00     0.000 A 
ATOM     17  C   UNL d   1      33.240  23.493 -22.982  0.00  0.00     0.000 A 
ATOM     18  C   UNL d   1      33.237  23.247 -23.830  0.00  0.00     0.000 A 
ENDROOT
BRANCH   9  19
ATOM     19  S   UNL d   1      33.223  18.671 -24.217  0.00  0.00    -0.081 SA
BRANCH  19  20
ATOM     20  C   UNL d   1      32.731  18.407 -24.831  0.00  0.00     0.098 C 
BRANCH  20  21
ATOM     21  C   UNL d   1      32.528  17.640 -24.893  0.00  0.00     0.286 C 
ATOM     22  O   UNL d   1      33.104  17.071 -25.030  0.00  0.00    -0.265 OA
ATOM     23  N   UNL d   1      31.745  17.407 -24.822  0.00  0.00    -0.206 NA
BRANCH  23  24
ATOM     24  C   UNL d   1      31.515  16.612 -24.884  0.00  0.00     0.104 C 
BRANCH  24  25
ATOM     25  C   UNL d   1      30.867  16.355 -24.465  0.00  0.00     0.047 C 
BRANCH  25  26
ATOM     26  C   UNL d   1      30.207  16.098 -24.878  0.00  0.00     0.118 C 
BRANCH  26  27
ATOM     27  O   UNL d   1      29.487  16.047 -24.522  0.00  0.00    -0.326 OA
ATOM     28  C   UNL d   1      29.333  15.474 -23.956  0.00  0.00     0.181 C 
ENDBRANCH  26  27
ENDBRANCH  25  26
ENDBRANCH  24  25
ENDBRANCH  23  24
ENDBRANCH  20  21
ENDBRANCH  19  20
ENDBRANCH   9  19
TORSDOF 7
ENDMDL
