MODEL 1
REMARK VINA RESULT:      -0.8      0.000      0.000
REMARK  6 active torsions:
REMARK  status: ('A' for Active; 'I' for Inactive)
REMARK    1  A    between atoms: N_3  and  S_1 
REMARK    2  A    between atoms: C_11  and  S_1 
REMARK    3  A    between atoms: C_2  and  N_3 
REMARK    4  A    between atoms: C_5  and  C_7 
REMARK       I    between atoms: C_7  and  N_12 
REMARK    5  A    between atoms: C_27  and  C_9 
REMARK    6  A    between atoms: N_12  and  C_20 
ROOT
ATOM      1  C   UNL d   1      57.303   0.076  31.941  0.00  0.00     0.105 A 
ATOM      2  C   UNL d   1      57.307   0.680  31.378  0.00  0.00     0.015 A 
ATOM      3  C   UNL d   1      57.416  -0.703  31.716  0.00  0.00     0.015 A 
ATOM      4  C   UNL d   1      57.541  -0.294  30.358  0.00  0.00     0.085 A 
ATOM      5  C   UNL d   1      57.428   0.486  30.582  0.00  0.00     0.020 A 
ATOM      6  C   UNL d   1      57.535  -0.889  30.927  0.00  0.00     0.020 A 
ENDROOT
BRANCH   1   7
ATOM      7  S   UNL d   1      57.182   0.267  32.749  0.00  0.00     0.287 S 
ATOM      8  O   UNL d   1      57.999   0.320  32.855  0.00  0.00    -0.198 OA
ATOM      9  O   UNL d   1      57.047   0.454  33.542  0.00  0.00    -0.198 OA
BRANCH   7  10
ATOM     10  N   UNL d   1      56.360   0.211  32.631  0.00  0.00    -0.130 NA
BRANCH  10  11
ATOM     11  C   UNL d   1      55.836   0.370  33.253  0.00  0.00     0.227 A 
ATOM     12  S   UNL d   1      55.036   0.394  33.185  0.00  0.00    -0.025 SA
ATOM     13  C   UNL d   1      54.718   0.573  33.951  0.00  0.00     0.135 A 
ATOM     14  N   UNL d   1      55.360   0.655  34.477  0.00  0.00    -0.139 NA
ATOM     15  N   UNL d   1      56.052   0.523  34.019  0.00  0.00    -0.120 NA
BRANCH  13  16
ATOM     16  C   UNL d   1      53.957   0.672  34.240  0.00  0.00     0.028 C 
ATOM     17  C   UNL d   1      53.839   0.681  35.065  0.00  0.00     0.002 C 
ENDBRANCH  13  16
ENDBRANCH  10  11
ENDBRANCH   7  10
ENDBRANCH   1   7
BRANCH   4  18
ATOM     18  N   UNL d   1      57.663  -0.496  29.553  0.00  0.00    -0.208 NA
ATOM     19  C   UNL d   1      58.435  -0.503  29.243  0.00  0.00     0.280 C 
ATOM     20  O   UNL d   1      58.566  -0.700  28.458  0.00  0.00    -0.265 OA
BRANCH  19  21
ATOM     21  C   UNL d   1      59.072  -0.310  29.733  0.00  0.00     0.069 A 
ATOM     22  C   UNL d   1      59.542  -0.903  30.052  0.00  0.00     0.063 A 
ATOM     23  C   UNL d   1      60.173  -0.712  30.537  0.00  0.00     0.023 A 
ATOM     24 CL   UNL d   1      59.386  -1.689  29.890  0.00  0.00    -0.082 Cl
ATOM     25  C   UNL d   1      60.353   0.078  30.718  0.00  0.00     0.059 A 
ATOM     26  C   UNL d   1      59.866   0.681  30.387  0.00  0.00     0.012 A 
ATOM     27 CL   UNL d   1      60.990   0.271  31.208  0.00  0.00    -0.082 Cl
ATOM     28  C   UNL d   1      59.235   0.489  29.902  0.00  0.00     0.006 A 
ENDBRANCH  19  21
ENDBRANCH   4  18
TORSDOF 6
ENDMDL
MODEL 2
REMARK VINA RESULT:       0.3      1.282      1.805
REMARK  6 active torsions:
REMARK  status: ('A' for Active; 'I' for Inactive)
REMARK    1  A    between atoms: N_3  and  S_1 
REMARK    2  A    between atoms: C_11  and  S_1 
REMARK    3  A    between atoms: C_2  and  N_3 
REMARK    4  A    between atoms: C_5  and  C_7 
REMARK       I    between atoms: C_7  and  N_12 
REMARK    5  A    between atoms: C_27  and  C_9 
REMARK    6  A    between atoms: N_12  and  C_20 
ROOT
ATOM      1  C   UNL d   1      57.626  -0.009  30.313  0.00  0.00     0.105 A 
ATOM      2  C   UNL d   1      57.858  -0.790  30.439  0.00  0.00     0.015 A 
ATOM      3  C   UNL d   1      57.940   0.424  29.693  0.00  0.00     0.015 A 
ATOM      4  C   UNL d   1      58.729  -0.698  29.309  0.00  0.00     0.085 A 
ATOM      5  C   UNL d   1      58.415  -1.131  29.929  0.00  0.00     0.020 A 
ATOM      6  C   UNL d   1      58.491   0.082  29.191  0.00  0.00     0.020 A 
ENDROOT
BRANCH   1   7
ATOM      7  S   UNL d   1      57.062   0.342  30.827  0.00  0.00     0.287 S 
ATOM      8  O   UNL d   1      56.624   0.588  30.172  0.00  0.00    -0.198 OA
ATOM      9  O   UNL d   1      56.516   0.682  31.345  0.00  0.00    -0.198 OA
BRANCH   7  10
ATOM     10  N   UNL d   1      57.512   0.089  31.480  0.00  0.00    -0.130 NA
BRANCH  10  11
ATOM     11  C   UNL d   1      57.180   0.081  32.239  0.00  0.00     0.227 A 
ATOM     12  S   UNL d   1      56.672  -0.477  32.514  0.00  0.00    -0.025 SA
ATOM     13  C   UNL d   1      56.471  -0.273  33.312  0.00  0.00     0.135 A 
ATOM     14  N   UNL d   1      56.880   0.429  33.502  0.00  0.00    -0.139 NA
ATOM     15  N   UNL d   1      57.319   0.635  32.816  0.00  0.00    -0.120 NA
BRANCH  13  16
ATOM     16  C   UNL d   1      55.989  -0.615  33.880  0.00  0.00     0.028 C 
ATOM     17  C   UNL d   1      55.354  -0.169  34.188  0.00  0.00     0.002 C 
ENDBRANCH  13  16
ENDBRANCH  10  11
ENDBRANCH   7  10
ENDBRANCH   1   7
BRANCH   4  18
ATOM     18  N   UNL d   1      59.293  -1.037  28.789  0.00  0.00    -0.208 NA
ATOM     19  C   UNL d   1      60.104  -0.962  28.956  0.00  0.00     0.280 C 
ATOM     20  O   UNL d   1      60.664  -1.290  28.455  0.00  0.00    -0.265 OA
BRANCH  19  21
ATOM     21  C   UNL d   1      60.344  -0.552  29.632  0.00  0.00     0.069 A 
ATOM     22  C   UNL d   1      60.799  -0.929  30.204  0.00  0.00     0.063 A 
ATOM     23  C   UNL d   1      61.037  -0.523  30.874  0.00  0.00     0.023 A 
ATOM     24 CL   UNL d   1      61.018  -1.711  30.110  0.00  0.00    -0.082 Cl
ATOM     25  C   UNL d   1      60.827   0.271  30.993  0.00  0.00     0.059 A 
ATOM     26  C   UNL d   1      60.361   0.651  30.403  0.00  0.00     0.012 A 
ATOM     27 CL   UNL d   1      61.067   0.681  31.670  0.00  0.00    -0.082 Cl
ATOM     28  C   UNL d   1      60.123   0.245  29.733  0.00  0.00     0.006 A 
ENDBRANCH  19  21
ENDBRANCH   4  18
TORSDOF 6
ENDMDL
