MODEL 1
REMARK VINA RESULT:      15.6      0.000      0.000
REMARK  6 active torsions:
REMARK  status: ('A' for Active; 'I' for Inactive)
REMARK    1  A    between atoms: C_7  and  S_1 
REMARK    2  A    between atoms: N_18  and  S_1 
REMARK    3  A    between atoms: C_6  and  C_4 
REMARK    4  A    between atoms: C_9  and  C_24 
REMARK    5  A    between atoms: C_26  and  N_18 
REMARK    6  A    between atoms: C_24  and  C_26 
ROOT
ATOM      1  S   UNL d   1      46.145 -14.341  44.583  0.00  0.00     0.285 S 
ATOM      2  O   UNL d   1      46.645 -14.881  44.954  0.00  0.00    -0.198 OA
ATOM      3  O   UNL d   1      46.555 -13.727  44.941  0.00  0.00    -0.198 OA
ENDROOT
BRANCH   1   4
ATOM      4  C   UNL d   1      45.650 -13.797  44.217  0.00  0.00     0.105 A 
ATOM      5  C   UNL d   1      45.804 -13.554  43.444  0.00  0.00     0.019 A 
ATOM      6  C   UNL d   1      45.312 -13.013  43.078  0.00  0.00     0.100 A 
ATOM      7  C   UNL d   1      44.660 -12.708  43.483  0.00  0.00     0.144 A 
ATOM      8  C   UNL d   1      44.506 -12.949  44.252  0.00  0.00     0.030 A 
ATOM      9  F   UNL d   1      44.162 -12.164  43.122  0.00  0.00    -0.204 F 
ATOM     10  C   UNL d   1      44.997 -13.492  44.622  0.00  0.00     0.015 A 
BRANCH   6  11
ATOM     11  C   UNL d   1      45.468 -12.774  42.311  0.00  0.00     0.421 C 
ATOM     12  F   UNL d   1      45.618 -12.556  41.606  0.00  0.00    -0.166 F 
ATOM     13  F   UNL d   1      44.947 -12.394  41.741  0.00  0.00    -0.166 F 
ATOM     14  F   UNL d   1      46.202 -12.838  41.863  0.00  0.00    -0.166 F 
ENDBRANCH   6  11
ENDBRANCH   1   4
BRANCH   1  15
ATOM     15  N   UNL d   1      45.738 -14.967  44.227  0.00  0.00    -0.157 NA
BRANCH  15  16
ATOM     16  C   UNL d   1      46.026 -15.722  44.273  0.00  0.00     0.114 C 
BRANCH  16  17
ATOM     17  C   UNL d   1      45.507 -16.370  44.257  0.00  0.00     0.042 C 
BRANCH  17  18
ATOM     18  C   UNL d   1      45.750 -17.083  43.886  0.00  0.00     0.102 A 
ATOM     19  N   UNL d   1      45.822 -17.204  43.087  0.00  0.00    -0.227 NA
ATOM     20  C   UNL d   1      46.075 -17.980  42.956  0.00  0.00     0.148 A 
ATOM     21  C   UNL d   1      46.237 -18.398  42.267  0.00  0.00     0.037 A 
ATOM     22  N   UNL d   1      46.160 -18.342  43.687  0.00  0.00    -0.288 N 
ATOM     23  C   UNL d   1      46.485 -19.179  42.313  0.00  0.00     0.004 A 
ATOM     24  C   UNL d   1      46.647 -19.596  41.620  0.00  0.00     0.000 C 
ATOM     25  C   UNL d   1      46.574 -19.553  43.037  0.00  0.00     0.019 A 
ATOM     26  C   UNL d   1      46.409 -19.128  43.731  0.00  0.00     0.082 A 
ATOM     27  C   UNL d   1      45.960 -17.791  44.276  0.00  0.00     0.101 A 
ENDBRANCH  17  18
ENDBRANCH  16  17
ENDBRANCH  15  16
ENDBRANCH   1  15
TORSDOF 6
ENDMDL
