MODEL 1
REMARK VINA RESULT:      -7.3      0.000      0.000
REMARK  6 active torsions:
REMARK  status: ('A' for Active; 'I' for Inactive)
REMARK    1  A    between atoms: C_6  and  C_1 
REMARK    2  A    between atoms: C_8  and  C_2 
REMARK    3  A    between atoms: C_9  and  C_4 
REMARK    4  A    between atoms: C_12  and  C_8 
REMARK    5  A    between atoms: O_27  and  C_11 
REMARK    6  A    between atoms: C_30  and  O_27 
ROOT
ATOM      1  C   UNL d   1     -48.802  11.694  22.924  0.00  0.00     0.306 A 
ATOM      2  C   UNL d   1     -48.276  12.329  22.883  0.00  0.00     0.114 A 
ATOM      3  N   UNL d   1     -48.524  10.959  23.198  0.00  0.00    -0.152 NA
ATOM      4  C   UNL d   1     -47.489  12.234  23.111  0.00  0.00     0.094 A 
ATOM      5  C   UNL d   1     -47.738  10.868  23.424  0.00  0.00     0.371 A 
ATOM      6  N   UNL d   1     -47.215  11.513  23.380  0.00  0.00    -0.191 NA
ATOM      7  O   UNL d   1     -47.459  10.133  23.698  0.00  0.00    -0.242 OA
ATOM      8  O   UNL d   1     -49.401  11.146  22.921  0.00  0.00    -0.266 OA
ENDROOT
BRANCH   4   9
ATOM      9  C   UNL d   1     -46.966  12.879  23.066  0.00  0.00     0.020 A 
ATOM     10  C   UNL d   1     -46.385  12.903  22.487  0.00  0.00     0.029 A 
ATOM     11  C   UNL d   1     -45.862  13.548  22.442  0.00  0.00     0.139 A 
ATOM     12  C   UNL d   1     -45.924  14.174  22.986  0.00  0.00     0.218 A 
ATOM     13  C   UNL d   1     -46.513  14.146  23.570  0.00  0.00     0.044 A 
ATOM     14  O   UNL d   1     -45.413  14.805  22.942  0.00  0.00    -0.284 OA
ATOM     15  C   UNL d   1     -47.036  13.502  23.614  0.00  0.00     0.005 A 
BRANCH  11  16
ATOM     16  O   UNL d   1     -45.285  13.566  21.862  0.00  0.00    -0.302 OA
BRANCH  16  17
ATOM     17  C   UNL d   1     -44.780  12.944  21.776  0.00  0.00     0.123 C 
ATOM     18  C   UNL d   1     -44.179  12.977  21.222  0.00  0.00     0.029 C 
ENDBRANCH  16  17
ENDBRANCH  11  16
ENDBRANCH   4   9
BRANCH   2  19
ATOM     19  C   UNL d   1     -48.555  13.065  22.609  0.00  0.00     0.201 C 
ATOM     20  O   UNL d   1     -48.329  12.986  21.912  0.00  0.00    -0.286 OA
BRANCH  19  21
ATOM     21  C   UNL d   1     -48.853  13.667  22.643  0.00  0.00     0.039 A 
ATOM     22  C   UNL d   1     -49.140  14.104  23.279  0.00  0.00     0.004 A 
ATOM     23  C   UNL d   1     -49.482  14.836  23.143  0.00  0.00     0.011 A 
ATOM     24  C   UNL d   1     -49.541  15.139  22.378  0.00  0.00     0.058 A 
ATOM     25  C   UNL d   1     -49.250  14.694  21.738  0.00  0.00     0.011 A 
ATOM     26 CL   UNL d   1     -49.884  15.869  22.255  0.00  0.00    -0.082 Cl
ATOM     27  C   UNL d   1     -48.908  13.963  21.873  0.00  0.00     0.004 A 
ENDBRANCH  19  21
ENDBRANCH   2  19
BRANCH   1  28
ATOM     28  C   UNL d   1     -49.529  11.892  22.683  0.00  0.00     0.470 C 
ATOM     29  F   UNL d   1     -50.172  12.154  23.118  0.00  0.00    -0.162 F 
ATOM     30  F   UNL d   1     -50.186  12.070  22.455  0.00  0.00    -0.162 F 
ATOM     31  F   UNL d   1     -49.838  11.887  21.915  0.00  0.00    -0.162 F 
ENDBRANCH   1  28
TORSDOF 6
ENDMDL
MODEL 2
REMARK VINA RESULT:      -6.5      1.876      3.452
REMARK  6 active torsions:
REMARK  status: ('A' for Active; 'I' for Inactive)
REMARK    1  A    between atoms: C_6  and  C_1 
REMARK    2  A    between atoms: C_8  and  C_2 
REMARK    3  A    between atoms: C_9  and  C_4 
REMARK    4  A    between atoms: C_12  and  C_8 
REMARK    5  A    between atoms: O_27  and  C_11 
REMARK    6  A    between atoms: C_30  and  O_27 
ROOT
ATOM      1  C   UNL d   1     -46.459  13.979  22.586  0.00  0.00     0.306 A 
ATOM      2  C   UNL d   1     -47.179  13.597  22.724  0.00  0.00     0.114 A 
ATOM      3  N   UNL d   1     -45.800  13.524  22.358  0.00  0.00    -0.152 NA
ATOM      4  C   UNL d   1     -47.240  12.780  22.635  0.00  0.00     0.094 A 
ATOM      5  C   UNL d   1     -45.866  12.709  22.271  0.00  0.00     0.371 A 
ATOM      6  N   UNL d   1     -46.595  12.333  22.411  0.00  0.00    -0.191 NA
ATOM      7  O   UNL d   1     -45.208  12.253  22.043  0.00  0.00    -0.242 OA
ATOM      8  O   UNL d   1     -45.810  14.455  22.479  0.00  0.00    -0.266 OA
ENDROOT
BRANCH   4   9
ATOM      9  C   UNL d   1     -47.969  12.404  22.776  0.00  0.00     0.020 A 
ATOM     10  C   UNL d   1     -48.485  12.256  22.155  0.00  0.00     0.029 A 
ATOM     11  C   UNL d   1     -49.214  11.880  22.295  0.00  0.00     0.139 A 
ATOM     12  C   UNL d   1     -49.425  11.652  23.066  0.00  0.00     0.218 A 
ATOM     13  C   UNL d   1     -48.899  11.803  23.691  0.00  0.00     0.044 A 
ATOM     14  O   UNL d   1     -50.136  11.284  23.203  0.00  0.00    -0.284 OA
ATOM     15  C   UNL d   1     -48.171  12.179  23.551  0.00  0.00     0.005 A 
BRANCH  11  16
ATOM     16  O   UNL d   1     -49.724  11.735  21.672  0.00  0.00    -0.302 OA
BRANCH  16  17
ATOM     17  C   UNL d   1     -50.344  12.231  21.535  0.00  0.00     0.123 C 
ATOM     18  C   UNL d   1     -50.634  12.325  20.775  0.00  0.00     0.029 C 
ENDBRANCH  16  17
ENDBRANCH  11  16
ENDBRANCH   4   9
BRANCH   2  19
ATOM     19  C   UNL d   1     -47.838  14.053  22.952  0.00  0.00     0.201 C 
ATOM     20  O   UNL d   1     -47.812  13.884  23.668  0.00  0.00    -0.286 OA
BRANCH  19  21
ATOM     21  C   UNL d   1     -48.361  14.469  22.875  0.00  0.00     0.039 A 
ATOM     22  C   UNL d   1     -48.667  14.853  22.214  0.00  0.00     0.004 A 
ATOM     23  C   UNL d   1     -49.324  15.334  22.296  0.00  0.00     0.011 A 
ATOM     24  C   UNL d   1     -49.682  15.439  23.032  0.00  0.00     0.058 A 
ATOM     25  C   UNL d   1     -49.369  15.050  23.698  0.00  0.00     0.011 A 
ATOM     26 CL   UNL d   1     -50.336  15.922  23.102  0.00  0.00    -0.082 Cl
ATOM     27  C   UNL d   1     -48.712  14.568  23.616  0.00  0.00     0.004 A 
ENDBRANCH  19  21
ENDBRANCH   2  19
BRANCH   1  28
ATOM     28  C   UNL d   1     -46.509  14.761  22.699  0.00  0.00     0.470 C 
ATOM     29  F   UNL d   1     -46.675  15.357  22.163  0.00  0.00    -0.162 F 
ATOM     30  F   UNL d   1     -46.552  15.468  22.810  0.00  0.00    -0.162 F 
ATOM     31  F   UNL d   1     -46.404  15.189  23.399  0.00  0.00    -0.162 F 
ENDBRANCH   1  28
TORSDOF 6
ENDMDL
MODEL 3
REMARK VINA RESULT:      -6.1      2.481      4.333
REMARK  6 active torsions:
REMARK  status: ('A' for Active; 'I' for Inactive)
REMARK    1  A    between atoms: C_6  and  C_1 
REMARK    2  A    between atoms: C_8  and  C_2 
REMARK    3  A    between atoms: C_9  and  C_4 
REMARK    4  A    between atoms: C_12  and  C_8 
REMARK    5  A    between atoms: O_27  and  C_11 
REMARK    6  A    between atoms: C_30  and  O_27 
ROOT
ATOM      1  C   UNL d   1     -47.386  14.846  22.707  0.00  0.00     0.306 A 
ATOM      2  C   UNL d   1     -47.622  14.082  22.496  0.00  0.00     0.114 A 
ATOM      3  N   UNL d   1     -47.948  15.459  22.688  0.00  0.00    -0.152 NA
ATOM      4  C   UNL d   1     -48.401  13.935  22.272  0.00  0.00     0.094 A 
ATOM      5  C   UNL d   1     -48.725  15.307  22.464  0.00  0.00     0.371 A 
ATOM      6  N   UNL d   1     -48.954  14.535  22.253  0.00  0.00    -0.191 NA
ATOM      7  O   UNL d   1     -49.288  15.920  22.445  0.00  0.00    -0.242 OA
ATOM      8  O   UNL d   1     -47.046  15.548  22.932  0.00  0.00    -0.266 OA
ENDROOT
BRANCH   4   9
ATOM      9  C   UNL d   1     -48.630  13.163  22.062  0.00  0.00     0.020 A 
ATOM     10  C   UNL d   1     -48.981  12.669  22.615  0.00  0.00     0.029 A 
ATOM     11  C   UNL d   1     -49.210  11.898  22.406  0.00  0.00     0.139 A 
ATOM     12  C   UNL d   1     -49.084  11.621  21.632  0.00  0.00     0.218 A 
ATOM     13  C   UNL d   1     -48.729  12.124  21.075  0.00  0.00     0.044 A 
ATOM     14  O   UNL d   1     -49.308  10.867  21.426  0.00  0.00    -0.284 OA
ATOM     15  C   UNL d   1     -48.500  12.894  21.285  0.00  0.00     0.005 A 
BRANCH  11  16
ATOM     16  O   UNL d   1     -49.560  11.410  22.962  0.00  0.00    -0.302 OA
BRANCH  16  17
ATOM     17  C   UNL d   1     -50.344  11.488  23.130  0.00  0.00     0.123 C 
ATOM     18  C   UNL d   1     -50.693  11.005  23.692  0.00  0.00     0.029 C 
ENDBRANCH  16  17
ENDBRANCH  11  16
ENDBRANCH   4   9
BRANCH   2  19
ATOM     19  C   UNL d   1     -47.059  13.469  22.515  0.00  0.00     0.201 C 
ATOM     20  O   UNL d   1     -46.871  13.505  21.805  0.00  0.00    -0.286 OA
BRANCH  19  21
ATOM     21  C   UNL d   1     -46.687  12.976  22.784  0.00  0.00     0.039 A 
ATOM     22  C   UNL d   1     -46.726  12.588  23.508  0.00  0.00     0.004 A 
ATOM     23  C   UNL d   1     -46.184  12.000  23.681  0.00  0.00     0.011 A 
ATOM     24  C   UNL d   1     -45.599  11.792  23.137  0.00  0.00     0.058 A 
ATOM     25  C   UNL d   1     -45.562  12.187  22.406  0.00  0.00     0.011 A 
ATOM     26 CL   UNL d   1     -45.064  11.204  23.319  0.00  0.00    -0.082 Cl
ATOM     27  C   UNL d   1     -46.104  12.775  22.233  0.00  0.00     0.004 A 
ENDBRANCH  19  21
ENDBRANCH   2  19
BRANCH   1  28
ATOM     28  C   UNL d   1     -46.620  14.878  22.905  0.00  0.00     0.470 C 
ATOM     29  F   UNL d   1     -46.263  14.767  23.634  0.00  0.00    -0.162 F 
ATOM     30  F   UNL d   1     -45.924  14.910  23.075  0.00  0.00    -0.162 F 
ATOM     31  F   UNL d   1     -45.969  15.036  22.421  0.00  0.00    -0.162 F 
ENDBRANCH   1  28
TORSDOF 6
ENDMDL
MODEL 4
REMARK VINA RESULT:      -4.8      2.031      3.662
REMARK  6 active torsions:
REMARK  status: ('A' for Active; 'I' for Inactive)
REMARK    1  A    between atoms: C_6  and  C_1 
REMARK    2  A    between atoms: C_8  and  C_2 
REMARK    3  A    between atoms: C_9  and  C_4 
REMARK    4  A    between atoms: C_12  and  C_8 
REMARK    5  A    between atoms: O_27  and  C_11 
REMARK    6  A    between atoms: C_30  and  O_27 
ROOT
ATOM      1  C   UNL d   1     -46.639  13.217  22.733  0.00  0.00     0.306 A 
ATOM      2  C   UNL d   1     -47.391  13.556  22.781  0.00  0.00     0.114 A 
ATOM      3  N   UNL d   1     -45.992  13.702  22.536  0.00  0.00    -0.152 NA
ATOM      4  C   UNL d   1     -47.495  14.360  22.636  0.00  0.00     0.094 A 
ATOM      5  C   UNL d   1     -46.101  14.505  22.391  0.00  0.00     0.371 A 
ATOM      6  N   UNL d   1     -46.862  14.837  22.442  0.00  0.00    -0.191 NA
ATOM      7  O   UNL d   1     -45.454  14.990  22.194  0.00  0.00    -0.242 OA
ATOM      8  O   UNL d   1     -45.954  12.782  22.715  0.00  0.00    -0.266 OA
ENDROOT
BRANCH   4   9
ATOM      9  C   UNL d   1     -48.256  14.693  22.686  0.00  0.00     0.020 A 
ATOM     10  C   UNL d   1     -48.734  14.738  22.020  0.00  0.00     0.029 A 
ATOM     11  C   UNL d   1     -49.494  15.070  22.070  0.00  0.00     0.139 A 
ATOM     12  C   UNL d   1     -49.777  15.360  22.796  0.00  0.00     0.218 A 
ATOM     13  C   UNL d   1     -49.290  15.313  23.468  0.00  0.00     0.044 A 
ATOM     14  O   UNL d   1     -50.520  15.685  22.845  0.00  0.00    -0.284 OA
ATOM     15  C   UNL d   1     -48.530  14.981  23.417  0.00  0.00     0.005 A 
BRANCH  11  16
ATOM     16  O   UNL d   1     -49.966  15.112  21.402  0.00  0.00    -0.302 OA
BRANCH  16  17
ATOM     17  C   UNL d   1     -50.432  14.488  21.198  0.00  0.00     0.123 C 
ATOM     18  C   UNL d   1     -51.064  14.597  20.690  0.00  0.00     0.029 C 
ENDBRANCH  16  17
ENDBRANCH  11  16
ENDBRANCH   4   9
BRANCH   2  19
ATOM     19  C   UNL d   1     -48.038  13.070  22.979  0.00  0.00     0.201 C 
ATOM     20  O   UNL d   1     -48.062  13.248  23.693  0.00  0.00    -0.286 OA
BRANCH  19  21
ATOM     21  C   UNL d   1     -48.535  12.627  22.878  0.00  0.00     0.039 A 
ATOM     22  C   UNL d   1     -48.779  12.215  22.209  0.00  0.00     0.004 A 
ATOM     23  C   UNL d   1     -49.416  11.704  22.260  0.00  0.00     0.011 A 
ATOM     24  C   UNL d   1     -49.815  11.597  22.974  0.00  0.00     0.058 A 
ATOM     25  C   UNL d   1     -49.566  12.014  23.649  0.00  0.00     0.011 A 
ATOM     26 CL   UNL d   1     -50.449  11.084  23.013  0.00  0.00    -0.082 Cl
ATOM     27  C   UNL d   1     -48.929  12.526  23.598  0.00  0.00     0.004 A 
ENDBRANCH  19  21
ENDBRANCH   2  19
BRANCH   1  28
ATOM     28  C   UNL d   1     -46.650  12.441  22.891  0.00  0.00     0.470 C 
ATOM     29  F   UNL d   1     -46.574  12.052  23.608  0.00  0.00    -0.162 F 
ATOM     30  F   UNL d   1     -46.660  11.737  23.025  0.00  0.00    -0.162 F 
ATOM     31  F   UNL d   1     -46.741  11.809  22.366  0.00  0.00    -0.162 F 
ENDBRANCH   1  28
TORSDOF 6
ENDMDL
