MODEL 1
REMARK VINA RESULT:      24.8      0.000      0.000
REMARK  0 active torsions:
REMARK  status: ('A' for Active; 'I' for Inactive)
ROOT
ATOM      1  C   UNL d   1     -54.738-101.448 -38.276  0.00  0.00     0.138 A 
ATOM      2  C   UNL d   1     -54.721-102.269 -38.193  0.00  0.00     0.102 A 
ATOM      3  N   UNL d   1     -54.747-101.110 -39.030  0.00  0.00    -0.239 NA
ATOM      4  C   UNL d   1     -54.746-100.966 -37.615  0.00  0.00     0.214 A 
ATOM      5  N   UNL d   1     -54.713-102.751 -38.864  0.00  0.00    -0.242 NA
ATOM      6  C   UNL d   1     -54.720-102.125 -36.777  0.00  0.00     0.022 A 
ATOM      7  C   UNL d   1     -54.738-101.304 -36.861  0.00  0.00     0.042 A 
ATOM      8  C   UNL d   1     -54.739-101.594 -39.707  0.00  0.00     0.099 A 
ATOM      9  C   UNL d   1     -54.722-102.414 -39.623  0.00  0.00     0.099 A 
ATOM     10  O   UNL d   1     -54.763-100.145 -37.698  0.00  0.00    -0.285 OA
ATOM     11  C   UNL d   1     -54.712-102.463 -36.032  0.00  0.00     0.002 A 
ATOM     12  C   UNL d   1     -54.746-100.822 -36.199  0.00  0.00     0.003 A 
ATOM     13  C   UNL d   1     -54.714-102.880 -40.281  0.00  0.00     0.021 A 
ATOM     14  C   UNL d   1     -54.747-101.249 -40.447  0.00  0.00     0.021 A 
ATOM     15  C   UNL d   1     -54.720-101.982 -35.376  0.00  0.00     0.000 A 
ATOM     16  C   UNL d   1     -54.737-101.162 -35.460  0.00  0.00     0.000 A 
ATOM     17  C   UNL d   1     -54.722-102.560 -41.060  0.00  0.00     0.002 A 
ATOM     18  C   UNL d   1     -54.739-101.740 -41.143  0.00  0.00     0.002 A 
ENDROOT
TORSDOF 0
ENDMDL
