MODEL 1
REMARK VINA RESULT:      -2.8      0.000      0.000
REMARK  4 active torsions:
REMARK  status: ('A' for Active; 'I' for Inactive)
REMARK    1  A    between atoms: C_5  and  N_1 
REMARK       I    between atoms: C_2  and  N_3 
REMARK    2  A    between atoms: C_6  and  C_2 
REMARK    3  A    between atoms: N_3  and  C_4 
REMARK    4  A    between atoms: O_18  and  C_11 
ROOT
ATOM      1  C   UNL d   1      32.989  22.317 -21.453  0.00  0.00     0.108 A 
ATOM      2  C   UNL d   1      32.759  22.973 -20.269  0.00  0.00     0.128 A 
ATOM      3  C   UNL d   1      32.990  22.306 -20.639  0.00  0.00     0.045 A 
ATOM      4  C   UNL d   1      32.769  22.959 -21.868  0.00  0.00     0.112 A 
ATOM      5  C   UNL d   1      32.536  23.624 -20.624  0.00  0.00     0.026 A 
ATOM      6  C   UNL d   1      32.531  23.647 -21.452  0.00  0.00     0.027 A 
ENDROOT
BRANCH   1   7
ATOM      7  N   UNL d   1      33.241  21.590 -21.894  0.00  0.00    -0.204 NA
ATOM      8  C   UNL d   1      32.771  20.904 -21.814  0.00  0.00     0.302 C 
ATOM      9  O   UNL d   1      32.106  20.948 -21.330  0.00  0.00    -0.263 OA
BRANCH   8  10
ATOM     10  C   UNL d   1      32.956  20.197 -22.200  0.00  0.00     0.158 A 
ATOM     11  O   UNL d   1      33.064  20.058 -23.008  0.00  0.00    -0.300 OA
ATOM     12  C   UNL d   1      33.241  19.247 -23.097  0.00  0.00     0.123 A 
ATOM     13  C   UNL d   1      33.235  18.911 -22.326  0.00  0.00     0.029 A 
ATOM     14  C   UNL d   1      33.061  19.504 -21.813  0.00  0.00     0.032 A 
ENDBRANCH   8  10
ENDBRANCH   1   7
BRANCH   4  15
ATOM     15  O   UNL d   1      32.764  22.983 -22.696  0.00  0.00    -0.327 OA
ATOM     16  C   UNL d   1      32.373  23.657 -23.097  0.00  0.00     0.181 C 
ENDBRANCH   4  15
BRANCH   2  17
ATOM     17  N   UNL d   1      32.764  22.952 -19.374  0.00  0.00    -0.114 N 
ATOM     18  O   UNL d   1      33.128  22.295 -18.947  0.00  0.00    -0.532 OA
ATOM     19  O   UNL d   1      32.402  23.591 -18.966  0.00  0.00    -0.532 OA
ENDBRANCH   2  17
TORSDOF 4
ENDMDL
MODEL 2
REMARK VINA RESULT:      -2.7      4.513      6.254
REMARK  4 active torsions:
REMARK  status: ('A' for Active; 'I' for Inactive)
REMARK    1  A    between atoms: C_5  and  N_1 
REMARK       I    between atoms: C_2  and  N_3 
REMARK    2  A    between atoms: C_6  and  C_2 
REMARK    3  A    between atoms: N_3  and  C_4 
REMARK    4  A    between atoms: O_18  and  C_11 
ROOT
ATOM      1  C   UNL d   1      31.846  16.943 -24.303  0.00  0.00     0.108 A 
ATOM      2  C   UNL d   1      32.566  17.950 -23.708  0.00  0.00     0.128 A 
ATOM      3  C   UNL d   1      31.859  17.682 -23.961  0.00  0.00     0.045 A 
ATOM      4  C   UNL d   1      32.503  16.502 -24.385  0.00  0.00     0.112 A 
ATOM      5  C   UNL d   1      33.234  17.562 -23.763  0.00  0.00     0.026 A 
ATOM      6  C   UNL d   1      33.233  16.809 -24.109  0.00  0.00     0.027 A 
ENDROOT
BRANCH   1   7
ATOM      7  N   UNL d   1      31.074  16.617 -24.595  0.00  0.00    -0.204 NA
ATOM      8  C   UNL d   1      30.460  16.513 -24.038  0.00  0.00     0.302 C 
ATOM      9  O   UNL d   1      30.612  16.721 -23.255  0.00  0.00    -0.263 OA
BRANCH   8  10
ATOM     10  C   UNL d   1      29.720  16.214 -24.250  0.00  0.00     0.158 A 
ATOM     11  O   UNL d   1      29.438  16.006 -24.999  0.00  0.00    -0.300 OA
ATOM     12  C   UNL d   1      28.655  15.734 -24.900  0.00  0.00     0.123 A 
ATOM     13  C   UNL d   1      28.481  15.786 -24.079  0.00  0.00     0.029 A 
ATOM     14  C   UNL d   1      29.137  16.076 -23.719  0.00  0.00     0.032 A 
ENDBRANCH   8  10
ENDBRANCH   1   7
BRANCH   4  15
ATOM     15  O   UNL d   1      32.503  15.749 -24.731  0.00  0.00    -0.327 OA
ATOM     16  C   UNL d   1      33.241  15.453 -25.097  0.00  0.00     0.181 C 
ENDBRANCH   4  15
BRANCH   2  17
ATOM     17  N   UNL d   1      32.571  18.763 -23.334  0.00  0.00    -0.114 N 
ATOM     18  O   UNL d   1      32.592  18.855 -22.474  0.00  0.00    -0.532 OA
ATOM     19  O   UNL d   1      32.556  19.430 -23.844  0.00  0.00    -0.532 OA
ENDBRANCH   2  17
TORSDOF 4
ENDMDL
MODEL 3
REMARK VINA RESULT:      -2.1      1.248      3.588
REMARK  4 active torsions:
REMARK  status: ('A' for Active; 'I' for Inactive)
REMARK    1  A    between atoms: C_5  and  N_1 
REMARK       I    between atoms: C_2  and  N_3 
REMARK    2  A    between atoms: C_6  and  C_2 
REMARK    3  A    between atoms: N_3  and  C_4 
REMARK    4  A    between atoms: O_18  and  C_11 
ROOT
ATOM      1  C   UNL d   1      33.209  21.196 -22.181  0.00  0.00     0.108 A 
ATOM      2  C   UNL d   1      33.201  19.866 -22.519  0.00  0.00     0.128 A 
ATOM      3  C   UNL d   1      33.196  20.417 -21.944  0.00  0.00     0.045 A 
ATOM      4  C   UNL d   1      33.227  21.406 -22.949  0.00  0.00     0.112 A 
ATOM      5  C   UNL d   1      33.217  20.015 -23.279  0.00  0.00     0.026 A 
ATOM      6  C   UNL d   1      33.231  20.804 -23.532  0.00  0.00     0.027 A 
ENDROOT
BRANCH   1   7
ATOM      7  N   UNL d   1      33.205  21.834 -21.565  0.00  0.00    -0.204 NA
ATOM      8  C   UNL d   1      32.583  21.831 -21.007  0.00  0.00     0.302 C 
ATOM      9  O   UNL d   1      32.016  21.236 -21.066  0.00  0.00    -0.263 OA
BRANCH   8  10
ATOM     10  C   UNL d   1      32.526  22.400 -20.409  0.00  0.00     0.158 A 
ATOM     11  O   UNL d   1      32.034  23.063 -20.367  0.00  0.00    -0.300 OA
ATOM     12  C   UNL d   1      32.201  23.448 -19.646  0.00  0.00     0.123 A 
ATOM     13  C   UNL d   1      32.801  22.998 -19.263  0.00  0.00     0.029 A 
ATOM     14  C   UNL d   1      32.972  22.380 -19.745  0.00  0.00     0.032 A 
ENDBRANCH   8  10
ENDBRANCH   1   7
BRANCH   4  15
ATOM     15  O   UNL d   1      33.241  22.195 -23.202  0.00  0.00    -0.327 OA
ATOM     16  C   UNL d   1      33.103  22.369 -24.050  0.00  0.00     0.181 C 
ENDBRANCH   4  15
BRANCH   2  17
ATOM     17  N   UNL d   1      33.185  19.012 -22.251  0.00  0.00    -0.114 N 
ATOM     18  O   UNL d   1      33.238  18.810 -21.412  0.00  0.00    -0.532 OA
ATOM     19  O   UNL d   1      33.119  18.417 -22.840  0.00  0.00    -0.532 OA
ENDBRANCH   2  17
TORSDOF 4
ENDMDL
MODEL 4
REMARK VINA RESULT:      -2.0      4.540      6.451
REMARK  4 active torsions:
REMARK  status: ('A' for Active; 'I' for Inactive)
REMARK    1  A    between atoms: C_5  and  N_1 
REMARK       I    between atoms: C_2  and  N_3 
REMARK    2  A    between atoms: C_6  and  C_2 
REMARK    3  A    between atoms: N_3  and  C_4 
REMARK    4  A    between atoms: O_18  and  C_11 
ROOT
ATOM      1  C   UNL d   1      31.517  16.549 -23.731  0.00  0.00     0.108 A 
ATOM      2  C   UNL d   1      30.250  16.083 -23.478  0.00  0.00     0.128 A 
ATOM      3  C   UNL d   1      30.714  16.610 -23.855  0.00  0.00     0.045 A 
ATOM      4  C   UNL d   1      31.832  15.994 -23.257  0.00  0.00     0.112 A 
ATOM      5  C   UNL d   1      30.506  15.524 -23.006  0.00  0.00     0.026 A 
ATOM      6  C   UNL d   1      31.320  15.453 -22.872  0.00  0.00     0.027 A 
ENDROOT
BRANCH   1   7
ATOM      7  N   UNL d   1      32.059  17.121 -24.138  0.00  0.00    -0.204 NA
ATOM      8  C   UNL d   1      32.002  17.928 -23.929  0.00  0.00     0.302 C 
ATOM      9  O   UNL d   1      31.445  18.139 -23.359  0.00  0.00    -0.263 OA
BRANCH   8  10
ATOM     10  C   UNL d   1      32.481  18.507 -24.274  0.00  0.00     0.158 A 
ATOM     11  O   UNL d   1      32.799  18.532 -25.036  0.00  0.00    -0.300 OA
ATOM     12  C   UNL d   1      33.240  19.239 -25.095  0.00  0.00     0.123 A 
ATOM     13  C   UNL d   1      33.175  19.629 -24.352  0.00  0.00     0.029 A 
ATOM     14  C   UNL d   1      32.715  19.166 -23.884  0.00  0.00     0.032 A 
ENDBRANCH   8  10
ENDBRANCH   1   7
BRANCH   4  15
ATOM     15  O   UNL d   1      32.647  15.922 -23.123  0.00  0.00    -0.327 OA
ATOM     16  C   UNL d   1      32.922  15.468 -22.426  0.00  0.00     0.181 C 
ENDBRANCH   4  15
BRANCH   2  17
ATOM     17  N   UNL d   1      29.370  16.156 -23.619  0.00  0.00    -0.114 N 
ATOM     18  O   UNL d   1      29.057  16.267 -24.417  0.00  0.00    -0.532 OA
ATOM     19  O   UNL d   1      28.861  16.113 -22.952  0.00  0.00    -0.532 OA
ENDBRANCH   2  17
TORSDOF 4
ENDMDL
MODEL 5
REMARK VINA RESULT:      -1.9      1.020      2.694
REMARK  4 active torsions:
REMARK  status: ('A' for Active; 'I' for Inactive)
REMARK    1  A    between atoms: C_5  and  N_1 
REMARK       I    between atoms: C_2  and  N_3 
REMARK    2  A    between atoms: C_6  and  C_2 
REMARK    3  A    between atoms: N_3  and  C_4 
REMARK    4  A    between atoms: O_18  and  C_11 
ROOT
ATOM      1  C   UNL d   1      33.071  21.936 -21.453  0.00  0.00     0.108 A 
ATOM      2  C   UNL d   1      32.773  22.380 -20.188  0.00  0.00     0.128 A 
ATOM      3  C   UNL d   1      32.921  22.559 -20.951  0.00  0.00     0.045 A 
ATOM      4  C   UNL d   1      33.071  21.181 -21.203  0.00  0.00     0.112 A 
ATOM      5  C   UNL d   1      32.761  21.664 -19.894  0.00  0.00     0.026 A 
ATOM      6  C   UNL d   1      32.911  21.022 -20.396  0.00  0.00     0.027 A 
ENDROOT
BRANCH   1   7
ATOM      7  N   UNL d   1      33.240  22.103 -22.308  0.00  0.00    -0.204 NA
ATOM      8  C   UNL d   1      32.787  22.695 -22.686  0.00  0.00     0.302 C 
ATOM      9  O   UNL d   1      32.214  23.084 -22.240  0.00  0.00    -0.263 OA
BRANCH   8  10
ATOM     10  C   UNL d   1      32.899  22.894 -23.480  0.00  0.00     0.158 A 
ATOM     11  O   UNL d   1      33.011  22.397 -24.130  0.00  0.00    -0.300 OA
ATOM     12  C   UNL d   1      33.096  22.885 -24.802  0.00  0.00     0.123 A 
ATOM     13  C   UNL d   1      33.033  23.680 -24.534  0.00  0.00     0.029 A 
ATOM     14  C   UNL d   1      32.916  23.651 -23.741  0.00  0.00     0.032 A 
ENDBRANCH   8  10
ENDBRANCH   1   7
BRANCH   4  15
ATOM     15  O   UNL d   1      33.222  20.538 -21.705  0.00  0.00    -0.327 OA
ATOM     16  C   UNL d   1      33.230  19.731 -21.366  0.00  0.00     0.181 C 
ENDBRANCH   4  15
BRANCH   2  17
ATOM     17  N   UNL d   1      32.609  23.071 -19.643  0.00  0.00    -0.114 N 
ATOM     18  O   UNL d   1      31.837  23.459 -19.638  0.00  0.00    -0.532 OA
ATOM     19  O   UNL d   1      33.230  23.327 -19.138  0.00  0.00    -0.532 OA
ENDBRANCH   2  17
TORSDOF 4
ENDMDL
MODEL 6
REMARK VINA RESULT:      -1.9      6.139      6.980
REMARK  4 active torsions:
REMARK  status: ('A' for Active; 'I' for Inactive)
REMARK    1  A    between atoms: C_5  and  N_1 
REMARK       I    between atoms: C_2  and  N_3 
REMARK    2  A    between atoms: C_6  and  C_2 
REMARK    3  A    between atoms: N_3  and  C_4 
REMARK    4  A    between atoms: O_18  and  C_11 
ROOT
ATOM      1  C   UNL d   1      29.874  16.646 -24.455  0.00  0.00     0.108 A 
ATOM      2  C   UNL d   1      28.652  16.355 -23.901  0.00  0.00     0.128 A 
ATOM      3  C   UNL d   1      29.384  16.105 -24.095  0.00  0.00     0.045 A 
ATOM      4  C   UNL d   1      29.642  17.392 -24.611  0.00  0.00     0.112 A 
ATOM      5  C   UNL d   1      28.377  17.067 -24.030  0.00  0.00     0.026 A 
ATOM      6  C   UNL d   1      28.866  17.627 -24.396  0.00  0.00     0.027 A 
ENDROOT
BRANCH   1   7
ATOM      7  N   UNL d   1      30.695  16.399 -24.683  0.00  0.00    -0.204 NA
ATOM      8  C   UNL d   1      31.196  16.110 -24.080  0.00  0.00     0.302 C 
ATOM      9  O   UNL d   1      30.894  16.074 -23.314  0.00  0.00    -0.263 OA
BRANCH   8  10
ATOM     10  C   UNL d   1      31.970  15.865 -24.232  0.00  0.00     0.158 A 
ATOM     11  O   UNL d   1      32.347  15.750 -24.958  0.00  0.00    -0.300 OA
ATOM     12  C   UNL d   1      33.127  15.501 -24.795  0.00  0.00     0.123 A 
ATOM     13  C   UNL d   1      33.202  15.471 -23.957  0.00  0.00     0.029 A 
ATOM     14  C   UNL d   1      32.494  15.694 -23.651  0.00  0.00     0.032 A 
ENDBRANCH   8  10
ENDBRANCH   1   7
BRANCH   4  15
ATOM     15  O   UNL d   1      30.131  17.951 -24.976  0.00  0.00    -0.327 OA
ATOM     16  C   UNL d   1      29.827  18.764 -25.097  0.00  0.00     0.181 C 
ENDBRANCH   4  15
BRANCH   2  17
ATOM     17  N   UNL d   1      28.119  15.754 -23.506  0.00  0.00    -0.114 N 
ATOM     18  O   UNL d   1      28.269  15.495 -22.695  0.00  0.00    -0.532 OA
ATOM     19  O   UNL d   1      27.472  15.453 -23.949  0.00  0.00    -0.532 OA
ENDBRANCH   2  17
TORSDOF 4
ENDMDL
MODEL 7
REMARK VINA RESULT:      -1.3      1.401      2.322
REMARK  4 active torsions:
REMARK  status: ('A' for Active; 'I' for Inactive)
REMARK    1  A    between atoms: C_5  and  N_1 
REMARK       I    between atoms: C_2  and  N_3 
REMARK    2  A    between atoms: C_6  and  C_2 
REMARK    3  A    between atoms: N_3  and  C_4 
REMARK    4  A    between atoms: O_18  and  C_11 
ROOT
ATOM      1  C   UNL d   1      32.549  21.026 -21.352  0.00  0.00     0.108 A 
ATOM      2  C   UNL d   1      32.364  22.386 -21.309  0.00  0.00     0.128 A 
ATOM      3  C   UNL d   1      32.254  21.700 -21.701  0.00  0.00     0.045 A 
ATOM      4  C   UNL d   1      32.931  21.041 -20.654  0.00  0.00     0.112 A 
ATOM      5  C   UNL d   1      32.728  22.456 -20.629  0.00  0.00     0.026 A 
ATOM      6  C   UNL d   1      33.032  21.777 -20.265  0.00  0.00     0.027 A 
ENDROOT
BRANCH   1   7
ATOM      7  N   UNL d   1      32.442  20.247 -21.763  0.00  0.00    -0.204 NA
ATOM      8  C   UNL d   1      32.792  20.153 -22.516  0.00  0.00     0.302 C 
ATOM      9  O   UNL d   1      33.212  20.790 -22.827  0.00  0.00    -0.263 OA
BRANCH   8  10
ATOM     10  C   UNL d   1      32.726  19.451 -22.947  0.00  0.00     0.158 A 
ATOM     11  O   UNL d   1      32.341  18.749 -22.742  0.00  0.00    -0.300 OA
ATOM     12  C   UNL d   1      32.447  18.216 -23.376  0.00  0.00     0.123 A 
ATOM     13  C   UNL d   1      32.902  18.618 -23.958  0.00  0.00     0.029 A 
ATOM     14  C   UNL d   1      33.052  19.353 -23.671  0.00  0.00     0.032 A 
ENDBRANCH   8  10
ENDBRANCH   1   7
BRANCH   4  15
ATOM     15  O   UNL d   1      33.235  20.362 -20.290  0.00  0.00    -0.327 OA
ATOM     16  C   UNL d   1      33.136  20.266 -19.425  0.00  0.00     0.181 C 
ENDBRANCH   4  15
BRANCH   2  17
ATOM     17  N   UNL d   1      32.037  23.122 -21.699  0.00  0.00    -0.114 N 
ATOM     18  O   UNL d   1      31.289  23.467 -21.437  0.00  0.00    -0.532 OA
ATOM     19  O   UNL d   1      32.481  23.465 -22.325  0.00  0.00    -0.532 OA
ENDBRANCH   2  17
TORSDOF 4
ENDMDL
MODEL 8
REMARK VINA RESULT:      -1.2      4.935      6.062
REMARK  4 active torsions:
REMARK  status: ('A' for Active; 'I' for Inactive)
REMARK    1  A    between atoms: C_5  and  N_1 
REMARK       I    between atoms: C_2  and  N_3 
REMARK    2  A    between atoms: C_6  and  C_2 
REMARK    3  A    between atoms: N_3  and  C_4 
REMARK    4  A    between atoms: O_18  and  C_11 
ROOT
ATOM      1  C   UNL d   1      31.806  17.390 -24.194  0.00  0.00     0.108 A 
ATOM      2  C   UNL d   1      32.767  16.857 -23.371  0.00  0.00     0.128 A 
ATOM      3  C   UNL d   1      32.061  16.770 -23.732  0.00  0.00     0.045 A 
ATOM      4  C   UNL d   1      32.233  18.055 -24.287  0.00  0.00     0.112 A 
ATOM      5  C   UNL d   1      33.222  17.481 -23.428  0.00  0.00     0.026 A 
ATOM      6  C   UNL d   1      32.972  18.118 -23.896  0.00  0.00     0.027 A 
ENDROOT
BRANCH   1   7
ATOM      7  N   UNL d   1      31.024  17.324 -24.609  0.00  0.00    -0.204 NA
ATOM      8  C   UNL d   1      30.361  17.096 -24.155  0.00  0.00     0.302 C 
ATOM      9  O   UNL d   1      30.476  16.948 -23.353  0.00  0.00    -0.263 OA
BRANCH   8  10
ATOM     10  C   UNL d   1      29.607  17.018 -24.487  0.00  0.00     0.158 A 
ATOM     11  O   UNL d   1      29.076  17.608 -24.716  0.00  0.00    -0.300 OA
ATOM     12  C   UNL d   1      28.398  17.225 -25.016  0.00  0.00     0.123 A 
ATOM     13  C   UNL d   1      28.540  16.398 -24.959  0.00  0.00     0.029 A 
ATOM     14  C   UNL d   1      29.271  16.308 -24.639  0.00  0.00     0.032 A 
ENDBRANCH   8  10
ENDBRANCH   1   7
BRANCH   4  15
ATOM     15  O   UNL d   1      31.984  18.692 -24.755  0.00  0.00    -0.327 OA
ATOM     16  C   UNL d   1      32.541  19.351 -24.902  0.00  0.00     0.181 C 
ENDBRANCH   4  15
BRANCH   2  17
ATOM     17  N   UNL d   1      33.041  16.171 -22.865  0.00  0.00    -0.114 N 
ATOM     18  O   UNL d   1      33.096  16.249 -22.006  0.00  0.00    -0.532 OA
ATOM     19  O   UNL d   1      33.241  15.453 -23.253  0.00  0.00    -0.532 OA
ENDBRANCH   2  17
TORSDOF 4
ENDMDL
MODEL 9
REMARK VINA RESULT:      -0.9      5.721      6.813
REMARK  4 active torsions:
REMARK  status: ('A' for Active; 'I' for Inactive)
REMARK    1  A    between atoms: C_5  and  N_1 
REMARK       I    between atoms: C_2  and  N_3 
REMARK    2  A    between atoms: C_6  and  C_2 
REMARK    3  A    between atoms: N_3  and  C_4 
REMARK    4  A    between atoms: O_18  and  C_11 
ROOT
ATOM      1  C   UNL d   1      30.846  16.784 -24.441  0.00  0.00     0.108 A 
ATOM      2  C   UNL d   1      32.164  16.565 -24.125  0.00  0.00     0.128 A 
ATOM      3  C   UNL d   1      31.412  16.300 -24.113  0.00  0.00     0.045 A 
ATOM      4  C   UNL d   1      31.025  17.491 -24.760  0.00  0.00     0.112 A 
ATOM      5  C   UNL d   1      32.391  17.243 -24.422  0.00  0.00     0.026 A 
ATOM      6  C   UNL d   1      31.824  17.744 -24.759  0.00  0.00     0.027 A 
ENDROOT
BRANCH   1   7
ATOM      7  N   UNL d   1      30.000  16.517 -24.444  0.00  0.00    -0.204 NA
ATOM      8  C   UNL d   1      29.681  16.228 -23.728  0.00  0.00     0.302 C 
ATOM      9  O   UNL d   1      30.173  16.210 -23.067  0.00  0.00    -0.263 OA
BRANCH   8  10
ATOM     10  C   UNL d   1      28.899  15.965 -23.669  0.00  0.00     0.158 A 
ATOM     11  O   UNL d   1      28.398  15.687 -24.264  0.00  0.00    -0.300 OA
ATOM     12  C   UNL d   1      27.670  15.495 -23.902  0.00  0.00     0.123 A 
ATOM     13  C   UNL d   1      27.753  15.666 -23.082  0.00  0.00     0.029 A 
ATOM     14  C   UNL d   1      28.498  15.944 -22.976  0.00  0.00     0.032 A 
ENDBRANCH   8  10
ENDBRANCH   1   7
BRANCH   4  15
ATOM     15  O   UNL d   1      30.457  17.992 -25.097  0.00  0.00    -0.327 OA
ATOM     16  C   UNL d   1      30.466  18.842 -24.884  0.00  0.00     0.181 C 
ENDBRANCH   4  15
BRANCH   2  17
ATOM     17  N   UNL d   1      32.780  16.027 -23.762  0.00  0.00    -0.114 N 
ATOM     18  O   UNL d   1      33.241  15.486 -24.255  0.00  0.00    -0.532 OA
ATOM     19  O   UNL d   1      32.895  16.066 -22.931  0.00  0.00    -0.532 OA
ENDBRANCH   2  17
TORSDOF 4
ENDMDL
