MODEL 1
REMARK VINA RESULT:       0.2      0.000      0.000
REMARK  4 active torsions:
REMARK  status: ('A' for Active; 'I' for Inactive)
REMARK    1  A    between atoms: C_8  and  C_1 
REMARK    2  A    between atoms: C_12  and  C_3 
REMARK    3  A    between atoms: N_10  and  C_8 
REMARK    4  A    between atoms: C_25  and  C_13 
ROOT
ATOM      1  C   UNL d   1      33.199  22.047 -22.184  0.00  0.00     0.079 A 
ATOM      2  C   UNL d   1      33.140  20.671 -21.809  0.00  0.00     0.062 A 
ATOM      3  C   UNL d   1      33.128  19.660 -22.813  0.00  0.00     0.064 A 
ATOM      4  C   UNL d   1      33.175  21.252 -22.394  0.00  0.00     0.108 A 
ATOM      5  C   UNL d   1      33.116  19.875 -22.019  0.00  0.00     0.199 A 
ATOM      6  O   UNL d   1      33.188  21.036 -23.188  0.00  0.00    -0.305 OA
ATOM      7  C   UNL d   1      33.164  20.241 -23.398  0.00  0.00     0.126 A 
ATOM      8  C   UNL d   1      33.187  22.265 -21.387  0.00  0.00     0.199 A 
ATOM      9  C   UNL d   1      33.127  20.885 -21.014  0.00  0.00     0.008 A 
ATOM     10  C   UNL d   1      33.151  21.685 -20.802  0.00  0.00     0.039 A 
ATOM     11  O   UNL d   1      33.080  19.294 -21.434  0.00  0.00    -0.286 OA
ATOM     12  O   UNL d   1      33.210  23.052 -21.174  0.00  0.00    -0.286 OA
ENDROOT
BRANCH   3  13
ATOM     13  C   UNL d   1      33.104  18.864 -23.023  0.00  0.00     0.007 A 
ATOM     14  C   UNL d   1      33.037  18.642 -23.825  0.00  0.00     0.027 A 
ATOM     15  C   UNL d   1      33.014  17.846 -24.034  0.00  0.00     0.123 A 
ATOM     16  O   UNL d   1      32.948  17.633 -24.827  0.00  0.00    -0.301 OA
ATOM     17  C   UNL d   1      33.057  17.267 -23.448  0.00  0.00     0.123 A 
ATOM     18  C   UNL d   1      32.924  16.832 -25.041  0.00  0.00     0.149 A 
ATOM     19  C   UNL d   1      32.967  16.249 -24.447  0.00  0.00     0.149 A 
ATOM     20  O   UNL d   1      33.033  16.471 -23.659  0.00  0.00    -0.301 OA
ATOM     21  C   UNL d   1      33.123  17.486 -22.650  0.00  0.00     0.027 A 
ATOM     22  C   UNL d   1      33.147  18.281 -22.440  0.00  0.00     0.002 A 
ENDBRANCH   3  13
BRANCH   1  23
ATOM     23  C   UNL d   1      33.235  22.628 -22.769  0.00  0.00     0.085 C 
BRANCH  23  24
ATOM     24  N   UNL d   1      32.543  22.986 -23.038  0.00  0.00    -0.304 N 
ATOM     25  C   UNL d   1      32.462  23.190 -23.833  0.00  0.00     0.064 A 
ATOM     26  C   UNL d   1      33.075  23.035 -24.360  0.00  0.00     0.019 C 
ATOM     27  C   UNL d   1      31.772  23.545 -24.094  0.00  0.00     0.018 A 
ATOM     28  C   UNL d   1      31.152  23.702 -23.561  0.00  0.00     0.003 A 
ATOM     29  C   UNL d   1      31.236  23.498 -22.772  0.00  0.00     0.019 A 
ATOM     30  C   UNL d   1      31.928  23.140 -22.502  0.00  0.00     0.080 A 
ENDBRANCH  23  24
ENDBRANCH   1  23
BRANCH  10  31
ATOM     31  C   UNL d   1      33.139  21.905 -20.001  0.00  0.00     0.003 C 
ATOM     32  C   UNL d   1      33.156  21.325 -19.415  0.00  0.00     0.000 C 
ENDBRANCH  10  31
TORSDOF 4
ENDMDL
