MODEL 1
REMARK VINA RESULT:      29.3      0.000      0.000
REMARK  4 active torsions:
REMARK  status: ('A' for Active; 'I' for Inactive)
REMARK    1  A    between atoms: C_7  and  C_1 
REMARK    2  A    between atoms: C_9  and  C_3 
REMARK    3  A    between atoms: O_13  and  C_7 
REMARK    4  A    between atoms: C_18  and  O_13 
ROOT
ATOM      1  C   UNL d   1      14.186  13.311  -2.538  0.00  0.00     0.099 A 
ATOM      2  C   UNL d   1      13.958  13.558  -3.276  0.00  0.00     0.093 A 
ATOM      3  C   UNL d   1      13.987  12.535  -2.275  0.00  0.00     0.093 A 
ATOM      4  C   UNL d   1      13.335  12.288  -3.508  0.00  0.00     0.369 A 
ATOM      5  N   UNL d   1      13.522  13.037  -3.776  0.00  0.00    -0.191 NA
ATOM      6  N   UNL d   1      13.569  12.034  -2.751  0.00  0.00    -0.191 NA
ATOM      7  O   UNL d   1      12.902  11.784  -4.020  0.00  0.00    -0.242 OA
ATOM      8  C   UNL d   1      14.147  14.312  -3.543  0.00  0.00     0.021 C 
ENDROOT
BRANCH   3   9
ATOM      9  C   UNL d   1      14.222  12.281  -1.514  0.00  0.00     0.018 A 
ATOM     10  C   UNL d   1      15.015  12.029  -1.387  0.00  0.00     0.002 A 
ATOM     11  C   UNL d   1      15.246  11.779  -0.640  0.00  0.00     0.000 A 
ATOM     12  C   UNL d   1      14.686  11.779  -0.014  0.00  0.00     0.000 A 
ATOM     13  C   UNL d   1      13.921  12.024  -0.148  0.00  0.00     0.000 A 
ATOM     14  C   UNL d   1      13.687  12.278  -0.905  0.00  0.00     0.002 A 
ENDBRANCH   3   9
BRANCH   1  15
ATOM     15  C   UNL d   1      14.620  13.826  -2.039  0.00  0.00     0.303 C 
ATOM     16  O   UNL d   1      15.406  13.669  -1.849  0.00  0.00    -0.259 OA
BRANCH  15  17
ATOM     17  O   UNL d   1      14.250  14.485  -1.743  0.00  0.00    -0.271 OA
BRANCH  17  18
ATOM     18  C   UNL d   1      14.702  15.128  -1.489  0.00  0.00     0.126 C 
ATOM     19  C   UNL d   1      14.568  15.460  -0.763  0.00  0.00     0.029 C 
ENDBRANCH  17  18
ENDBRANCH  15  17
ENDBRANCH   1  15
TORSDOF 4
ENDMDL
MODEL 2
REMARK VINA RESULT:      32.0      1.341      3.054
REMARK  4 active torsions:
REMARK  status: ('A' for Active; 'I' for Inactive)
REMARK    1  A    between atoms: C_7  and  C_1 
REMARK    2  A    between atoms: C_9  and  C_3 
REMARK    3  A    between atoms: O_13  and  C_7 
REMARK    4  A    between atoms: C_18  and  O_13 
ROOT
ATOM      1  C   UNL d   1      14.247  13.197  -2.009  0.00  0.00     0.099 A 
ATOM      2  C   UNL d   1      14.636  13.648  -1.458  0.00  0.00     0.093 A 
ATOM      3  C   UNL d   1      14.017  13.539  -2.745  0.00  0.00     0.093 A 
ATOM      4  C   UNL d   1      14.581  14.776  -2.342  0.00  0.00     0.369 A 
ATOM      5  N   UNL d   1      14.809  14.457  -1.625  0.00  0.00    -0.191 NA
ATOM      6  N   UNL d   1      14.181  14.313  -2.907  0.00  0.00    -0.191 NA
ATOM      7  O   UNL d   1      14.761  15.581  -2.490  0.00  0.00    -0.242 OA
ATOM      8  C   UNL d   1      14.865  13.325  -0.738  0.00  0.00     0.021 C 
ENDROOT
BRANCH   3   9
ATOM      9  C   UNL d   1      13.616  13.074  -3.312  0.00  0.00     0.018 A 
ATOM     10  C   UNL d   1      13.677  12.236  -3.280  0.00  0.00     0.002 A 
ATOM     11  C   UNL d   1      13.283  11.779  -3.837  0.00  0.00     0.000 A 
ATOM     12  C   UNL d   1      12.825  12.158  -4.431  0.00  0.00     0.000 A 
ATOM     13  C   UNL d   1      12.774  12.970  -4.453  0.00  0.00     0.000 A 
ATOM     14  C   UNL d   1      13.173  13.433  -3.888  0.00  0.00     0.002 A 
ENDBRANCH   3   9
BRANCH   1  15
ATOM     15  C   UNL d   1      14.074  12.393  -1.847  0.00  0.00     0.303 C 
ATOM     16  O   UNL d   1      14.569  11.791  -2.114  0.00  0.00    -0.259 OA
BRANCH  15  17
ATOM     17  O   UNL d   1      13.407  12.217  -1.420  0.00  0.00    -0.271 OA
BRANCH  17  18
ATOM     18  C   UNL d   1      13.472  11.779  -0.722  0.00  0.00     0.126 C 
ATOM     19  C   UNL d   1      12.988  11.939  -0.094  0.00  0.00     0.029 C 
ENDBRANCH  17  18
ENDBRANCH  15  17
ENDBRANCH   1  15
TORSDOF 4
ENDMDL
