MODEL 1
REMARK VINA RESULT:      30.9      0.000      0.000
REMARK  2 active torsions:
REMARK  status: ('A' for Active; 'I' for Inactive)
REMARK    1  A    between atoms: C_4  and  C_1 
REMARK    2  A    between atoms: N_2  and  C_9 
REMARK       I    between atoms: N_7  and  C_4 
ROOT
ATOM      1  C   UNL d   1      14.367  12.997  -1.749  0.00  0.00     0.086 A 
ATOM      2  S   UNL d   1      14.039  12.287  -1.908  0.00  0.00    -0.082 SA
ATOM      3  C   UNL d   1      14.279  13.506  -2.378  0.00  0.00     0.012 A 
ATOM      4  C   UNL d   1      13.872  13.094  -2.970  0.00  0.00     0.008 A 
ATOM      5  C   UNL d   1      13.723  12.337  -2.678  0.00  0.00     0.030 A 
ATOM      6  C   UNL d   1      13.215  12.751  -4.194  0.00  0.00     0.127 A 
ATOM      7  C   UNL d   1      13.620  13.294  -3.718  0.00  0.00     0.024 A 
ATOM      8  C   UNL d   1      13.322  11.780  -3.133  0.00  0.00     0.008 A 
ATOM      9  C   UNL d   1      13.066  11.994  -3.902  0.00  0.00     0.024 A 
ENDROOT
BRANCH   1  10
ATOM     10  C   UNL d   1      14.751  13.184  -1.021  0.00  0.00     0.271 C 
ATOM     11  N   UNL d   1      15.017  13.938  -0.873  0.00  0.00    -0.272 N 
ATOM     12  C   UNL d   1      14.910  14.528  -1.440  0.00  0.00     0.083 A 
ATOM     13  C   UNL d   1      15.397  14.123  -0.153  0.00  0.00     0.083 A 
ATOM     14  C   UNL d   1      15.174  15.296  -1.304  0.00  0.00     0.019 A 
ATOM     15  C   UNL d   1      15.550  15.482  -0.593  0.00  0.00     0.003 A 
ATOM     16  C   UNL d   1      15.662  14.895  -0.018  0.00  0.00     0.019 A 
ATOM     17  O   UNL d   1      14.851  12.583  -0.463  0.00  0.00    -0.266 OA
ENDBRANCH   1  10
BRANCH   6  18
ATOM     18  N   UNL d   1      12.958  12.964  -4.964  0.00  0.00    -0.114 N 
ATOM     19  O   UNL d   1      12.897  12.375  -5.557  0.00  0.00    -0.532 OA
ATOM     20  O   UNL d   1      12.769  13.742  -5.134  0.00  0.00    -0.532 OA
ENDBRANCH   6  18
TORSDOF 2
ENDMDL
