MODEL 1
REMARK VINA RESULT:      32.2      0.000      0.000
REMARK  5 active torsions:
REMARK  status: ('A' for Active; 'I' for Inactive)
REMARK    1  A    between atoms: N_12  and  C_5 
REMARK    2  A    between atoms: C_17  and  N_12 
REMARK    3  A    between atoms: C_19  and  C_17 
REMARK    4  A    between atoms: C_18  and  C_20 
REMARK    5  A    between atoms: C_20  and  C_19 
ROOT
ATOM      1  C   UNL d   1     -50.694  25.279  33.345  0.00  0.00     0.159 A 
ATOM      2  N   UNL d   1     -51.507  25.139  33.353  0.00  0.00    -0.275 N 
ATOM      3  C   UNL d   1     -50.165  24.635  33.349  0.00  0.00     0.103 A 
ATOM      4  N   UNL d   1     -50.408  26.053  33.334  0.00  0.00    -0.226 NA
ATOM      5  C   UNL d   1     -51.796  24.355  33.364  0.00  0.00     0.149 A 
ATOM      6  C   UNL d   1     -50.451  23.860  33.360  0.00  0.00     0.016 A 
ATOM      7  C   UNL d   1     -51.264  23.721  33.368  0.00  0.00     0.038 A 
ATOM      8  C   UNL d   1     -51.750  26.554  33.339  0.00  0.00     0.084 A 
ATOM      9  C   UNL d   1     -50.936  26.693  33.331  0.00  0.00     0.099 A 
ATOM     10  C   UNL d   1     -49.352  24.774  33.341  0.00  0.00     0.104 C 
ATOM     11  N   UNL d   1     -48.538  24.913  33.333  0.00  0.00    -0.191 NA
ATOM     12  C   UNL d   1     -49.923  23.225  33.363  0.00  0.00     0.001 C 
ATOM     13  C   UNL d   1     -52.283  27.197  33.335  0.00  0.00     0.019 A 
ATOM     14  C   UNL d   1     -50.652  27.476  33.320  0.00  0.00     0.021 A 
ATOM     15  C   UNL d   1     -51.991  27.963  33.324  0.00  0.00     0.002 A 
ATOM     16  C   UNL d   1     -51.178  28.102  33.317  0.00  0.00     0.002 A 
ENDROOT
BRANCH   5  17
ATOM     17  N   UNL d   1     -52.609  24.216  33.372  0.00  0.00    -0.227 NA
BRANCH  17  18
ATOM     18  C   UNL d   1     -52.894  23.443  33.421  0.00  0.00     0.101 C 
BRANCH  18  19
ATOM     19  C   UNL d   1     -53.636  23.298  33.752  0.00  0.00     0.024 C 
BRANCH  19  20
ATOM     20  C   UNL d   1     -53.738  23.340  34.571  0.00  0.00     0.047 C 
BRANCH  20  21
ATOM     21  C   UNL d   1     -54.496  23.291  34.895  0.00  0.00     0.234 C 
ATOM     22  O   UNL d   1     -54.590  23.193  35.709  0.00  0.00    -0.283 OA
ENDBRANCH  20  21
ENDBRANCH  19  20
ENDBRANCH  18  19
ENDBRANCH  17  18
ENDBRANCH   5  17
TORSDOF 5
ENDMDL
