MODEL 1
REMARK VINA RESULT:      -6.7      0.000      0.000
REMARK  6 active torsions:
REMARK  status: ('A' for Active; 'I' for Inactive)
REMARK    1  A    between atoms: C_8  and  C_1 
REMARK    2  A    between atoms: C_13  and  N_2 
REMARK    3  A    between atoms: C_7  and  C_4 
REMARK    4  A    between atoms: C_6  and  C_8 
REMARK    5  A    between atoms: C_21  and  C_13 
REMARK    6  A    between atoms: N_22  and  C_21 
ROOT
ATOM      1  C   UNL d   1      52.900  32.210  53.000  0.00  0.00     0.103 A 
ATOM      2  N   UNL d   1      53.211  31.066  53.610  0.00  0.00    -0.267 N 
ATOM      3  C   UNL d   1      52.507  31.597  52.609  0.00  0.00     0.256 A 
ATOM      4  C   UNL d   1      53.332  31.881  53.615  0.00  0.00     0.096 A 
ATOM      5  C   UNL d   1      52.700  30.888  52.987  0.00  0.00     0.304 A 
ATOM      6  O   UNL d   1      52.424  30.138  52.772  0.00  0.00    -0.263 OA
ATOM      7  O   UNL d   1      52.006  31.674  51.952  0.00  0.00    -0.281 OA
ENDROOT
BRANCH   1   8
ATOM      8  C   UNL d   1      52.862  33.007  52.804  0.00  0.00     0.223 C 
ATOM      9  O   UNL d   1      53.548  33.412  52.578  0.00  0.00    -0.284 OA
BRANCH   8  10
ATOM     10  C   UNL d   1      52.144  33.417  52.828  0.00  0.00     0.139 A 
ATOM     11  O   UNL d   1      51.674  33.546  53.495  0.00  0.00    -0.304 OA
ATOM     12  C   UNL d   1      51.013  33.978  53.258  0.00  0.00     0.100 A 
ATOM     13  C   UNL d   1      50.369  34.262  53.676  0.00  0.00     0.025 A 
ATOM     14  C   UNL d   1      51.071  34.116  52.453  0.00  0.00     0.025 A 
ATOM     15  C   UNL d   1      49.783  34.682  53.290  0.00  0.00     0.002 A 
ATOM     16  C   UNL d   1      49.841  34.820  52.484  0.00  0.00     0.000 A 
ATOM     17  C   UNL d   1      50.484  34.539  52.062  0.00  0.00     0.002 A 
ATOM     18  C   UNL d   1      51.774  33.767  52.188  0.00  0.00     0.030 A 
ENDBRANCH   8  10
ENDBRANCH   1   8
BRANCH   4  19
ATOM     19  C   UNL d   1      53.813  32.303  54.153  0.00  0.00     0.116 A 
ATOM     20  O   UNL d   1      53.653  32.597  54.905  0.00  0.00    -0.306 OA
ATOM     21  C   UNL d   1      54.328  32.967  55.182  0.00  0.00     0.100 A 
ATOM     22  C   UNL d   1      54.417  33.340  55.914  0.00  0.00     0.027 C 
ATOM     23  C   UNL d   1      54.915  32.908  54.606  0.00  0.00     0.027 A 
ATOM     24  C   UNL d   1      54.593  32.493  53.962  0.00  0.00     0.028 A 
ENDBRANCH   4  19
BRANCH   2  25
ATOM     25  C   UNL d   1      53.539  30.517  54.133  0.00  0.00     0.102 C 
BRANCH  25  26
ATOM     26  C   UNL d   1      53.181  29.777  54.233  0.00  0.00     0.100 C 
BRANCH  26  27
ATOM     27  N   UNL d   1      53.484  29.237  54.783  0.00  0.00    -0.299 N 
ATOM     28  C   UNL d   1      53.217  29.254  55.564  0.00  0.00     0.100 C 
ATOM     29  C   UNL d   1      54.048  28.689  54.545  0.00  0.00     0.100 C 
ENDBRANCH  26  27
ENDBRANCH  25  26
ENDBRANCH   2  25
TORSDOF 6
ENDMDL
MODEL 2
REMARK VINA RESULT:      -6.4      1.615      4.442
REMARK  6 active torsions:
REMARK  status: ('A' for Active; 'I' for Inactive)
REMARK    1  A    between atoms: C_8  and  C_1 
REMARK    2  A    between atoms: C_13  and  N_2 
REMARK    3  A    between atoms: C_7  and  C_4 
REMARK    4  A    between atoms: C_6  and  C_8 
REMARK    5  A    between atoms: C_21  and  C_13 
REMARK    6  A    between atoms: N_22  and  C_21 
ROOT
ATOM      1  C   UNL d   1      53.474  32.465  53.281  0.00  0.00     0.103 A 
ATOM      2  N   UNL d   1      53.543  33.720  53.728  0.00  0.00    -0.267 N 
ATOM      3  C   UNL d   1      54.246  32.602  53.543  0.00  0.00     0.256 A 
ATOM      4  C   UNL d   1      53.044  33.154  53.396  0.00  0.00     0.096 A 
ATOM      5  C   UNL d   1      54.289  33.379  53.819  0.00  0.00     0.304 A 
ATOM      6  O   UNL d   1      54.964  33.743  54.132  0.00  0.00    -0.263 OA
ATOM      7  O   UNL d   1      54.872  32.058  53.532  0.00  0.00    -0.281 OA
ENDROOT
BRANCH   1   8
ATOM      8  C   UNL d   1      53.192  31.763  52.963  0.00  0.00     0.223 C 
ATOM      9  O   UNL d   1      52.894  31.747  52.190  0.00  0.00    -0.284 OA
BRANCH   8  10
ATOM     10  C   UNL d   1      53.200  31.063  53.404  0.00  0.00     0.139 A 
ATOM     11  O   UNL d   1      53.121  30.998  54.224  0.00  0.00    -0.304 OA
ATOM     12  C   UNL d   1      53.161  30.198  54.419  0.00  0.00     0.100 A 
ATOM     13  C   UNL d   1      53.117  29.809  55.138  0.00  0.00     0.025 A 
ATOM     14  C   UNL d   1      53.265  29.770  53.728  0.00  0.00     0.025 A 
ATOM     15  C   UNL d   1      53.176  28.995  55.166  0.00  0.00     0.002 A 
ATOM     16  C   UNL d   1      53.279  28.566  54.476  0.00  0.00     0.000 A 
ATOM     17  C   UNL d   1      53.324  28.950  53.754  0.00  0.00     0.002 A 
ATOM     18  C   UNL d   1      53.288  30.309  53.099  0.00  0.00     0.030 A 
ENDBRANCH   8  10
ENDBRANCH   1   8
BRANCH   4  19
ATOM     19  C   UNL d   1      52.236  33.261  53.207  0.00  0.00     0.116 A 
ATOM     20  O   UNL d   1      51.554  33.106  53.641  0.00  0.00    -0.306 OA
ATOM     21  C   UNL d   1      50.910  33.317  53.185  0.00  0.00     0.100 A 
ATOM     22  C   UNL d   1      50.115  33.256  53.402  0.00  0.00     0.027 C 
ATOM     23  C   UNL d   1      51.182  33.607  52.463  0.00  0.00     0.027 A 
ATOM     24  C   UNL d   1      52.012  33.572  52.476  0.00  0.00     0.028 A 
ENDBRANCH   4  19
BRANCH   2  25
ATOM     25  C   UNL d   1      53.340  34.494  53.935  0.00  0.00     0.102 C 
BRANCH  25  26
ATOM     26  C   UNL d   1      53.576  34.801  54.667  0.00  0.00     0.100 C 
BRANCH  26  27
ATOM     27  N   UNL d   1      53.278  35.526  54.932  0.00  0.00    -0.299 N 
ATOM     28  C   UNL d   1      53.377  36.203  54.472  0.00  0.00     0.100 C 
ATOM     29  C   UNL d   1      52.885  35.563  55.653  0.00  0.00     0.100 C 
ENDBRANCH  26  27
ENDBRANCH  25  26
ENDBRANCH   2  25
TORSDOF 6
ENDMDL
MODEL 3
REMARK VINA RESULT:      -6.2      1.220      4.146
REMARK  6 active torsions:
REMARK  status: ('A' for Active; 'I' for Inactive)
REMARK    1  A    between atoms: C_8  and  C_1 
REMARK    2  A    between atoms: C_13  and  N_2 
REMARK    3  A    between atoms: C_7  and  C_4 
REMARK    4  A    between atoms: C_6  and  C_8 
REMARK    5  A    between atoms: C_21  and  C_13 
REMARK    6  A    between atoms: N_22  and  C_21 
ROOT
ATOM      1  C   UNL d   1      53.345  31.749  53.220  0.00  0.00     0.103 A 
ATOM      2  N   UNL d   1      52.635  32.879  53.210  0.00  0.00    -0.267 N 
ATOM      3  C   UNL d   1      52.697  31.640  52.719  0.00  0.00     0.256 A 
ATOM      4  C   UNL d   1      53.304  32.512  53.521  0.00  0.00     0.096 A 
ATOM      5  C   UNL d   1      52.257  32.339  52.713  0.00  0.00     0.304 A 
ATOM      6  O   UNL d   1      51.562  32.466  52.281  0.00  0.00    -0.263 OA
ATOM      7  O   UNL d   1      52.515  30.950  52.295  0.00  0.00    -0.281 OA
ENDROOT
BRANCH   1   8
ATOM      8  C   UNL d   1      53.925  31.192  53.386  0.00  0.00     0.223 C 
ATOM      9  O   UNL d   1      54.693  31.293  53.094  0.00  0.00    -0.284 OA
BRANCH   8  10
ATOM     10  C   UNL d   1      53.754  30.524  53.843  0.00  0.00     0.139 A 
ATOM     11  O   UNL d   1      53.376  30.514  54.577  0.00  0.00    -0.304 OA
ATOM     12  C   UNL d   1      53.324  29.729  54.825  0.00  0.00     0.100 A 
ATOM     13  C   UNL d   1      53.009  29.391  55.500  0.00  0.00     0.025 A 
ATOM     14  C   UNL d   1      53.666  29.256  54.250  0.00  0.00     0.025 A 
ATOM     15  C   UNL d   1      53.035  28.580  55.601  0.00  0.00     0.002 A 
ATOM     16  C   UNL d   1      53.377  28.106  55.027  0.00  0.00     0.000 A 
ATOM     17  C   UNL d   1      53.694  28.440  54.350  0.00  0.00     0.002 A 
ATOM     18  C   UNL d   1      53.932  29.751  53.642  0.00  0.00     0.030 A 
ENDBRANCH   8  10
ENDBRANCH   1   8
BRANCH   4  19
ATOM     19  C   UNL d   1      53.851  32.856  54.051  0.00  0.00     0.116 A 
ATOM     20  O   UNL d   1      53.843  32.916  54.872  0.00  0.00    -0.306 OA
ATOM     21  C   UNL d   1      54.522  33.309  55.104  0.00  0.00     0.100 A 
ATOM     22  C   UNL d   1      54.741  33.491  55.880  0.00  0.00     0.027 C 
ATOM     23  C   UNL d   1      54.960  33.498  54.432  0.00  0.00     0.027 A 
ATOM     24  C   UNL d   1      54.540  33.215  53.773  0.00  0.00     0.028 A 
ENDBRANCH   4  19
BRANCH   2  25
ATOM     25  C   UNL d   1      52.380  33.649  53.363  0.00  0.00     0.102 C 
BRANCH  25  26
ATOM     26  C   UNL d   1      51.621  33.887  53.133  0.00  0.00     0.100 C 
BRANCH  26  27
ATOM     27  N   UNL d   1      51.323  34.623  53.368  0.00  0.00    -0.299 N 
ATOM     28  C   UNL d   1      51.845  35.235  53.553  0.00  0.00     0.100 C 
ATOM     29  C   UNL d   1      50.511  34.735  53.414  0.00  0.00     0.100 C 
ENDBRANCH  26  27
ENDBRANCH  25  26
ENDBRANCH   2  25
TORSDOF 6
ENDMDL
MODEL 4
REMARK VINA RESULT:      -6.0      1.727      3.044
REMARK  6 active torsions:
REMARK  status: ('A' for Active; 'I' for Inactive)
REMARK    1  A    between atoms: C_8  and  C_1 
REMARK    2  A    between atoms: C_13  and  N_2 
REMARK    3  A    between atoms: C_7  and  C_4 
REMARK    4  A    between atoms: C_6  and  C_8 
REMARK    5  A    between atoms: C_21  and  C_13 
REMARK    6  A    between atoms: N_22  and  C_21 
ROOT
ATOM      1  C   UNL d   1      52.235  34.180  52.923  0.00  0.00     0.103 A 
ATOM      2  N   UNL d   1      53.027  33.963  53.975  0.00  0.00    -0.267 N 
ATOM      3  C   UNL d   1      52.454  34.914  53.235  0.00  0.00     0.256 A 
ATOM      4  C   UNL d   1      52.589  33.598  53.380  0.00  0.00     0.096 A 
ATOM      5  C   UNL d   1      52.944  34.780  53.886  0.00  0.00     0.304 A 
ATOM      6  O   UNL d   1      53.287  35.367  54.359  0.00  0.00    -0.263 OA
ATOM      7  O   UNL d   1      52.224  35.658  52.947  0.00  0.00    -0.281 OA
ENDROOT
BRANCH   1   8
ATOM      8  C   UNL d   1      51.749  34.060  52.272  0.00  0.00     0.223 C 
ATOM      9  O   UNL d   1      52.050  33.695  51.592  0.00  0.00    -0.284 OA
BRANCH   8  10
ATOM     10  C   UNL d   1      50.958  34.299  52.282  0.00  0.00     0.139 A 
ATOM     11  O   UNL d   1      50.535  34.573  52.937  0.00  0.00    -0.304 OA
ATOM     12  C   UNL d   1      49.768  34.747  52.689  0.00  0.00     0.100 A 
ATOM     13  C   UNL d   1      49.116  35.033  53.092  0.00  0.00     0.025 A 
ATOM     14  C   UNL d   1      49.715  34.582  51.888  0.00  0.00     0.025 A 
ATOM     15  C   UNL d   1      48.412  35.155  52.697  0.00  0.00     0.002 A 
ATOM     16  C   UNL d   1      48.357  34.990  51.896  0.00  0.00     0.000 A 
ATOM     17  C   UNL d   1      49.006  34.704  51.488  0.00  0.00     0.002 A 
ATOM     18  C   UNL d   1      50.454  34.305  51.638  0.00  0.00     0.030 A 
ENDBRANCH   8  10
ENDBRANCH   1   8
BRANCH   4  19
ATOM     19  C   UNL d   1      52.515  32.774  53.260  0.00  0.00     0.116 A 
ATOM     20  O   UNL d   1      52.947  32.255  52.790  0.00  0.00    -0.306 OA
ATOM     21  C   UNL d   1      52.634  31.505  52.884  0.00  0.00     0.100 A 
ATOM     22  C   UNL d   1      52.897  30.814  52.515  0.00  0.00     0.027 C 
ATOM     23  C   UNL d   1      52.004  31.549  53.414  0.00  0.00     0.027 A 
ATOM     24  C   UNL d   1      51.929  32.342  53.650  0.00  0.00     0.028 A 
ENDBRANCH   4  19
BRANCH   2  25
ATOM     25  C   UNL d   1      53.472  33.588  54.560  0.00  0.00     0.102 C 
BRANCH  25  26
ATOM     26  C   UNL d   1      54.124  33.973  54.895  0.00  0.00     0.100 C 
BRANCH  26  27
ATOM     27  N   UNL d   1      54.708  33.541  55.291  0.00  0.00    -0.299 N 
ATOM     28  C   UNL d   1      54.490  32.992  55.868  0.00  0.00     0.100 C 
ATOM     29  C   UNL d   1      55.499  33.663  55.106  0.00  0.00     0.100 C 
ENDBRANCH  26  27
ENDBRANCH  25  26
ENDBRANCH   2  25
TORSDOF 6
ENDMDL
MODEL 5
REMARK VINA RESULT:      -4.6      1.394      4.123
REMARK  6 active torsions:
REMARK  status: ('A' for Active; 'I' for Inactive)
REMARK    1  A    between atoms: C_8  and  C_1 
REMARK    2  A    between atoms: C_13  and  N_2 
REMARK    3  A    between atoms: C_7  and  C_4 
REMARK    4  A    between atoms: C_6  and  C_8 
REMARK    5  A    between atoms: C_21  and  C_13 
REMARK    6  A    between atoms: N_22  and  C_21 
ROOT
ATOM      1  C   UNL d   1      52.895  32.393  53.145  0.00  0.00     0.103 A 
ATOM      2  N   UNL d   1      51.925  33.297  53.003  0.00  0.00    -0.267 N 
ATOM      3  C   UNL d   1      52.360  32.108  52.583  0.00  0.00     0.256 A 
ATOM      4  C   UNL d   1      52.625  33.124  53.402  0.00  0.00     0.096 A 
ATOM      5  C   UNL d   1      51.759  32.667  52.495  0.00  0.00     0.304 A 
ATOM      6  O   UNL d   1      51.110  32.600  51.986  0.00  0.00    -0.263 OA
ATOM      7  O   UNL d   1      52.413  31.386  52.176  0.00  0.00    -0.281 OA
ENDROOT
BRANCH   1   8
ATOM      8  C   UNL d   1      53.576  32.009  53.399  0.00  0.00     0.223 C 
ATOM      9  O   UNL d   1      54.315  32.368  53.301  0.00  0.00    -0.284 OA
BRANCH   8  10
ATOM     10  C   UNL d   1      53.535  31.264  53.755  0.00  0.00     0.139 A 
ATOM     11  O   UNL d   1      53.271  31.097  54.520  0.00  0.00    -0.304 OA
ATOM     12  C   UNL d   1      53.328  30.283  54.636  0.00  0.00     0.100 A 
ATOM     13  C   UNL d   1      53.147  29.810  55.279  0.00  0.00     0.025 A 
ATOM     14  C   UNL d   1      53.625  29.947  53.950  0.00  0.00     0.025 A 
ATOM     15  C   UNL d   1      53.262  29.002  55.237  0.00  0.00     0.002 A 
ATOM     16  C   UNL d   1      53.559  28.664  54.552  0.00  0.00     0.000 A 
ATOM     17  C   UNL d   1      53.742  29.134  53.906  0.00  0.00     0.002 A 
ATOM     18  C   UNL d   1      53.753  30.557  53.405  0.00  0.00     0.030 A 
ENDBRANCH   8  10
ENDBRANCH   1   8
BRANCH   4  19
ATOM     19  C   UNL d   1      52.999  33.609  53.971  0.00  0.00     0.116 A 
ATOM     20  O   UNL d   1      52.951  33.614  54.793  0.00  0.00    -0.306 OA
ATOM     21  C   UNL d   1      53.437  34.209  55.072  0.00  0.00     0.100 A 
ATOM     22  C   UNL d   1      53.558  34.412  55.864  0.00  0.00     0.027 C 
ATOM     23  C   UNL d   1      53.793  34.582  54.428  0.00  0.00     0.027 A 
ATOM     24  C   UNL d   1      53.519  34.207  53.739  0.00  0.00     0.028 A 
ENDBRANCH   4  19
BRANCH   2  25
ATOM     25  C   UNL d   1      51.463  33.976  53.090  0.00  0.00     0.102 C 
BRANCH  25  26
ATOM     26  C   UNL d   1      50.640  33.930  53.015  0.00  0.00     0.100 C 
BRANCH  26  27
ATOM     27  N   UNL d   1      50.178  34.616  53.042  0.00  0.00    -0.299 N 
ATOM     28  C   UNL d   1      50.082  35.018  53.756  0.00  0.00     0.100 C 
ATOM     29  C   UNL d   1      49.819  34.891  52.355  0.00  0.00     0.100 C 
ENDBRANCH  26  27
ENDBRANCH  25  26
ENDBRANCH   2  25
TORSDOF 6
ENDMDL
