MODEL 1
REMARK VINA RESULT:      -7.4      0.000      0.000
REMARK  3 active torsions:
REMARK  status: ('A' for Active; 'I' for Inactive)
REMARK    1  A    between atoms: C_10  and  C_5 
REMARK    2  A    between atoms: S_9  and  C_10 
REMARK    3  A    between atoms: C_11  and  S_9 
ROOT
ATOM      1  C   UNL d   1      52.882  30.578  52.952  0.00  0.00     0.179 A 
ATOM      2  N   UNL d   1      53.238  30.455  53.682  0.00  0.00    -0.283 N 
ATOM      3  N   UNL d   1      52.893  31.380  52.804  0.00  0.00    -0.220 NA
ATOM      4  S   UNL d   1      52.658  29.851  52.661  0.00  0.00    -0.048 SA
ATOM      5  C   UNL d   1      53.252  31.759  53.435  0.00  0.00     0.107 A 
ATOM      6  C   UNL d   1      53.467  31.182  53.980  0.00  0.00     0.102 A 
ATOM      7  C   UNL d   1      53.231  29.652  53.837  0.00  0.00     0.073 A 
ATOM      8  C   UNL d   1      52.873  29.293  53.204  0.00  0.00     0.056 A 
ATOM      9  C   UNL d   1      53.537  29.282  54.519  0.00  0.00     0.020 C 
ENDROOT
BRANCH   5  10
ATOM     10  C   UNL d   1      53.372  32.583  53.498  0.00  0.00     0.056 C 
BRANCH  10  11
ATOM     11  S   UNL d   1      52.726  33.058  53.685  0.00  0.00    -0.085 SA
BRANCH  11  12
ATOM     12  C   UNL d   1      52.851  33.842  53.900  0.00  0.00     0.030 A 
ATOM     13  C   UNL d   1      53.161  34.033  54.650  0.00  0.00     0.007 A 
ATOM     14  C   UNL d   1      53.285  34.813  54.863  0.00  0.00     0.012 A 
ATOM     15  C   UNL d   1      53.100  35.416  54.332  0.00  0.00     0.058 A 
ATOM     16  C   UNL d   1      52.791  35.242  53.584  0.00  0.00     0.012 A 
ATOM     17 CL   UNL d   1      53.218  36.197  54.530  0.00  0.00    -0.082 Cl
ATOM     18  C   UNL d   1      52.664  34.442  53.365  0.00  0.00     0.007 A 
ENDBRANCH  11  12
ENDBRANCH  10  11
ENDBRANCH   5  10
TORSDOF 3
ENDMDL
MODEL 2
REMARK VINA RESULT:      -7.1      2.537      3.425
REMARK  3 active torsions:
REMARK  status: ('A' for Active; 'I' for Inactive)
REMARK    1  A    between atoms: C_10  and  C_5 
REMARK    2  A    between atoms: S_9  and  C_10 
REMARK    3  A    between atoms: C_11  and  S_9 
ROOT
ATOM      1  C   UNL d   1      53.356  32.598  53.581  0.00  0.00     0.179 A 
ATOM      2  N   UNL d   1      53.363  33.222  54.115  0.00  0.00    -0.283 N 
ATOM      3  N   UNL d   1      52.640  32.614  53.191  0.00  0.00    -0.220 NA
ATOM      4  S   UNL d   1      54.068  32.206  53.649  0.00  0.00    -0.048 SA
ATOM      5  C   UNL d   1      52.199  33.243  53.477  0.00  0.00     0.107 A 
ATOM      6  C   UNL d   1      52.651  33.619  54.052  0.00  0.00     0.102 A 
ATOM      7  C   UNL d   1      54.079  33.211  54.511  0.00  0.00     0.073 A 
ATOM      8  C   UNL d   1      54.501  32.585  54.216  0.00  0.00     0.056 A 
ATOM      9  C   UNL d   1      54.319  33.747  55.103  0.00  0.00     0.020 C 
ENDROOT
BRANCH   5  10
ATOM     10  C   UNL d   1      51.433  33.449  53.220  0.00  0.00     0.056 C 
BRANCH  10  11
ATOM     11  S   UNL d   1      51.334  34.161  52.818  0.00  0.00    -0.085 SA
BRANCH  11  12
ATOM     12  C   UNL d   1      50.599  34.346  52.499  0.00  0.00     0.030 A 
ATOM     13  C   UNL d   1      50.009  34.700  52.969  0.00  0.00     0.007 A 
ATOM     14  C   UNL d   1      49.278  34.884  52.652  0.00  0.00     0.012 A 
ATOM     15  C   UNL d   1      49.123  34.718  51.858  0.00  0.00     0.058 A 
ATOM     16  C   UNL d   1      49.699  34.367  51.379  0.00  0.00     0.012 A 
ATOM     17 CL   UNL d   1      48.401  34.896  51.528  0.00  0.00    -0.082 Cl
ATOM     18  C   UNL d   1      50.449  34.178  51.704  0.00  0.00     0.007 A 
ENDBRANCH  11  12
ENDBRANCH  10  11
ENDBRANCH   5  10
TORSDOF 3
ENDMDL
MODEL 3
REMARK VINA RESULT:      -7.0      2.627      3.578
REMARK  3 active torsions:
REMARK  status: ('A' for Active; 'I' for Inactive)
REMARK    1  A    between atoms: C_10  and  C_5 
REMARK    2  A    between atoms: S_9  and  C_10 
REMARK    3  A    between atoms: C_11  and  S_9 
ROOT
ATOM      1  C   UNL d   1      53.415  33.860  54.327  0.00  0.00     0.179 A 
ATOM      2  N   UNL d   1      53.339  33.147  53.925  0.00  0.00    -0.283 N 
ATOM      3  N   UNL d   1      52.840  34.365  54.046  0.00  0.00    -0.220 NA
ATOM      4  S   UNL d   1      54.036  33.783  54.850  0.00  0.00    -0.048 SA
ATOM      5  C   UNL d   1      52.404  33.975  53.472  0.00  0.00     0.107 A 
ATOM      6  C   UNL d   1      52.717  33.217  53.398  0.00  0.00     0.102 A 
ATOM      7  C   UNL d   1      53.913  32.635  54.201  0.00  0.00     0.073 A 
ATOM      8  C   UNL d   1      54.334  33.037  54.767  0.00  0.00     0.056 A 
ATOM      9  C   UNL d   1      54.036  31.852  53.945  0.00  0.00     0.020 C 
ENDROOT
BRANCH   5  10
ATOM     10  C   UNL d   1      51.764  34.301  53.049  0.00  0.00     0.056 C 
BRANCH  10  11
ATOM     11  S   UNL d   1      51.049  33.892  53.046  0.00  0.00    -0.085 SA
BRANCH  11  12
ATOM     12  C   UNL d   1      50.403  34.211  52.649  0.00  0.00     0.030 A 
ATOM     13  C   UNL d   1      49.849  34.686  53.052  0.00  0.00     0.007 A 
ATOM     14  C   UNL d   1      49.207  35.003  52.657  0.00  0.00     0.012 A 
ATOM     15  C   UNL d   1      49.106  34.851  51.853  0.00  0.00     0.058 A 
ATOM     16  C   UNL d   1      49.647  34.381  51.440  0.00  0.00     0.012 A 
ATOM     17 CL   UNL d   1      48.471  35.159  51.447  0.00  0.00    -0.082 Cl
ATOM     18  C   UNL d   1      50.306  34.055  51.844  0.00  0.00     0.007 A 
ENDBRANCH  11  12
ENDBRANCH  10  11
ENDBRANCH   5  10
TORSDOF 3
ENDMDL
MODEL 4
REMARK VINA RESULT:      -6.7      2.156      4.474
REMARK  3 active torsions:
REMARK  status: ('A' for Active; 'I' for Inactive)
REMARK    1  A    between atoms: C_10  and  C_5 
REMARK    2  A    between atoms: S_9  and  C_10 
REMARK    3  A    between atoms: C_11  and  S_9 
ROOT
ATOM      1  C   UNL d   1      52.173  33.563  52.764  0.00  0.00     0.179 A 
ATOM      2  N   UNL d   1      52.671  33.853  53.351  0.00  0.00    -0.283 N 
ATOM      3  N   UNL d   1      52.331  32.768  52.677  0.00  0.00    -0.220 NA
ATOM      4  S   UNL d   1      51.716  34.184  52.499  0.00  0.00    -0.048 SA
ATOM      5  C   UNL d   1      52.923  32.558  53.203  0.00  0.00     0.107 A 
ATOM      6  C   UNL d   1      53.133  33.235  53.621  0.00  0.00     0.102 A 
ATOM      7  C   UNL d   1      52.517  34.651  53.444  0.00  0.00     0.073 A 
ATOM      8  C   UNL d   1      51.931  34.841  52.917  0.00  0.00     0.056 A 
ATOM      9  C   UNL d   1      52.897  35.163  53.981  0.00  0.00     0.020 C 
ENDROOT
BRANCH   5  10
ATOM     10  C   UNL d   1      53.244  31.792  53.287  0.00  0.00     0.056 C 
BRANCH  10  11
ATOM     11  S   UNL d   1      52.729  31.149  53.274  0.00  0.00    -0.085 SA
BRANCH  11  12
ATOM     12  C   UNL d   1      52.954  30.445  53.634  0.00  0.00     0.030 A 
ATOM     13  C   UNL d   1      53.054  30.403  54.460  0.00  0.00     0.007 A 
ATOM     14  C   UNL d   1      53.277  29.702  54.818  0.00  0.00     0.012 A 
ATOM     15  C   UNL d   1      53.404  29.030  54.356  0.00  0.00     0.058 A 
ATOM     16  C   UNL d   1      53.308  29.056  53.534  0.00  0.00     0.012 A 
ATOM     17 CL   UNL d   1      53.626  28.325  54.698  0.00  0.00    -0.082 Cl
ATOM     18  C   UNL d   1      53.079  29.775  53.167  0.00  0.00     0.007 A 
ENDBRANCH  11  12
ENDBRANCH  10  11
ENDBRANCH   5  10
TORSDOF 3
ENDMDL
MODEL 5
REMARK VINA RESULT:      -6.6      2.550      4.036
REMARK  3 active torsions:
REMARK  status: ('A' for Active; 'I' for Inactive)
REMARK    1  A    between atoms: C_10  and  C_5 
REMARK    2  A    between atoms: S_9  and  C_10 
REMARK    3  A    between atoms: C_11  and  S_9 
ROOT
ATOM      1  C   UNL d   1      50.527  34.223  52.014  0.00  0.00     0.179 A 
ATOM      2  N   UNL d   1      50.277  34.623  52.687  0.00  0.00    -0.283 N 
ATOM      3  N   UNL d   1      51.313  34.033  52.118  0.00  0.00    -0.220 NA
ATOM      4  S   UNL d   1      49.892  34.172  51.506  0.00  0.00    -0.048 SA
ATOM      5  C   UNL d   1      51.557  34.311  52.850  0.00  0.00     0.107 A 
ATOM      6  C   UNL d   1      50.910  34.678  53.202  0.00  0.00     0.102 A 
ATOM      7  C   UNL d   1      49.488  34.817  52.589  0.00  0.00     0.073 A 
ATOM      8  C   UNL d   1      49.264  34.535  51.862  0.00  0.00     0.056 A 
ATOM      9  C   UNL d   1      49.013  35.226  53.139  0.00  0.00     0.020 C 
ENDROOT
BRANCH   5  10
ATOM     10  C   UNL d   1      52.325  34.229  53.165  0.00  0.00     0.056 C 
BRANCH  10  11
ATOM     11  S   UNL d   1      52.453  33.649  53.735  0.00  0.00    -0.085 SA
BRANCH  11  12
ATOM     12  C   UNL d   1      53.177  33.617  54.123  0.00  0.00     0.030 A 
ATOM     13  C   UNL d   1      53.748  33.047  53.912  0.00  0.00     0.007 A 
ATOM     14  C   UNL d   1      54.468  33.016  54.299  0.00  0.00     0.012 A 
ATOM     15  C   UNL d   1      54.631  33.553  54.903  0.00  0.00     0.058 A 
ATOM     16  C   UNL d   1      54.074  34.125  55.123  0.00  0.00     0.012 A 
ATOM     17 CL   UNL d   1      55.343  33.534  55.297  0.00  0.00    -0.082 Cl
ATOM     18  C   UNL d   1      53.336  34.157  54.727  0.00  0.00     0.007 A 
ENDBRANCH  11  12
ENDBRANCH  10  11
ENDBRANCH   5  10
TORSDOF 3
ENDMDL
MODEL 6
REMARK VINA RESULT:      -6.2      3.522      5.054
REMARK  3 active torsions:
REMARK  status: ('A' for Active; 'I' for Inactive)
REMARK    1  A    between atoms: C_10  and  C_5 
REMARK    2  A    between atoms: S_9  and  C_10 
REMARK    3  A    between atoms: C_11  and  S_9 
ROOT
ATOM      1  C   UNL d   1      48.911  34.730  51.659  0.00  0.00     0.179 A 
ATOM      2  N   UNL d   1      48.731  35.191  52.316  0.00  0.00    -0.283 N 
ATOM      3  N   UNL d   1      49.599  34.324  51.823  0.00  0.00    -0.220 NA
ATOM      4  S   UNL d   1      48.331  34.859  51.101  0.00  0.00    -0.048 SA
ATOM      5  C   UNL d   1      49.851  34.527  52.576  0.00  0.00     0.107 A 
ATOM      6  C   UNL d   1      49.309  35.066  52.881  0.00  0.00     0.102 A 
ATOM      7  C   UNL d   1      48.041  35.601  52.158  0.00  0.00     0.073 A 
ATOM      8  C   UNL d   1      47.806  35.389  51.411  0.00  0.00     0.056 A 
ATOM      9  C   UNL d   1      47.660  36.134  52.674  0.00  0.00     0.020 C 
ENDROOT
BRANCH   5  10
ATOM     10  C   UNL d   1      50.535  34.231  52.951  0.00  0.00     0.056 C 
BRANCH  10  11
ATOM     11  S   UNL d   1      51.249  34.261  52.542  0.00  0.00    -0.085 SA
BRANCH  11  12
ATOM     12  C   UNL d   1      51.936  33.999  52.909  0.00  0.00     0.030 A 
ATOM     13  C   UNL d   1      52.137  33.190  52.908  0.00  0.00     0.007 A 
ATOM     14  C   UNL d   1      52.820  32.929  53.273  0.00  0.00     0.012 A 
ATOM     15  C   UNL d   1      53.316  33.472  53.646  0.00  0.00     0.058 A 
ATOM     16  C   UNL d   1      53.131  34.279  53.656  0.00  0.00     0.012 A 
ATOM     17 CL   UNL d   1      54.000  33.227  54.014  0.00  0.00    -0.082 Cl
ATOM     18  C   UNL d   1      52.429  34.546  53.282  0.00  0.00     0.007 A 
ENDBRANCH  11  12
ENDBRANCH  10  11
ENDBRANCH   5  10
TORSDOF 3
ENDMDL
MODEL 7
REMARK VINA RESULT:      -5.4     10.598     11.040
REMARK  3 active torsions:
REMARK  status: ('A' for Active; 'I' for Inactive)
REMARK    1  A    between atoms: C_10  and  C_5 
REMARK    2  A    between atoms: S_9  and  C_10 
REMARK    3  A    between atoms: C_11  and  S_9 
ROOT
ATOM      1  C   UNL d   1      44.473  31.004  61.457  0.00  0.00     0.179 A 
ATOM      2  N   UNL d   1      44.569  30.188  61.491  0.00  0.00    -0.283 N 
ATOM      3  N   UNL d   1      44.370  31.208  60.674  0.00  0.00    -0.220 NA
ATOM      4  S   UNL d   1      44.519  31.290  62.219  0.00  0.00    -0.048 SA
ATOM      5  C   UNL d   1      44.400  30.528  60.219  0.00  0.00     0.107 A 
ATOM      6  C   UNL d   1      44.524  29.894  60.729  0.00  0.00     0.102 A 
ATOM      7  C   UNL d   1      44.673  29.976  62.274  0.00  0.00     0.073 A 
ATOM      8  C   UNL d   1      44.641  30.659  62.709  0.00  0.00     0.056 A 
ATOM      9  C   UNL d   1      44.790  29.201  62.560  0.00  0.00     0.020 C 
ENDROOT
BRANCH   5  10
ATOM     10  C   UNL d   1      44.318  30.500  59.389  0.00  0.00     0.056 C 
BRANCH  10  11
ATOM     11  S   UNL d   1      44.978  30.303  58.937  0.00  0.00    -0.085 SA
BRANCH  11  12
ATOM     12  C   UNL d   1      44.897  30.206  58.125  0.00  0.00     0.030 A 
ATOM     13  C   UNL d   1      44.949  29.449  57.780  0.00  0.00     0.007 A 
ATOM     14  C   UNL d   1      44.869  29.352  56.972  0.00  0.00     0.012 A 
ATOM     15  C   UNL d   1      44.735  30.010  56.493  0.00  0.00     0.058 A 
ATOM     16  C   UNL d   1      44.681  30.768  56.821  0.00  0.00     0.012 A 
ATOM     17 CL   UNL d   1      44.653  29.930  55.687  0.00  0.00    -0.082 Cl
ATOM     18  C   UNL d   1      44.763  30.868  57.650  0.00  0.00     0.007 A 
ENDBRANCH  11  12
ENDBRANCH  10  11
ENDBRANCH   5  10
TORSDOF 3
ENDMDL
MODEL 8
REMARK VINA RESULT:      -5.3     10.449     10.758
REMARK  3 active torsions:
REMARK  status: ('A' for Active; 'I' for Inactive)
REMARK    1  A    between atoms: C_10  and  C_5 
REMARK    2  A    between atoms: S_9  and  C_10 
REMARK    3  A    between atoms: C_11  and  S_9 
ROOT
ATOM      1  C   UNL d   1      44.789  29.040  57.634  0.00  0.00     0.179 A 
ATOM      2  N   UNL d   1      44.549  29.800  57.431  0.00  0.00    -0.283 N 
ATOM      3  N   UNL d   1      44.731  28.971  58.444  0.00  0.00    -0.220 NA
ATOM      4  S   UNL d   1      44.992  28.654  56.945  0.00  0.00    -0.048 SA
ATOM      5  C   UNL d   1      44.456  29.680  58.750  0.00  0.00     0.107 A 
ATOM      6  C   UNL d   1      44.344  30.194  58.118  0.00  0.00     0.102 A 
ATOM      7  C   UNL d   1      44.605  29.877  56.619  0.00  0.00     0.073 A 
ATOM      8  C   UNL d   1      44.877  29.168  56.333  0.00  0.00     0.056 A 
ATOM      9  C   UNL d   1      44.416  30.559  56.177  0.00  0.00     0.020 C 
ENDROOT
BRANCH   5  10
ATOM     10  C   UNL d   1      44.321  29.835  59.558  0.00  0.00     0.056 C 
BRANCH  10  11
ATOM     11  S   UNL d   1      44.827  30.356  59.947  0.00  0.00    -0.085 SA
BRANCH  11  12
ATOM     12  C   UNL d   1      44.700  30.527  60.741  0.00  0.00     0.030 A 
ATOM     13  C   UNL d   1      44.825  29.946  61.325  0.00  0.00     0.007 A 
ATOM     14  C   UNL d   1      44.699  30.116  62.115  0.00  0.00     0.012 A 
ATOM     15  C   UNL d   1      44.444  30.869  62.335  0.00  0.00     0.058 A 
ATOM     16  C   UNL d   1      44.315  31.456  61.766  0.00  0.00     0.012 A 
ATOM     17 CL   UNL d   1      44.314  31.053  63.118  0.00  0.00    -0.082 Cl
ATOM     18  C   UNL d   1      44.445  31.282  60.956  0.00  0.00     0.007 A 
ENDBRANCH  11  12
ENDBRANCH  10  11
ENDBRANCH   5  10
TORSDOF 3
ENDMDL
MODEL 9
REMARK VINA RESULT:      -5.1     10.547     11.410
REMARK  3 active torsions:
REMARK  status: ('A' for Active; 'I' for Inactive)
REMARK    1  A    between atoms: C_10  and  C_5 
REMARK    2  A    between atoms: S_9  and  C_10 
REMARK    3  A    between atoms: C_11  and  S_9 
ROOT
ATOM      1  C   UNL d   1      44.343  30.615  60.534  0.00  0.00     0.179 A 
ATOM      2  N   UNL d   1      44.412  30.001  61.075  0.00  0.00    -0.283 N 
ATOM      3  N   UNL d   1      44.330  30.287  59.787  0.00  0.00    -0.220 NA
ATOM      4  S   UNL d   1      44.315  31.313  60.955  0.00  0.00    -0.048 SA
ATOM      5  C   UNL d   1      44.390  29.473  59.857  0.00  0.00     0.107 A 
ATOM      6  C   UNL d   1      44.441  29.297  60.659  0.00  0.00     0.102 A 
ATOM      7  C   UNL d   1      44.426  30.323  61.826  0.00  0.00     0.073 A 
ATOM      8  C   UNL d   1      44.366  31.127  61.739  0.00  0.00     0.056 A 
ATOM      9  C   UNL d   1      44.490  29.897  62.541  0.00  0.00     0.020 C 
ENDROOT
BRANCH   5  10
ATOM     10  C   UNL d   1      44.397  28.934  59.220  0.00  0.00     0.056 C 
BRANCH  10  11
ATOM     11  S   UNL d   1      45.097  28.836  58.799  0.00  0.00    -0.085 SA
BRANCH  11  12
ATOM     12  C   UNL d   1      45.139  28.261  58.212  0.00  0.00     0.030 A 
ATOM     13  C   UNL d   1      45.328  27.472  58.403  0.00  0.00     0.007 A 
ATOM     14  C   UNL d   1      45.370  26.900  57.819  0.00  0.00     0.012 A 
ATOM     15  C   UNL d   1      45.222  27.107  57.034  0.00  0.00     0.058 A 
ATOM     16  C   UNL d   1      45.033  27.886  56.830  0.00  0.00     0.012 A 
ATOM     17 CL   UNL d   1      45.260  26.549  56.443  0.00  0.00    -0.082 Cl
ATOM     18  C   UNL d   1      44.991  28.473  57.428  0.00  0.00     0.007 A 
ENDBRANCH  11  12
ENDBRANCH  10  11
ENDBRANCH   5  10
TORSDOF 3
ENDMDL
