MODEL 1
REMARK VINA RESULT:      -1.2      0.000      0.000
REMARK  4 active torsions:
REMARK  status: ('A' for Active; 'I' for Inactive)
REMARK    1  A    between atoms: C_4  and  C_1 
REMARK    2  A    between atoms: N_7  and  C_2 
REMARK       I    between atoms: N_8  and  C_4 
REMARK       I    between atoms: C_11  and  N_7 
REMARK    3  A    between atoms: C_13  and  N_8 
REMARK    4  A    between atoms: C_22  and  C_11 
ROOT
ATOM      1  C   UNL d   1      57.839   0.476  30.867  0.00  0.00     0.175 A 
ATOM      2  C   UNL d   1      57.711   0.466  31.631  0.00  0.00     0.114 A 
ATOM      3  O   UNL d   1      58.600   0.546  30.755  0.00  0.00    -0.301 OA
ATOM      4  C   UNL d   1      58.392   0.529  31.991  0.00  0.00     0.043 A 
ATOM      5  C   UNL d   1      58.944   0.579  31.449  0.00  0.00     0.102 A 
ATOM      6  C   UNL d   1      58.583   0.549  32.734  0.00  0.00     0.004 A 
ATOM      7  C   UNL d   1      59.680   0.648  31.651  0.00  0.00     0.025 A 
ATOM      8  C   UNL d   1      59.327   0.618  32.940  0.00  0.00     0.000 A 
ATOM      9  C   UNL d   1      59.872   0.667  32.398  0.00  0.00     0.002 A 
ENDROOT
BRANCH   1  10
ATOM     10  C   UNL d   1      57.308   0.425  30.320  0.00  0.00     0.303 C 
ATOM     11  N   UNL d   1      57.756  -0.247  29.060  0.00  0.00    -0.206 NA
ATOM     12  O   UNL d   1      56.583   0.677  30.345  0.00  0.00    -0.263 OA
BRANCH  11  13
ATOM     13  C   UNL d   1      58.533  -0.532  28.997  0.00  0.00     0.087 A 
ATOM     14  C   UNL d   1      58.702  -1.322  29.191  0.00  0.00     0.046 A 
ATOM     15  C   UNL d   1      59.475  -1.605  29.130  0.00  0.00     0.124 A 
ATOM     16  O   UNL d   1      59.651  -2.397  29.323  0.00  0.00    -0.301 OA
ATOM     17  C   UNL d   1      60.098  -1.106  28.873  0.00  0.00     0.123 A 
ATOM     18  C   UNL d   1      60.426  -2.681  29.261  0.00  0.00     0.149 A 
ATOM     19  C   UNL d   1      61.036  -2.182  29.006  0.00  0.00     0.149 A 
ATOM     20  O   UNL d   1      60.863  -1.379  28.810  0.00  0.00    -0.301 OA
ATOM     21  C   UNL d   1      59.922  -0.314  28.680  0.00  0.00     0.028 A 
ATOM     22  C   UNL d   1      59.133  -0.025  28.743  0.00  0.00     0.021 A 
ENDBRANCH  11  13
ENDBRANCH   1  10
BRANCH   2  23
ATOM     23  N   UNL d   1      57.020   0.402  31.970  0.00  0.00    -0.206 NA
ATOM     24  C   UNL d   1      56.727  -0.345  32.184  0.00  0.00     0.279 C 
ATOM     25  O   UNL d   1      57.180  -1.032  32.033  0.00  0.00    -0.265 OA
BRANCH  24  26
ATOM     26  C   UNL d   1      55.978  -0.409  32.550  0.00  0.00     0.062 C 
ATOM     27  C   UNL d   1      55.770  -1.105  32.942  0.00  0.00     0.005 C 
ENDBRANCH  24  26
ENDBRANCH   2  23
TORSDOF 4
ENDMDL
MODEL 2
REMARK VINA RESULT:       0.5      1.329      4.293
REMARK  4 active torsions:
REMARK  status: ('A' for Active; 'I' for Inactive)
REMARK    1  A    between atoms: C_4  and  C_1 
REMARK    2  A    between atoms: N_7  and  C_2 
REMARK       I    between atoms: N_8  and  C_4 
REMARK       I    between atoms: C_11  and  N_7 
REMARK    3  A    between atoms: C_13  and  N_8 
REMARK    4  A    between atoms: C_22  and  C_11 
ROOT
ATOM      1  C   UNL d   1      58.077  -0.577  29.335  0.00  0.00     0.175 A 
ATOM      2  C   UNL d   1      58.752  -0.822  29.045  0.00  0.00     0.114 A 
ATOM      3  O   UNL d   1      57.764  -1.160  29.734  0.00  0.00    -0.301 OA
ATOM      4  C   UNL d   1      58.858  -1.556  29.265  0.00  0.00     0.043 A 
ATOM      5  C   UNL d   1      58.246  -1.766  29.692  0.00  0.00     0.102 A 
ATOM      6  C   UNL d   1      59.424  -2.057  29.135  0.00  0.00     0.004 A 
ATOM      7  C   UNL d   1      58.204  -2.473  29.985  0.00  0.00     0.025 A 
ATOM      8  C   UNL d   1      59.382  -2.772  29.431  0.00  0.00     0.000 A 
ATOM      9  C   UNL d   1      58.773  -2.977  29.854  0.00  0.00     0.002 A 
ENDROOT
BRANCH   1  10
ATOM     10  C   UNL d   1      57.772   0.117  29.243  0.00  0.00     0.303 C 
ATOM     11  N   UNL d   1      57.099   0.682  30.456  0.00  0.00    -0.206 NA
ATOM     12  O   UNL d   1      57.772   0.550  28.608  0.00  0.00    -0.263 OA
BRANCH  11  13
ATOM     13  C   UNL d   1      57.079   0.241  31.159  0.00  0.00     0.087 A 
ATOM     14  C   UNL d   1      56.391  -0.174  31.369  0.00  0.00     0.046 A 
ATOM     15  C   UNL d   1      56.371  -0.612  32.069  0.00  0.00     0.124 A 
ATOM     16  O   UNL d   1      55.683  -1.030  32.286  0.00  0.00    -0.301 OA
ATOM     17  C   UNL d   1      57.038  -0.646  32.576  0.00  0.00     0.123 A 
ATOM     18  C   UNL d   1      55.664  -1.469  32.986  0.00  0.00     0.149 A 
ATOM     19  C   UNL d   1      56.327  -1.499  33.482  0.00  0.00     0.149 A 
ATOM     20  O   UNL d   1      57.026  -1.076  33.267  0.00  0.00    -0.301 OA
ATOM     21  C   UNL d   1      57.726  -0.227  32.358  0.00  0.00     0.028 A 
ATOM     22  C   UNL d   1      57.746   0.219  31.645  0.00  0.00     0.021 A 
ENDBRANCH  11  13
ENDBRANCH   1  10
BRANCH   2  23
ATOM     23  N   UNL d   1      59.234  -0.402  28.612  0.00  0.00    -0.206 NA
ATOM     24  C   UNL d   1      59.913  -0.062  28.951  0.00  0.00     0.279 C 
ATOM     25  O   UNL d   1      60.076  -0.176  29.764  0.00  0.00    -0.265 OA
BRANCH  24  26
ATOM     26  C   UNL d   1      60.431   0.392  28.479  0.00  0.00     0.062 C 
ATOM     27  C   UNL d   1      61.133   0.682  28.801  0.00  0.00     0.005 C 
ENDBRANCH  24  26
ENDBRANCH   2  23
TORSDOF 4
ENDMDL
