MODEL 1
REMARK VINA RESULT:      -4.3      0.000      0.000
REMARK  4 active torsions:
REMARK  status: ('A' for Active; 'I' for Inactive)
REMARK    1  A    between atoms: C_2  and  S_1 
REMARK    2  A    between atoms: N_5  and  S_1 
REMARK    3  A    between atoms: C_12  and  N_5 
REMARK    4  A    between atoms: C_13  and  C_12 
ROOT
ATOM      1  S   UNL d   1     -41.753-122.417 -51.864  0.00  0.00     0.285 S 
ATOM      2  O   UNL d   1     -41.211-121.839 -51.636  0.00  0.00    -0.198 OA
ATOM      3  O   UNL d   1     -42.296-122.995 -52.093  0.00  0.00    -0.198 OA
ENDROOT
BRANCH   1   4
ATOM      4  C   UNL d   1     -41.874-122.617 -51.073  0.00  0.00     0.105 A 
ATOM      5  C   UNL d   1     -42.305-122.128 -50.577  0.00  0.00     0.012 A 
ATOM      6  C   UNL d   1     -42.426-122.327 -49.787  0.00  0.00     0.001 A 
ATOM      7  C   UNL d   1     -42.622-121.422 -50.886  0.00  0.00     0.001 C 
ATOM      8  C   UNL d   1     -42.116-123.017 -49.483  0.00  0.00     0.000 A 
ATOM      9  C   UNL d   1     -41.681-123.518 -49.974  0.00  0.00     0.001 A 
ATOM     10  C   UNL d   1     -42.237-123.217 -48.692  0.00  0.00     0.000 C 
ATOM     11  C   UNL d   1     -41.560-123.318 -50.764  0.00  0.00     0.012 A 
ATOM     12  C   UNL d   1     -41.123-123.817 -51.261  0.00  0.00     0.001 C 
ENDBRANCH   1   4
BRANCH   1  13
ATOM     13  N   UNL d   1     -41.634-122.219 -52.649  0.00  0.00    -0.157 NA
BRANCH  13  14
ATOM     14  C   UNL d   1     -41.994-122.649 -53.242  0.00  0.00     0.112 C 
BRANCH  14  15
ATOM     15  C   UNL d   1     -41.886-122.436 -54.023  0.00  0.00     0.023 A 
ATOM     16  C   UNL d   1     -42.414-121.932 -54.398  0.00  0.00     0.022 A 
ATOM     17  C   UNL d   1     -42.308-121.717 -55.184  0.00  0.00     0.099 A 
ATOM     18  N   UNL d   1     -41.660-122.011 -55.602  0.00  0.00    -0.242 NA
ATOM     19  C   UNL d   1     -41.123-122.515 -55.241  0.00  0.00     0.099 A 
ATOM     20  C   UNL d   1     -41.232-122.733 -54.444  0.00  0.00     0.022 A 
ENDBRANCH  14  15
ENDBRANCH  13  14
ENDBRANCH   1  13
TORSDOF 4
ENDMDL
MODEL 2
REMARK VINA RESULT:      -4.1      0.216      1.290
REMARK  4 active torsions:
REMARK  status: ('A' for Active; 'I' for Inactive)
REMARK    1  A    between atoms: C_2  and  S_1 
REMARK    2  A    between atoms: N_5  and  S_1 
REMARK    3  A    between atoms: C_12  and  N_5 
REMARK    4  A    between atoms: C_13  and  C_12 
ROOT
ATOM      1  S   UNL d   1     -41.854-122.459 -51.696  0.00  0.00     0.285 S 
ATOM      2  O   UNL d   1     -41.403-121.820 -51.433  0.00  0.00    -0.198 OA
ATOM      3  O   UNL d   1     -42.306-123.097 -51.958  0.00  0.00    -0.198 OA
ENDROOT
BRANCH   1   4
ATOM      4  C   UNL d   1     -41.976-122.694 -50.914  0.00  0.00     0.105 A 
ATOM      5  C   UNL d   1     -41.617-123.368 -50.618  0.00  0.00     0.012 A 
ATOM      6  C   UNL d   1     -41.738-123.603 -49.838  0.00  0.00     0.001 A 
ATOM      7  C   UNL d   1     -41.124-123.814 -51.119  0.00  0.00     0.001 C 
ATOM      8  C   UNL d   1     -42.220-123.167 -49.345  0.00  0.00     0.000 A 
ATOM      9  C   UNL d   1     -42.587-122.486 -49.633  0.00  0.00     0.001 A 
ATOM     10  C   UNL d   1     -42.342-123.402 -48.564  0.00  0.00     0.000 C 
ATOM     11  C   UNL d   1     -42.465-122.251 -50.414  0.00  0.00     0.012 A 
ATOM     12  C   UNL d   1     -42.831-121.568 -50.708  0.00  0.00     0.001 C 
ENDBRANCH   1   4
BRANCH   1  13
ATOM     13  N   UNL d   1     -41.733-122.225 -52.470  0.00  0.00    -0.157 NA
BRANCH  13  14
ATOM     14  C   UNL d   1     -42.124-122.602 -53.080  0.00  0.00     0.112 C 
BRANCH  14  15
ATOM     15  C   UNL d   1     -41.970-122.392 -53.855  0.00  0.00     0.023 A 
ATOM     16  C   UNL d   1     -41.288-122.653 -54.232  0.00  0.00     0.022 A 
ATOM     17  C   UNL d   1     -41.131-122.444 -55.010  0.00  0.00     0.099 A 
ATOM     18  N   UNL d   1     -41.665-121.966 -55.419  0.00  0.00    -0.242 NA
ATOM     19  C   UNL d   1     -42.350-121.698 -55.056  0.00  0.00     0.099 A 
ATOM     20  C   UNL d   1     -42.508-121.910 -54.267  0.00  0.00     0.022 A 
ENDBRANCH  14  15
ENDBRANCH  13  14
ENDBRANCH   1  13
TORSDOF 4
ENDMDL
MODEL 3
REMARK VINA RESULT:      -4.0      1.185      4.318
REMARK  4 active torsions:
REMARK  status: ('A' for Active; 'I' for Inactive)
REMARK    1  A    between atoms: C_2  and  S_1 
REMARK    2  A    between atoms: N_5  and  S_1 
REMARK    3  A    between atoms: C_12  and  N_5 
REMARK    4  A    between atoms: C_13  and  C_12 
ROOT
ATOM      1  S   UNL d   1     -41.561-122.668 -52.771  0.00  0.00     0.285 S 
ATOM      2  O   UNL d   1     -41.125-121.971 -52.705  0.00  0.00    -0.198 OA
ATOM      3  O   UNL d   1     -41.997-123.365 -52.837  0.00  0.00    -0.198 OA
ENDROOT
BRANCH   1   4
ATOM      4  C   UNL d   1     -41.721-122.493 -53.561  0.00  0.00     0.105 A 
ATOM      5  C   UNL d   1     -41.506-123.012 -54.158  0.00  0.00     0.012 A 
ATOM      6  C   UNL d   1     -41.666-122.837 -54.947  0.00  0.00     0.001 A 
ATOM      7  C   UNL d   1     -41.123-123.722 -53.954  0.00  0.00     0.001 C 
ATOM      8  C   UNL d   1     -42.042-122.142 -55.149  0.00  0.00     0.000 A 
ATOM      9  C   UNL d   1     -42.262-121.612 -54.556  0.00  0.00     0.001 A 
ATOM     10  C   UNL d   1     -42.202-121.967 -55.939  0.00  0.00     0.000 C 
ATOM     11  C   UNL d   1     -42.102-121.787 -53.766  0.00  0.00     0.012 A 
ATOM     12  C   UNL d   1     -42.321-121.258 -53.166  0.00  0.00     0.001 C 
ENDBRANCH   1   4
BRANCH   1  13
ATOM     13  N   UNL d   1     -41.402-122.842 -51.988  0.00  0.00    -0.157 NA
BRANCH  13  14
ATOM     14  C   UNL d   1     -41.949-122.668 -51.408  0.00  0.00     0.112 C 
BRANCH  14  15
ATOM     15  C   UNL d   1     -41.839-122.944 -50.647  0.00  0.00     0.023 A 
ATOM     16  C   UNL d   1     -41.236-122.646 -50.176  0.00  0.00     0.022 A 
ATOM     17  C   UNL d   1     -41.124-122.922 -49.410  0.00  0.00     0.099 A 
ATOM     18  N   UNL d   1     -41.624-123.506 -49.111  0.00  0.00    -0.242 NA
ATOM     19  C   UNL d   1     -42.231-123.813 -49.569  0.00  0.00     0.099 A 
ATOM     20  C   UNL d   1     -42.344-123.533 -50.345  0.00  0.00     0.022 A 
ENDBRANCH  14  15
ENDBRANCH  13  14
ENDBRANCH   1  13
TORSDOF 4
ENDMDL
MODEL 4
REMARK VINA RESULT:      -2.8      1.347      4.248
REMARK  4 active torsions:
REMARK  status: ('A' for Active; 'I' for Inactive)
REMARK    1  A    between atoms: C_2  and  S_1 
REMARK    2  A    between atoms: N_5  and  S_1 
REMARK    3  A    between atoms: C_12  and  N_5 
REMARK    4  A    between atoms: C_13  and  C_12 
ROOT
ATOM      1  S   UNL d   1     -41.482-122.613 -51.813  0.00  0.00     0.285 S 
ATOM      2  O   UNL d   1     -41.842-123.351 -51.895  0.00  0.00    -0.198 OA
ATOM      3  O   UNL d   1     -41.123-121.875 -51.731  0.00  0.00    -0.198 OA
ENDROOT
BRANCH   1   4
ATOM      4  C   UNL d   1     -41.564-122.483 -52.624  0.00  0.00     0.105 A 
ATOM      5  C   UNL d   1     -41.823-121.761 -52.909  0.00  0.00     0.012 A 
ATOM      6  C   UNL d   1     -41.905-121.631 -53.719  0.00  0.00     0.001 A 
ATOM      7  C   UNL d   1     -42.003-121.155 -52.367  0.00  0.00     0.001 C 
ATOM      8  C   UNL d   1     -41.729-122.223 -54.252  0.00  0.00     0.000 A 
ATOM      9  C   UNL d   1     -41.467-122.954 -53.975  0.00  0.00     0.001 A 
ATOM     10  C   UNL d   1     -41.810-122.093 -55.062  0.00  0.00     0.000 C 
ATOM     11  C   UNL d   1     -41.385-123.084 -53.165  0.00  0.00     0.012 A 
ATOM     12  C   UNL d   1     -41.122-123.818 -52.882  0.00  0.00     0.001 C 
ENDBRANCH   1   4
BRANCH   1  13
ATOM     13  N   UNL d   1     -41.401-122.742 -51.009  0.00  0.00    -0.157 NA
BRANCH  13  14
ATOM     14  C   UNL d   1     -42.026-122.602 -50.504  0.00  0.00     0.112 C 
BRANCH  14  15
ATOM     15  C   UNL d   1     -42.003-122.886 -49.738  0.00  0.00     0.023 A 
ATOM     16  C   UNL d   1     -41.292-123.108 -49.394  0.00  0.00     0.022 A 
ATOM     17  C   UNL d   1     -41.266-123.393 -48.624  0.00  0.00     0.099 A 
ATOM     18  N   UNL d   1     -41.965-123.456 -48.190  0.00  0.00    -0.242 NA
ATOM     19  C   UNL d   1     -42.684-123.239 -48.520  0.00  0.00     0.099 A 
ATOM     20  C   UNL d   1     -42.708-122.950 -49.301  0.00  0.00     0.022 A 
ENDBRANCH  14  15
ENDBRANCH  13  14
ENDBRANCH   1  13
TORSDOF 4
ENDMDL
