MODEL 1
REMARK VINA RESULT:      44.7      0.000      0.000
REMARK  6 active torsions:
REMARK  status: ('A' for Active; 'I' for Inactive)
REMARK    1  A    between atoms: C_4  and  N_1 
REMARK    2  A    between atoms: C_3  and  C_2 
REMARK    3  A    between atoms: S_6  and  C_11 
REMARK    4  A    between atoms: C_7  and  S_6 
REMARK    5  A    between atoms: C_8  and  C_10 
REMARK    6  A    between atoms: C_11  and  C_8 
ROOT
ATOM      1  C   UNL d   1     -54.985-102.236 -42.243  0.00  0.00     0.202 C 
ATOM      2  O   UNL d   1     -54.899-102.878 -42.765  0.00  0.00    -0.286 OA
ENDROOT
BRANCH   1   3
ATOM      3  C   UNL d   1     -55.240-102.369 -41.467  0.00  0.00     0.040 A 
ATOM      4  C   UNL d   1     -54.712-102.285 -40.838  0.00  0.00     0.005 A 
ATOM      5  C   UNL d   1     -54.988-102.422 -40.077  0.00  0.00     0.024 A 
ATOM      6  C   UNL d   1     -55.776-102.640 -39.931  0.00  0.00     0.127 A 
ATOM      7  C   UNL d   1     -56.295-102.721 -40.565  0.00  0.00     0.024 A 
ATOM      8  C   UNL d   1     -56.015-102.583 -41.324  0.00  0.00     0.005 A 
BRANCH   6   9
ATOM      9  N   UNL d   1     -56.061-102.782 -39.149  0.00  0.00    -0.114 N 
ATOM     10  O   UNL d   1     -55.515-102.879 -38.540  0.00  0.00    -0.532 OA
ATOM     11  O   UNL d   1     -56.888-102.819 -39.015  0.00  0.00    -0.532 OA
ENDBRANCH   6   9
ENDBRANCH   1   3
BRANCH   1  12
ATOM     12  C   UNL d   1     -54.820-101.478 -42.493  0.00  0.00     0.077 C 
BRANCH  12  13
ATOM     13  S   UNL d   1     -54.992-101.240 -43.273  0.00  0.00    -0.083 SA
BRANCH  13  14
ATOM     14  C   UNL d   1     -54.928-100.426 -43.502  0.00  0.00     0.035 A 
ATOM     15  C   UNL d   1     -55.023-100.230 -44.294  0.00  0.00     0.070 A 
ATOM     16  C   UNL d   1     -54.959 -99.426 -44.520  0.00  0.00     0.007 A 
ATOM     17  C   UNL d   1     -54.803 -98.839 -43.947  0.00  0.00     0.000 A 
ATOM     18  C   UNL d   1     -54.713 -99.058 -43.165  0.00  0.00     0.001 A 
ATOM     19  C   UNL d   1     -54.775 -99.851 -42.943  0.00  0.00     0.007 A 
BRANCH  15  20
ATOM     20  C   UNL d   1     -55.182-100.823 -44.881  0.00  0.00     0.211 C 
ATOM     21  O   UNL d   1     -55.812-101.355 -44.764  0.00  0.00    -0.644 OA
ATOM     22  O   UNL d   1     -54.720-100.880 -45.564  0.00  0.00    -0.644 OA
ENDBRANCH  15  20
ENDBRANCH  13  14
ENDBRANCH  12  13
ENDBRANCH   1  12
TORSDOF 6
ENDMDL
