MODEL 1
REMARK VINA RESULT:      34.4      0.000      0.000
REMARK  2 active torsions:
REMARK  status: ('A' for Active; 'I' for Inactive)
REMARK    1  A    between atoms: C_10  and  C_1 
REMARK    2  A    between atoms: N_6  and  C_10 
ROOT
ATOM      1  C   UNL d   1     -51.119  25.270  33.307  0.00  0.00     0.025 A 
ATOM      2  C   UNL d   1     -51.798  24.801  33.307  0.00  0.00     0.025 A 
ATOM      3  C   UNL d   1     -52.539  25.138  33.307  0.00  0.00     0.013 A 
ATOM      4  C   UNL d   1     -51.716  23.984  33.308  0.00  0.00     0.103 A 
ATOM      5  O   UNL d   1     -50.970  23.627  33.308  0.00  0.00    -0.273 OA
ATOM      6  C   UNL d   1     -53.205  24.670  33.307  0.00  0.00     0.058 A 
ATOM      7  C   UNL d   1     -50.296  24.104  33.308  0.00  0.00     0.300 A 
ATOM      8  C   UNL d   1     -50.365  24.922  33.307  0.00  0.00     0.070 A 
ATOM      9  C   UNL d   1     -53.131  23.848  33.308  0.00  0.00     0.013 A 
ATOM     10  C   UNL d   1     -52.382  23.507  33.308  0.00  0.00     0.026 A 
ATOM     11  O   UNL d   1     -49.551  23.758  33.308  0.00  0.00    -0.259 OA
ATOM     12 CL   UNL d   1     -53.958  25.014  33.307  0.00  0.00    -0.082 Cl
ATOM     13  C   UNL d   1     -52.613  25.960  33.306  0.00  0.00     0.001 C 
ATOM     14  C   UNL d   1     -53.810  23.371  33.308  0.00  0.00     0.001 C 
ENDROOT
BRANCH   1  15
ATOM     15  C   UNL d   1     -51.193  26.092  33.306  0.00  0.00     0.080 C 
BRANCH  15  16
ATOM     16  N   UNL d   1     -50.581  26.563  33.609  0.00  0.00    -0.304 N 
ATOM     17  C   UNL d   1     -50.664  27.384  33.626  0.00  0.00     0.064 A 
ATOM     18  C   UNL d   1     -51.351  27.743  33.345  0.00  0.00     0.019 C 
ATOM     19  C   UNL d   1     -50.054  27.843  33.926  0.00  0.00     0.018 A 
ATOM     20  C   UNL d   1     -49.367  27.493  34.208  0.00  0.00     0.003 A 
ATOM     21  C   UNL d   1     -49.285  26.672  34.191  0.00  0.00     0.019 A 
ATOM     22  C   UNL d   1     -49.889  26.202  33.892  0.00  0.00     0.080 A 
ENDBRANCH  15  16
ENDBRANCH   1  15
TORSDOF 2
ENDMDL
