MODEL 1
REMARK VINA RESULT:      -9.4      0.000      0.000
REMARK  3 active torsions:
REMARK  status: ('A' for Active; 'I' for Inactive)
REMARK    1  A    between atoms: C_5  and  C_1 
REMARK    2  A    between atoms: C_4  and  C_6 
REMARK    3  A    between atoms: C_6  and  C_5 
ROOT
ATOM      1  C   UNL d   1      53.264  32.811  53.261  0.00  0.00     0.068 C 
ENDROOT
BRANCH   1   2
ATOM      2  C   UNL d   1      53.214  31.985  53.313  0.00  0.00     0.114 A 
ATOM      3  N   UNL d   1      52.759  31.495  52.827  0.00  0.00    -0.238 NA
ATOM      4  C   UNL d   1      52.876  30.715  53.076  0.00  0.00     0.088 A 
ATOM      5  C   UNL d   1      52.570  29.999  52.802  0.00  0.00     0.020 A 
ATOM      6  C   UNL d   1      53.400  30.720  53.714  0.00  0.00     0.049 A 
ATOM      7  C   UNL d   1      52.788  29.290  53.165  0.00  0.00     0.002 A 
ATOM      8  C   UNL d   1      53.312  29.305  53.801  0.00  0.00     0.001 A 
ATOM      9  C   UNL d   1      53.615  30.018  54.073  0.00  0.00     0.008 A 
ATOM     10  S   UNL d   1      53.609  31.511  53.859  0.00  0.00    -0.066 SA
ENDBRANCH   1   2
BRANCH   1  11
ATOM     11  C   UNL d   1      52.627  33.276  53.518  0.00  0.00     0.201 C 
ATOM     12  O   UNL d   1      51.853  32.990  53.473  0.00  0.00    -0.286 OA
BRANCH  11  13
ATOM     13  C   UNL d   1      52.771  34.037  53.823  0.00  0.00     0.078 A 
ATOM     14  C   UNL d   1      52.566  34.710  53.373  0.00  0.00     0.202 A 
ATOM     15  C   UNL d   1      52.707  35.466  53.673  0.00  0.00     0.084 A 
ATOM     16  O   UNL d   1      52.224  34.621  52.628  0.00  0.00    -0.286 OA
ATOM     17  C   UNL d   1      53.052  35.548  54.423  0.00  0.00     0.199 A 
ATOM     18  C   UNL d   1      53.254  34.882  54.868  0.00  0.00     0.042 A 
ATOM     19  O   UNL d   1      53.193  36.304  54.722  0.00  0.00    -0.286 OA
ATOM     20  C   UNL d   1      53.113  34.126  54.568  0.00  0.00     0.010 A 
ENDBRANCH  11  13
ENDBRANCH   1  11
TORSDOF 3
ENDMDL
MODEL 2
REMARK VINA RESULT:      -8.6      1.514      4.429
REMARK  3 active torsions:
REMARK  status: ('A' for Active; 'I' for Inactive)
REMARK    1  A    between atoms: C_5  and  C_1 
REMARK    2  A    between atoms: C_4  and  C_6 
REMARK    3  A    between atoms: C_6  and  C_5 
ROOT
ATOM      1  C   UNL d   1      53.693  32.097  53.584  0.00  0.00     0.068 C 
ENDROOT
BRANCH   1   2
ATOM      2  C   UNL d   1      53.527  32.889  53.766  0.00  0.00     0.114 A 
ATOM      3  N   UNL d   1      53.205  33.449  53.249  0.00  0.00    -0.238 NA
ATOM      4  C   UNL d   1      53.135  34.162  53.663  0.00  0.00     0.088 A 
ATOM      5  C   UNL d   1      52.854  34.903  53.435  0.00  0.00     0.020 A 
ATOM      6  C   UNL d   1      53.412  34.046  54.432  0.00  0.00     0.049 A 
ATOM      7  C   UNL d   1      52.849  35.528  53.975  0.00  0.00     0.002 A 
ATOM      8  C   UNL d   1      53.127  35.403  54.741  0.00  0.00     0.001 A 
ATOM      9  C   UNL d   1      53.407  34.665  54.967  0.00  0.00     0.008 A 
ATOM     10  S   UNL d   1      53.655  33.254  54.494  0.00  0.00    -0.066 SA
ENDBRANCH   1   2
BRANCH   1  11
ATOM     11  C   UNL d   1      53.069  31.578  53.412  0.00  0.00     0.201 C 
ATOM     12  O   UNL d   1      52.393  31.849  53.020  0.00  0.00    -0.286 OA
BRANCH  11  13
ATOM     13  C   UNL d   1      53.125  30.779  53.636  0.00  0.00     0.078 A 
ATOM     14  C   UNL d   1      53.047  30.179  53.060  0.00  0.00     0.202 A 
ATOM     15  C   UNL d   1      53.103  29.386  53.279  0.00  0.00     0.084 A 
ATOM     16  O   UNL d   1      52.915  30.380  52.271  0.00  0.00    -0.286 OA
ATOM     17  C   UNL d   1      53.236  29.192  54.074  0.00  0.00     0.199 A 
ATOM     18  C   UNL d   1      53.313  29.785  54.644  0.00  0.00     0.042 A 
ATOM     19  O   UNL d   1      53.291  28.398  54.293  0.00  0.00    -0.286 OA
ATOM     20  C   UNL d   1      53.258  30.579  54.426  0.00  0.00     0.010 A 
ENDBRANCH  11  13
ENDBRANCH   1  11
TORSDOF 3
ENDMDL
MODEL 3
REMARK VINA RESULT:      -8.3      2.406      3.586
REMARK  3 active torsions:
REMARK  status: ('A' for Active; 'I' for Inactive)
REMARK    1  A    between atoms: C_5  and  C_1 
REMARK    2  A    between atoms: C_4  and  C_6 
REMARK    3  A    between atoms: C_6  and  C_5 
ROOT
ATOM      1  C   UNL d   1      51.711  34.421  52.887  0.00  0.00     0.068 C 
ENDROOT
BRANCH   1   2
ATOM      2  C   UNL d   1      52.358  34.120  53.311  0.00  0.00     0.114 A 
ATOM      3  N   UNL d   1      52.735  33.398  53.174  0.00  0.00    -0.238 NA
ATOM      4  C   UNL d   1      53.347  33.325  53.726  0.00  0.00     0.088 A 
ATOM      5  C   UNL d   1      53.903  32.729  53.854  0.00  0.00     0.020 A 
ATOM      6  C   UNL d   1      53.350  33.998  54.203  0.00  0.00     0.049 A 
ATOM      7  C   UNL d   1      54.461  32.806  54.458  0.00  0.00     0.002 A 
ATOM      8  C   UNL d   1      54.457  33.482  54.930  0.00  0.00     0.001 A 
ATOM      9  C   UNL d   1      53.903  34.074  54.801  0.00  0.00     0.008 A 
ATOM     10  S   UNL d   1      52.734  34.491  53.944  0.00  0.00    -0.066 SA
ENDBRANCH   1   2
BRANCH   1  11
ATOM     11  C   UNL d   1      50.965  34.070  52.976  0.00  0.00     0.201 C 
ATOM     12  O   UNL d   1      50.825  33.528  53.585  0.00  0.00    -0.286 OA
BRANCH  11  13
ATOM     13  C   UNL d   1      50.353  34.265  52.447  0.00  0.00     0.078 A 
ATOM     14  C   UNL d   1      49.696  34.704  52.716  0.00  0.00     0.202 A 
ATOM     15  C   UNL d   1      49.088  34.899  52.194  0.00  0.00     0.084 A 
ATOM     16  O   UNL d   1      49.654  34.943  53.504  0.00  0.00    -0.286 OA
ATOM     17  C   UNL d   1      49.137  34.656  51.403  0.00  0.00     0.199 A 
ATOM     18  C   UNL d   1      49.788  34.221  51.136  0.00  0.00     0.042 A 
ATOM     19  O   UNL d   1      48.529  34.851  50.881  0.00  0.00    -0.286 OA
ATOM     20  C   UNL d   1      50.396  34.026  51.658  0.00  0.00     0.010 A 
ENDBRANCH  11  13
ENDBRANCH   1  11
TORSDOF 3
ENDMDL
MODEL 4
REMARK VINA RESULT:      -8.3      2.458      3.759
REMARK  3 active torsions:
REMARK  status: ('A' for Active; 'I' for Inactive)
REMARK    1  A    between atoms: C_5  and  C_1 
REMARK    2  A    between atoms: C_4  and  C_6 
REMARK    3  A    between atoms: C_6  and  C_5 
ROOT
ATOM      1  C   UNL d   1      52.562  34.180  53.099  0.00  0.00     0.068 C 
ENDROOT
BRANCH   1   2
ATOM      2  C   UNL d   1      51.782  34.273  52.832  0.00  0.00     0.114 A 
ATOM      3  N   UNL d   1      51.143  34.544  53.282  0.00  0.00    -0.238 NA
ATOM      4  C   UNL d   1      50.476  34.548  52.794  0.00  0.00     0.088 A 
ATOM      5  C   UNL d   1      49.692  34.762  52.937  0.00  0.00     0.020 A 
ATOM      6  C   UNL d   1      50.698  34.281  52.045  0.00  0.00     0.049 A 
ATOM      7  C   UNL d   1      49.131  34.709  52.333  0.00  0.00     0.002 A 
ATOM      8  C   UNL d   1      49.361  34.441  51.589  0.00  0.00     0.001 A 
ATOM      9  C   UNL d   1      50.142  34.229  51.447  0.00  0.00     0.008 A 
ATOM     10  S   UNL d   1      51.510  34.111  52.071  0.00  0.00    -0.066 SA
ENDBRANCH   1   2
BRANCH   1  11
ATOM     11  C   UNL d   1      52.748  33.549  53.604  0.00  0.00     0.201 C 
ATOM     12  O   UNL d   1      52.269  32.875  53.629  0.00  0.00    -0.286 OA
BRANCH  11  13
ATOM     13  C   UNL d   1      53.422  33.596  54.090  0.00  0.00     0.078 A 
ATOM     14  C   UNL d   1      54.077  33.101  53.941  0.00  0.00     0.202 A 
ATOM     15  C   UNL d   1      54.746  33.145  54.421  0.00  0.00     0.084 A 
ATOM     16  O   UNL d   1      54.055  32.565  53.314  0.00  0.00    -0.286 OA
ATOM     17  C   UNL d   1      54.761  33.686  55.049  0.00  0.00     0.199 A 
ATOM     18  C   UNL d   1      54.113  34.177  55.197  0.00  0.00     0.042 A 
ATOM     19  O   UNL d   1      55.431  33.730  55.529  0.00  0.00    -0.286 OA
ATOM     20  C   UNL d   1      53.442  34.132  54.717  0.00  0.00     0.010 A 
ENDBRANCH  11  13
ENDBRANCH   1  11
TORSDOF 3
ENDMDL
