MODEL 1
REMARK VINA RESULT:      75.7      0.000      0.000
REMARK  7 active torsions:
REMARK  status: ('A' for Active; 'I' for Inactive)
REMARK    1  A    between atoms: C_21  and  C_3 
REMARK    2  A    between atoms: S_17  and  C_5 
REMARK    3  A    between atoms: C_11  and  C_16 
REMARK       I    between atoms: N_14  and  C_11 
REMARK    4  A    between atoms: C_19  and  N_14 
REMARK    5  A    between atoms: C_16  and  C_20 
REMARK    6  A    between atoms: C_20  and  S_17 
REMARK    7  A    between atoms: O_27  and  C_22 
ROOT
ATOM      1  C   UNL d   1     -54.835-100.518 -42.374  0.00  0.00     0.092 A 
ATOM      2  C   UNL d   1     -54.963-100.303 -43.783  0.00  0.00     0.057 A 
ATOM      3  C   UNL d   1     -54.919-100.005 -43.018  0.00  0.00     0.016 A 
ATOM      4  N   UNL d   1     -54.840-101.630 -43.273  0.00  0.00    -0.239 NA
ATOM      5  C   UNL d   1     -54.795-101.331 -42.502  0.00  0.00     0.120 A 
ATOM      6  C   UNL d   1     -54.923-101.117 -43.911  0.00  0.00     0.081 A 
ATOM      7  C   UNL d   1     -55.046 -99.791 -44.420  0.00  0.00     0.193 A 
ATOM      8  C   UNL d   1     -54.792-100.215 -41.605  0.00  0.00     0.103 C 
ATOM      9  N   UNL d   1     -54.748 -99.905 -40.831  0.00  0.00    -0.191 NA
ATOM     10  C   UNL d   1     -55.050-100.902 -45.315  0.00  0.00     0.042 A 
ATOM     11  C   UNL d   1     -55.090-100.089 -45.187  0.00  0.00     0.019 A 
ATOM     12  C   UNL d   1     -54.967-101.416 -44.675  0.00  0.00    -0.003 A 
ATOM     13  O   UNL d   1     -55.086 -98.978 -44.292  0.00  0.00    -0.287 OA
ATOM     14  C   UNL d   1     -55.038-101.632 -45.715  0.00  0.00     0.009 C 
ATOM     15  C   UNL d   1     -55.134-100.396 -45.961  0.00  0.00     0.009 C 
ENDROOT
BRANCH   3  16
ATOM     16  C   UNL d   1     -54.959 -99.192 -42.891  0.00  0.00     0.001 C 
ATOM     17  C   UNL d   1     -55.654 -98.783 -43.054  0.00  0.00     0.000 C 
ENDBRANCH   3  16
BRANCH   5  18
ATOM     18  S   UNL d   1     -54.711-101.845 -41.861  0.00  0.00    -0.067 SA
BRANCH  18  19
ATOM     19  C   UNL d   1     -55.363-102.272 -41.590  0.00  0.00     0.042 C 
BRANCH  19  20
ATOM     20  C   UNL d   1     -55.276-102.804 -40.960  0.00  0.00     0.070 C 
BRANCH  20  21
ATOM     21  C   UNL d   1     -55.506-102.573 -40.195  0.00  0.00     0.280 C 
ATOM     22  N   UNL d   1     -55.042-102.796 -39.544  0.00  0.00    -0.208 NA
ATOM     23  O   UNL d   1     -56.188-102.127 -40.081  0.00  0.00    -0.265 OA
BRANCH  22  24
ATOM     24  C   UNL d   1     -55.271-102.566 -38.779  0.00  0.00     0.085 A 
ATOM     25  C   UNL d   1     -54.711-102.504 -38.177  0.00  0.00     0.021 A 
ATOM     26  C   UNL d   1     -54.945-102.276 -37.423  0.00  0.00     0.026 A 
ATOM     27  C   UNL d   1     -55.738-102.106 -37.257  0.00  0.00     0.094 A 
ATOM     28  C   UNL d   1     -56.297-102.169 -37.857  0.00  0.00     0.026 A 
ATOM     29  C   UNL d   1     -56.068-102.399 -38.623  0.00  0.00     0.021 A 
BRANCH  27  30
ATOM     30  O   UNL d   1     -55.972-101.874 -36.485  0.00  0.00    -0.328 OA
ATOM     31  C   UNL d   1     -56.099-102.450 -35.901  0.00  0.00     0.181 C 
ENDBRANCH  27  30
ENDBRANCH  22  24
ENDBRANCH  20  21
ENDBRANCH  19  20
ENDBRANCH  18  19
ENDBRANCH   5  18
TORSDOF 7
ENDMDL
