MODEL 1
REMARK VINA RESULT:       2.2      0.000      0.000
REMARK  10 active torsions:
REMARK  status: ('A' for Active; 'I' for Inactive)
REMARK    1  A    between atoms: N_11  and  C_1 
REMARK    2  A    between atoms: C_12  and  C_2 
REMARK    3  A    between atoms: C_4  and  S_15 
REMARK    4  A    between atoms: C_18  and  C_6 
REMARK       I    between atoms: C_16  and  N_11 
REMARK    5  A    between atoms: O_28  and  C_12 
REMARK       I    between atoms: C_13  and  N_17 
REMARK    6  A    between atoms: C_14  and  C_13 
REMARK    7  A    between atoms: S_15  and  C_26 
REMARK    8  A    between atoms: C_26  and  C_16 
REMARK    9  A    between atoms: N_17  and  C_18 
REMARK   10  A    between atoms: C_32  and  O_28 
ROOT
ATOM      1  C   UNL d   1      58.931  -0.249  30.197  0.00  0.00     0.101 C 
ENDROOT
BRANCH   1   2
ATOM      2  S   UNL d   1      58.369   0.263  30.354  0.00  0.00    -0.043 SA
BRANCH   2   3
ATOM      3  C   UNL d   1      58.104   0.289  31.146  0.00  0.00     0.202 A 
ATOM      4  N   UNL d   1      57.336   0.044  31.337  0.00  0.00    -0.265 N 
ATOM      5  C   UNL d   1      57.237   0.134  32.151  0.00  0.00     0.190 A 
ATOM      6  C   UNL d   1      56.752  -0.247  30.794  0.00  0.00     0.103 C 
ATOM      7  N   UNL d   1      57.946   0.435  32.471  0.00  0.00    -0.126 NA
ATOM      8  N   UNL d   1      58.480   0.531  31.851  0.00  0.00    -0.121 NA
BRANCH   5   9
ATOM      9  C   UNL d   1      56.556  -0.044  32.582  0.00  0.00     0.141 C 
BRANCH   9  10
ATOM     10  N   UNL d   1      56.524   0.106  33.390  0.00  0.00    -0.202 NA
ATOM     11  C   UNL d   1      55.817   0.013  33.804  0.00  0.00     0.302 C 
ATOM     12  O   UNL d   1      55.137  -0.234  33.399  0.00  0.00    -0.263 OA
BRANCH  11  13
ATOM     13  C   UNL d   1      55.784   0.166  34.628  0.00  0.00     0.158 A 
ATOM     14  O   UNL d   1      56.299  -0.163  35.224  0.00  0.00    -0.300 OA
ATOM     15  C   UNL d   1      56.060   0.146  35.976  0.00  0.00     0.123 A 
ATOM     16  C   UNL d   1      55.398   0.667  35.852  0.00  0.00     0.029 A 
ATOM     17  C   UNL d   1      55.227   0.679  35.023  0.00  0.00     0.032 A 
ENDBRANCH  11  13
ENDBRANCH   9  10
ENDBRANCH   5   9
ENDBRANCH   2   3
ENDBRANCH   1   2
BRANCH   1  18
ATOM     18  C   UNL d   1      59.675  -0.147  29.749  0.00  0.00     0.286 C 
ATOM     19  N   UNL d   1      59.980  -0.870  29.119  0.00  0.00    -0.201 NA
ATOM     20  O   UNL d   1      60.107   0.512  29.838  0.00  0.00    -0.265 OA
BRANCH  19  21
ATOM     21  C   UNL d   1      59.521  -1.570  29.024  0.00  0.00     0.119 A 
ATOM     22  C   UNL d   1      59.829  -2.242  29.143  0.00  0.00     0.088 A 
ATOM     23  C   UNL d   1      58.709  -2.825  28.859  0.00  0.00     0.013 A 
ATOM     24  C   UNL d   1      58.318  -3.449  28.780  0.00  0.00     0.001 A 
ATOM     25  C   UNL d   1      58.399  -2.149  28.740  0.00  0.00     0.031 A 
ATOM     26  C   UNL d   1      57.591  -3.411  28.575  0.00  0.00     0.001 A 
ATOM     27  C   UNL d   1      57.279  -2.731  28.455  0.00  0.00     0.006 A 
ATOM     28  S   UNL d   1      58.796  -1.526  28.820  0.00  0.00    -0.068 SA
BRANCH  22  29
ATOM     29  C   UNL d   1      60.557  -2.487  29.357  0.00  0.00     0.302 C 
ATOM     30  O   UNL d   1      61.132  -2.230  29.002  0.00  0.00    -0.259 OA
BRANCH  29  31
ATOM     31  O   UNL d   1      60.628  -3.033  29.988  0.00  0.00    -0.271 OA
BRANCH  31  32
ATOM     32  C   UNL d   1      60.811  -3.843  30.072  0.00  0.00     0.126 C 
ATOM     33  C   UNL d   1      61.131  -4.313  30.663  0.00  0.00     0.029 C 
ENDBRANCH  31  32
ENDBRANCH  29  31
ENDBRANCH  22  29
ENDBRANCH  19  21
ENDBRANCH   1  18
TORSDOF 10
ENDMDL
