MODEL 1
REMARK VINA RESULT:      16.6      0.000      0.000
REMARK  6 active torsions:
REMARK  status: ('A' for Active; 'I' for Inactive)
REMARK       I    between atoms: C_2  and  N_1 
REMARK    1  A    between atoms: C_5  and  N_1 
REMARK    2  A    between atoms: C_4  and  C_2 
REMARK    3  A    between atoms: C_3  and  C_6 
REMARK    4  A    between atoms: C_6  and  C_4 
REMARK    5  A    between atoms: O_11  and  C_7 
REMARK    6  A    between atoms: C_14  and  O_11 
ROOT
ATOM      1  C   UNL d   1      57.598  49.699  50.685  0.00  0.00     0.107 A 
ATOM      2  C   UNL d   1      56.986  49.689  50.125  0.00  0.00     0.118 A 
ATOM      3  C   UNL d   1      57.436  49.702  51.468  0.00  0.00     0.021 A 
ATOM      4  C   UNL d   1      56.202  49.681  50.382  0.00  0.00     0.026 A 
ATOM      5  C   UNL d   1      56.654  49.695  51.744  0.00  0.00     0.002 A 
ATOM      6  C   UNL d   1      56.042  49.684  51.216  0.00  0.00     0.002 A 
ENDROOT
BRANCH   1   7
ATOM      7  N   UNL d   1      58.388  49.707  50.428  0.00  0.00    -0.206 NA
ATOM      8  C   UNL d   1      59.007  49.690  50.970  0.00  0.00     0.280 C 
ATOM      9  O   UNL d   1      58.851  49.665  51.758  0.00  0.00    -0.265 OA
BRANCH   8  10
ATOM     10  C   UNL d   1      59.807  49.697  50.705  0.00  0.00     0.068 C 
BRANCH  10  11
ATOM     11  C   UNL d   1      60.400  49.381  51.178  0.00  0.00     0.069 C 
BRANCH  11  12
ATOM     12  C   UNL d   1      60.966  48.906  50.840  0.00  0.00     0.297 C 
ATOM     13  O   UNL d   1      61.273  49.104  50.101  0.00  0.00    -0.264 OA
ATOM     14  N   UNL d   1      61.243  48.229  51.216  0.00  0.00    -0.102 N 
ENDBRANCH  11  12
ENDBRANCH  10  11
ENDBRANCH   8  10
ENDBRANCH   1   7
BRANCH   2  15
ATOM     15  O   UNL d   1      57.149  49.686  49.307  0.00  0.00    -0.304 OA
BRANCH  15  16
ATOM     16  C   UNL d   1      56.890  49.052  48.829  0.00  0.00     0.123 C 
ATOM     17  C   UNL d   1      56.103  48.799  48.911  0.00  0.00     0.029 C 
ENDBRANCH  15  16
ENDBRANCH   2  15
TORSDOF 6
ENDMDL
