MODEL 1
REMARK VINA RESULT:      -6.4      0.000      0.000
REMARK  4 active torsions:
REMARK  status: ('A' for Active; 'I' for Inactive)
REMARK    1  A    between atoms: N_2  and  S_1 
REMARK    2  A    between atoms: C_4  and  C_3 
REMARK       I    between atoms: N_9  and  C_4 
REMARK    3  A    between atoms: C_15  and  N_9 
REMARK    4  A    between atoms: C_10  and  C_15 
ROOT
ATOM      1  N   UNL d   1     -46.979  12.996  22.944  0.00  0.00    -0.233 N 
ATOM      2  C   UNL d   1     -48.379  13.237  23.030  0.00  0.00     0.076 A 
ATOM      3  C   UNL d   1     -47.632  13.477  22.795  0.00  0.00     0.096 A 
ATOM      4  C   UNL d   1     -47.078  12.274  23.328  0.00  0.00     0.091 A 
ATOM      5  C   UNL d   1     -48.482  12.514  23.415  0.00  0.00     0.008 A 
ATOM      6  C   UNL d   1     -47.830  12.036  23.563  0.00  0.00     0.020 A 
ENDROOT
BRANCH   2   7
ATOM      7  C   UNL d   1     -49.033  13.722  22.879  0.00  0.00     0.281 C 
ATOM      8  O   UNL d   1     -49.561  13.527  22.279  0.00  0.00    -0.265 OA
ATOM      9  N   UNL d   1     -49.158  14.401  23.331  0.00  0.00    -0.206 NA
BRANCH   9  10
ATOM     10  C   UNL d   1     -49.805  14.875  23.178  0.00  0.00     0.102 C 
BRANCH  10  11
ATOM     11  C   UNL d   1     -49.882  15.596  23.572  0.00  0.00     0.021 C 
ATOM     12  C   UNL d   1     -50.631  15.921  23.697  0.00  0.00     0.002 C 
ENDBRANCH  10  11
ENDBRANCH   9  10
ENDBRANCH   2   7
BRANCH   1  13
ATOM     13  S   UNL d   1     -46.227  13.237  22.708  0.00  0.00     0.252 S 
ATOM     14  O   UNL d   1     -46.033  13.400  23.493  0.00  0.00    -0.204 OA
ATOM     15  O   UNL d   1     -46.421  13.075  21.926  0.00  0.00    -0.204 OA
ATOM     16  C   UNL d   1     -45.475  13.479  22.472  0.00  0.00     0.164 C 
ENDBRANCH   1  13
TORSDOF 4
ENDMDL
MODEL 2
REMARK VINA RESULT:      -6.3      1.655      3.900
REMARK  4 active torsions:
REMARK  status: ('A' for Active; 'I' for Inactive)
REMARK    1  A    between atoms: N_2  and  S_1 
REMARK    2  A    between atoms: C_4  and  C_3 
REMARK       I    between atoms: N_9  and  C_4 
REMARK    3  A    between atoms: C_15  and  N_9 
REMARK    4  A    between atoms: C_10  and  C_15 
ROOT
ATOM      1  N   UNL d   1     -48.271  13.393  22.300  0.00  0.00    -0.233 N 
ATOM      2  C   UNL d   1     -46.911  13.586  22.669  0.00  0.00     0.076 A 
ATOM      3  C   UNL d   1     -47.507  13.098  22.393  0.00  0.00     0.096 A 
ATOM      4  C   UNL d   1     -48.435  14.178  22.484  0.00  0.00     0.091 A 
ATOM      5  C   UNL d   1     -47.072  14.375  22.855  0.00  0.00     0.008 A 
ATOM      6  C   UNL d   1     -47.833  14.667  22.762  0.00  0.00     0.020 A 
ENDROOT
BRANCH   2   7
ATOM      7  C   UNL d   1     -46.144  13.288  22.762  0.00  0.00     0.281 C 
ATOM      8  O   UNL d   1     -45.898  13.004  23.493  0.00  0.00    -0.265 OA
ATOM      9  N   UNL d   1     -45.624  13.276  22.121  0.00  0.00    -0.206 NA
BRANCH   9  10
ATOM     10  C   UNL d   1     -44.869  12.980  22.219  0.00  0.00     0.102 C 
BRANCH  10  11
ATOM     11  C   UNL d   1     -44.354  12.963  21.574  0.00  0.00     0.021 C 
ATOM     12  C   UNL d   1     -43.601  12.633  21.656  0.00  0.00     0.002 C 
ENDBRANCH  10  11
ENDBRANCH   9  10
ENDBRANCH   2   7
BRANCH   1  13
ATOM     13  S   UNL d   1     -48.871  12.901  22.022  0.00  0.00     0.252 S 
ATOM     14  O   UNL d   1     -48.712  13.143  21.249  0.00  0.00    -0.204 OA
ATOM     15  O   UNL d   1     -49.031  12.660  22.791  0.00  0.00    -0.204 OA
ATOM     16  C   UNL d   1     -49.472  12.409  21.744  0.00  0.00     0.164 C 
ENDBRANCH   1  13
TORSDOF 4
ENDMDL
MODEL 3
REMARK VINA RESULT:      -6.2      0.965      1.473
REMARK  4 active torsions:
REMARK  status: ('A' for Active; 'I' for Inactive)
REMARK    1  A    between atoms: N_2  and  S_1 
REMARK    2  A    between atoms: C_4  and  C_3 
REMARK       I    between atoms: N_9  and  C_4 
REMARK    3  A    between atoms: C_15  and  N_9 
REMARK    4  A    between atoms: C_10  and  C_15 
ROOT
ATOM      1  N   UNL d   1     -46.929  12.996  23.173  0.00  0.00    -0.233 N 
ATOM      2  C   UNL d   1     -47.759  14.082  22.776  0.00  0.00     0.076 A 
ATOM      3  C   UNL d   1     -47.679  13.310  23.036  0.00  0.00     0.096 A 
ATOM      4  C   UNL d   1     -46.260  13.460  23.048  0.00  0.00     0.091 A 
ATOM      5  C   UNL d   1     -47.089  14.550  22.650  0.00  0.00     0.008 A 
ATOM      6  C   UNL d   1     -46.343  14.236  22.787  0.00  0.00     0.020 A 
ENDROOT
BRANCH   2   7
ATOM      7  C   UNL d   1     -48.513  14.395  22.638  0.00  0.00     0.281 C 
ATOM      8  O   UNL d   1     -48.886  14.269  21.917  0.00  0.00    -0.265 OA
ATOM      9  N   UNL d   1     -48.892  14.834  23.225  0.00  0.00    -0.206 NA
BRANCH   9  10
ATOM     10  C   UNL d   1     -49.636  15.141  23.084  0.00  0.00     0.102 C 
BRANCH  10  11
ATOM     11  C   UNL d   1     -50.046  15.508  23.698  0.00  0.00     0.021 C 
ATOM     12  C   UNL d   1     -50.788  15.845  23.557  0.00  0.00     0.002 C 
ENDBRANCH  10  11
ENDBRANCH   9  10
ENDBRANCH   2   7
BRANCH   1  13
ATOM     13  S   UNL d   1     -46.849  12.219  23.435  0.00  0.00     0.252 S 
ATOM     14  O   UNL d   1     -46.067  12.371  23.648  0.00  0.00    -0.204 OA
ATOM     15  O   UNL d   1     -47.629  12.067  23.223  0.00  0.00    -0.204 OA
ATOM     16  C   UNL d   1     -46.769  11.441  23.697  0.00  0.00     0.164 C 
ENDBRANCH   1  13
TORSDOF 4
ENDMDL
MODEL 4
REMARK VINA RESULT:      -6.2      2.077      3.661
REMARK  4 active torsions:
REMARK  status: ('A' for Active; 'I' for Inactive)
REMARK    1  A    between atoms: N_2  and  S_1 
REMARK    2  A    between atoms: C_4  and  C_3 
REMARK       I    between atoms: N_9  and  C_4 
REMARK    3  A    between atoms: C_15  and  N_9 
REMARK    4  A    between atoms: C_10  and  C_15 
ROOT
ATOM      1  N   UNL d   1     -49.769  12.448  22.568  0.00  0.00    -0.233 N 
ATOM      2  C   UNL d   1     -48.560  13.126  22.248  0.00  0.00     0.076 A 
ATOM      3  C   UNL d   1     -49.063  12.799  22.806  0.00  0.00     0.096 A 
ATOM      4  C   UNL d   1     -49.970  12.426  21.770  0.00  0.00     0.091 A 
ATOM      5  C   UNL d   1     -48.759  13.106  21.446  0.00  0.00     0.008 A 
ATOM      6  C   UNL d   1     -49.463  12.755  21.211  0.00  0.00     0.020 A 
ENDROOT
BRANCH   2   7
ATOM      7  C   UNL d   1     -47.851  13.479  22.489  0.00  0.00     0.281 C 
ATOM      8  O   UNL d   1     -47.862  14.201  22.882  0.00  0.00    -0.265 OA
ATOM      9  N   UNL d   1     -47.131  13.107  22.335  0.00  0.00    -0.206 NA
BRANCH   9  10
ATOM     10  C   UNL d   1     -46.434  13.460  22.575  0.00  0.00     0.102 C 
BRANCH  10  11
ATOM     11  C   UNL d   1     -45.724  13.046  22.503  0.00  0.00     0.021 C 
ATOM     12  C   UNL d   1     -45.088  13.383  22.097  0.00  0.00     0.002 C 
ENDBRANCH  10  11
ENDBRANCH   9  10
ENDBRANCH   2   7
BRANCH   1  13
ATOM     13  S   UNL d   1     -50.275  12.119  23.130  0.00  0.00     0.252 S 
ATOM     14  O   UNL d   1     -49.833  11.422  23.119  0.00  0.00    -0.204 OA
ATOM     15  O   UNL d   1     -50.715  12.813  23.140  0.00  0.00    -0.204 OA
ATOM     16  C   UNL d   1     -50.781  11.789  23.692  0.00  0.00     0.164 C 
ENDBRANCH   1  13
TORSDOF 4
ENDMDL
MODEL 5
REMARK VINA RESULT:      -6.2      2.008      3.727
REMARK  4 active torsions:
REMARK  status: ('A' for Active; 'I' for Inactive)
REMARK    1  A    between atoms: N_2  and  S_1 
REMARK    2  A    between atoms: C_4  and  C_3 
REMARK       I    between atoms: N_9  and  C_4 
REMARK    3  A    between atoms: C_15  and  N_9 
REMARK    4  A    between atoms: C_10  and  C_15 
ROOT
ATOM      1  N   UNL d   1     -49.983  13.713  22.711  0.00  0.00    -0.233 N 
ATOM      2  C   UNL d   1     -49.379  12.428  22.810  0.00  0.00     0.076 A 
ATOM      3  C   UNL d   1     -49.494  13.182  23.109  0.00  0.00     0.096 A 
ATOM      4  C   UNL d   1     -50.356  13.485  22.013  0.00  0.00     0.091 A 
ATOM      5  C   UNL d   1     -49.752  12.197  22.110  0.00  0.00     0.008 A 
ATOM      6  C   UNL d   1     -50.239  12.727  21.715  0.00  0.00     0.020 A 
ENDROOT
BRANCH   2   7
ATOM      7  C   UNL d   1     -48.887  11.897  23.211  0.00  0.00     0.281 C 
ATOM      8  O   UNL d   1     -49.212  11.255  23.611  0.00  0.00    -0.265 OA
ATOM      9  N   UNL d   1     -48.070  12.008  23.212  0.00  0.00    -0.206 NA
BRANCH   9  10
ATOM     10  C   UNL d   1     -47.590  11.480  23.609  0.00  0.00     0.102 C 
BRANCH  10  11
ATOM     11  C   UNL d   1     -46.787  11.650  23.697  0.00  0.00     0.021 C 
ATOM     12  C   UNL d   1     -46.232  11.038  23.681  0.00  0.00     0.002 C 
ENDBRANCH  10  11
ENDBRANCH   9  10
ENDBRANCH   2   7
BRANCH   1  13
ATOM     13  S   UNL d   1     -50.099  14.471  23.012  0.00  0.00     0.252 S 
ATOM     14  O   UNL d   1     -50.674  14.179  23.527  0.00  0.00    -0.204 OA
ATOM     15  O   UNL d   1     -49.526  14.762  22.499  0.00  0.00    -0.204 OA
ATOM     16  C   UNL d   1     -50.215  15.230  23.313  0.00  0.00     0.164 C 
ENDBRANCH   1  13
TORSDOF 4
ENDMDL
MODEL 6
REMARK VINA RESULT:      -6.2      2.153      3.665
REMARK  4 active torsions:
REMARK  status: ('A' for Active; 'I' for Inactive)
REMARK    1  A    between atoms: N_2  and  S_1 
REMARK    2  A    between atoms: C_4  and  C_3 
REMARK       I    between atoms: N_9  and  C_4 
REMARK    3  A    between atoms: C_15  and  N_9 
REMARK    4  A    between atoms: C_10  and  C_15 
ROOT
ATOM      1  N   UNL d   1     -50.263  12.663  22.566  0.00  0.00    -0.233 N 
ATOM      2  C   UNL d   1     -49.065  12.083  23.070  0.00  0.00     0.076 A 
ATOM      3  C   UNL d   1     -49.446  12.563  22.526  0.00  0.00     0.096 A 
ATOM      4  C   UNL d   1     -50.696  12.281  23.153  0.00  0.00     0.091 A 
ATOM      5  C   UNL d   1     -49.498  11.698  23.660  0.00  0.00     0.008 A 
ATOM      6  C   UNL d   1     -50.311  11.799  23.698  0.00  0.00     0.020 A 
ENDROOT
BRANCH   2   7
ATOM      7  C   UNL d   1     -48.244  11.984  23.029  0.00  0.00     0.281 C 
ATOM      8  O   UNL d   1     -47.923  11.230  22.956  0.00  0.00    -0.265 OA
ATOM      9  N   UNL d   1     -47.746  12.640  23.060  0.00  0.00    -0.206 NA
BRANCH   9  10
ATOM     10  C   UNL d   1     -46.936  12.536  23.018  0.00  0.00     0.102 C 
BRANCH  10  11
ATOM     11  C   UNL d   1     -46.438  13.186  23.116  0.00  0.00     0.021 C 
ATOM     12  C   UNL d   1     -45.820  13.317  22.584  0.00  0.00     0.002 C 
ENDBRANCH  10  11
ENDBRANCH   9  10
ENDBRANCH   2   7
BRANCH   1  13
ATOM     13  S   UNL d   1     -50.646  13.145  22.019  0.00  0.00     0.252 S 
ATOM     14  O   UNL d   1     -50.568  12.557  21.445  0.00  0.00    -0.204 OA
ATOM     15  O   UNL d   1     -50.724  13.731  22.590  0.00  0.00    -0.204 OA
ATOM     16  C   UNL d   1     -51.029  13.629  21.471  0.00  0.00     0.164 C 
ENDBRANCH   1  13
TORSDOF 4
ENDMDL
MODEL 7
REMARK VINA RESULT:      -6.0      1.450      3.631
REMARK  4 active torsions:
REMARK  status: ('A' for Active; 'I' for Inactive)
REMARK    1  A    between atoms: N_2  and  S_1 
REMARK    2  A    between atoms: C_4  and  C_3 
REMARK       I    between atoms: N_9  and  C_4 
REMARK    3  A    between atoms: C_15  and  N_9 
REMARK    4  A    between atoms: C_10  and  C_15 
ROOT
ATOM      1  N   UNL d   1     -48.463  12.956  22.897  0.00  0.00    -0.233 N 
ATOM      2  C   UNL d   1     -47.076  12.805  23.175  0.00  0.00     0.076 A 
ATOM      3  C   UNL d   1     -47.688  13.231  22.838  0.00  0.00     0.096 A 
ATOM      4  C   UNL d   1     -48.621  12.252  23.294  0.00  0.00     0.091 A 
ATOM      5  C   UNL d   1     -47.231  12.098  23.574  0.00  0.00     0.008 A 
ATOM      6  C   UNL d   1     -48.003  11.826  23.632  0.00  0.00     0.020 A 
ENDROOT
BRANCH   2   7
ATOM      7  C   UNL d   1     -46.298  13.083  23.115  0.00  0.00     0.281 C 
ATOM      8  O   UNL d   1     -45.990  13.576  23.698  0.00  0.00    -0.265 OA
ATOM      9  N   UNL d   1     -45.830  12.868  22.471  0.00  0.00    -0.206 NA
BRANCH   9  10
ATOM     10  C   UNL d   1     -45.063  13.146  22.417  0.00  0.00     0.102 C 
BRANCH  10  11
ATOM     11  C   UNL d   1     -44.650  13.060  21.708  0.00  0.00     0.021 C 
ATOM     12  C   UNL d   1     -43.888  12.739  21.710  0.00  0.00     0.002 C 
ENDBRANCH  10  11
ENDBRANCH   9  10
ENDBRANCH   2   7
BRANCH   1  13
ATOM     13  S   UNL d   1     -49.079  13.385  22.558  0.00  0.00     0.252 S 
ATOM     14  O   UNL d   1     -49.196  13.782  23.271  0.00  0.00    -0.204 OA
ATOM     15  O   UNL d   1     -48.963  12.989  21.846  0.00  0.00    -0.204 OA
ATOM     16  C   UNL d   1     -49.697  13.814  22.218  0.00  0.00     0.164 C 
ENDBRANCH   1  13
TORSDOF 4
ENDMDL
MODEL 8
REMARK VINA RESULT:      -5.1      8.627      9.314
REMARK  4 active torsions:
REMARK  status: ('A' for Active; 'I' for Inactive)
REMARK    1  A    between atoms: N_2  and  S_1 
REMARK    2  A    between atoms: C_4  and  C_3 
REMARK       I    between atoms: N_9  and  C_4 
REMARK    3  A    between atoms: C_15  and  N_9 
REMARK    4  A    between atoms: C_10  and  C_15 
ROOT
ATOM      1  N   UNL d   1     -40.398  14.924  17.690  0.00  0.00    -0.233 N 
ATOM      2  C   UNL d   1     -40.165  14.561  19.046  0.00  0.00     0.076 A 
ATOM      3  C   UNL d   1     -40.537  15.038  18.494  0.00  0.00     0.096 A 
ATOM      4  C   UNL d   1     -39.883  14.331  17.441  0.00  0.00     0.091 A 
ATOM      5  C   UNL d   1     -39.648  13.965  18.799  0.00  0.00     0.008 A 
ATOM      6  C   UNL d   1     -39.510  13.853  17.997  0.00  0.00     0.020 A 
ENDROOT
BRANCH   2   7
ATOM      7  C   UNL d   1     -40.306  14.676  19.853  0.00  0.00     0.281 C 
ATOM      8  O   UNL d   1     -40.921  14.276  20.225  0.00  0.00    -0.265 OA
ATOM      9  N   UNL d   1     -39.831  15.193  20.287  0.00  0.00    -0.206 NA
BRANCH   9  10
ATOM     10  C   UNL d   1     -39.976  15.303  21.084  0.00  0.00     0.102 C 
BRANCH  10  11
ATOM     11  C   UNL d   1     -39.592  15.913  21.485  0.00  0.00     0.021 C 
ATOM     12  C   UNL d   1     -39.407  15.828  22.286  0.00  0.00     0.002 C 
ENDBRANCH  10  11
ENDBRANCH   9  10
ENDBRANCH   2   7
BRANCH   1  13
ATOM     13  S   UNL d   1     -40.772  15.405  17.135  0.00  0.00     0.252 S 
ATOM     14  O   UNL d   1     -41.413  14.885  17.119  0.00  0.00    -0.204 OA
ATOM     15  O   UNL d   1     -40.134  15.922  17.151  0.00  0.00    -0.204 OA
ATOM     16  C   UNL d   1     -41.148  15.885  16.579  0.00  0.00     0.164 C 
ENDBRANCH   1  13
TORSDOF 4
ENDMDL
MODEL 9
REMARK VINA RESULT:      -4.4      8.409      9.288
REMARK  4 active torsions:
REMARK  status: ('A' for Active; 'I' for Inactive)
REMARK    1  A    between atoms: N_2  and  S_1 
REMARK    2  A    between atoms: C_4  and  C_3 
REMARK       I    between atoms: N_9  and  C_4 
REMARK    3  A    between atoms: C_15  and  N_9 
REMARK    4  A    between atoms: C_10  and  C_15 
ROOT
ATOM      1  N   UNL d   1     -40.357  15.024  19.247  0.00  0.00    -0.233 N 
ATOM      2  C   UNL d   1     -39.780  15.102  20.546  0.00  0.00     0.076 A 
ATOM      3  C   UNL d   1     -39.786  14.784  19.791  0.00  0.00     0.096 A 
ATOM      4  C   UNL d   1     -40.921  15.583  19.462  0.00  0.00     0.091 A 
ATOM      5  C   UNL d   1     -40.346  15.664  20.764  0.00  0.00     0.008 A 
ATOM      6  C   UNL d   1     -40.913  15.901  20.221  0.00  0.00     0.020 A 
ENDROOT
BRANCH   2   7
ATOM      7  C   UNL d   1     -39.206  14.860  21.091  0.00  0.00     0.281 C 
ATOM      8  O   UNL d   1     -38.459  15.205  21.083  0.00  0.00    -0.265 OA
ATOM      9  N   UNL d   1     -39.381  14.273  21.643  0.00  0.00    -0.206 NA
BRANCH   9  10
ATOM     10  C   UNL d   1     -38.810  14.039  22.179  0.00  0.00     0.102 C 
BRANCH  10  11
ATOM     11  C   UNL d   1     -38.955  13.388  22.665  0.00  0.00     0.021 C 
ATOM     12  C   UNL d   1     -38.591  13.337  23.406  0.00  0.00     0.002 C 
ENDBRANCH  10  11
ENDBRANCH   9  10
ENDBRANCH   2   7
BRANCH   1  13
ATOM     13  S   UNL d   1     -40.362  14.703  18.488  0.00  0.00     0.252 S 
ATOM     14  O   UNL d   1     -39.934  15.352  18.211  0.00  0.00    -0.204 OA
ATOM     15  O   UNL d   1     -40.788  14.057  18.764  0.00  0.00    -0.204 OA
ATOM     16  C   UNL d   1     -40.368  14.382  17.728  0.00  0.00     0.164 C 
ENDBRANCH   1  13
TORSDOF 4
ENDMDL
