MODEL 1
REMARK VINA RESULT:      50.1      0.000      0.000
REMARK  3 active torsions:
REMARK  status: ('A' for Active; 'I' for Inactive)
REMARK    1  A    between atoms: N_4  and  C_2 
REMARK    2  A    between atoms: C_9  and  C_3 
REMARK       I    between atoms: C_7  and  N_4 
REMARK    3  A    between atoms: C_8  and  C_7 
ROOT
ATOM      1  N   UNL d   1     -49.971  26.720  33.856  0.00  0.00    -0.051 NA
ATOM      2  C   UNL d   1     -50.005  27.539  33.824  0.00  0.00     0.760 A 
ATOM      3  C   UNL d   1     -50.672  26.422  33.536  0.00  0.00     0.147 A 
ATOM      4  N   UNL d   1     -50.726  27.753  33.485  0.00  0.00    -0.019 NA
ATOM      5  S   UNL d   1     -51.140  27.066  33.306  0.00  0.00     0.052 SA
ENDROOT
BRANCH   2   6
ATOM      6  N   UNL d   1     -49.466  28.127  34.062  0.00  0.00    -0.018 NA
ATOM      7  C   UNL d   1     -49.105  28.076  34.801  0.00  0.00     0.295 C 
ATOM      8  O   UNL d   1     -49.276  27.444  35.303  0.00  0.00    -0.265 OA
BRANCH   7   9
ATOM      9  C   UNL d   1     -48.572  28.658  35.036  0.00  0.00     0.059 A 
ATOM     10  C   UNL d   1     -48.239  28.627  35.790  0.00  0.00     0.007 A 
ATOM     11  C   UNL d   1     -47.704  29.215  36.020  0.00  0.00     0.030 A 
ATOM     12  C   UNL d   1     -47.504  29.826  35.504  0.00  0.00     0.140 A 
ATOM     13  C   UNL d   1     -47.836  29.857  34.751  0.00  0.00     0.030 A 
ATOM     14  F   UNL d   1     -46.970  30.403  35.748  0.00  0.00    -0.204 F 
ATOM     15  C   UNL d   1     -48.369  29.275  34.515  0.00  0.00     0.007 A 
ENDBRANCH   7   9
ENDBRANCH   2   6
BRANCH   3  16
ATOM     16  C   UNL d   1     -50.870  25.629  33.460  0.00  0.00     0.026 A 
ATOM     17  C   UNL d   1     -51.663  25.397  33.446  0.00  0.00     0.002 A 
ATOM     18  C   UNL d   1     -51.863  24.601  33.369  0.00  0.00     0.000 A 
ATOM     19  C   UNL d   1     -51.266  24.035  33.306  0.00  0.00     0.000 A 
ATOM     20  C   UNL d   1     -50.476  24.258  33.319  0.00  0.00     0.000 A 
ATOM     21  C   UNL d   1     -50.276  25.055  33.396  0.00  0.00     0.002 A 
ENDBRANCH   3  16
TORSDOF 3
ENDMDL
MODEL 2
REMARK VINA RESULT:      50.2      0.833      1.137
REMARK  3 active torsions:
REMARK  status: ('A' for Active; 'I' for Inactive)
REMARK    1  A    between atoms: N_4  and  C_2 
REMARK    2  A    between atoms: C_9  and  C_3 
REMARK       I    between atoms: C_7  and  N_4 
REMARK    3  A    between atoms: C_8  and  C_7 
ROOT
ATOM      1  N   UNL d   1     -50.783  25.930  33.941  0.00  0.00    -0.051 NA
ATOM      2  C   UNL d   1     -50.841  26.747  33.904  0.00  0.00     0.760 A 
ATOM      3  C   UNL d   1     -51.447  25.608  33.572  0.00  0.00     0.147 A 
ATOM      4  N   UNL d   1     -51.542  26.936  33.512  0.00  0.00    -0.019 NA
ATOM      5  S   UNL d   1     -51.919  26.236  33.306  0.00  0.00     0.052 SA
ENDROOT
BRANCH   2   6
ATOM      6  N   UNL d   1     -50.341  27.352  34.180  0.00  0.00    -0.018 NA
ATOM      7  C   UNL d   1     -49.534  27.209  34.271  0.00  0.00     0.295 C 
ATOM      8  O   UNL d   1     -49.224  26.466  34.089  0.00  0.00    -0.265 OA
BRANCH   7   9
ATOM      9  C   UNL d   1     -49.040  27.808  34.543  0.00  0.00     0.059 A 
ATOM     10  C   UNL d   1     -48.505  27.653  35.150  0.00  0.00     0.007 A 
ATOM     11  C   UNL d   1     -48.011  28.259  35.419  0.00  0.00     0.030 A 
ATOM     12  C   UNL d   1     -48.051  29.013  35.086  0.00  0.00     0.140 A 
ATOM     13  C   UNL d   1     -48.586  29.168  34.480  0.00  0.00     0.030 A 
ATOM     14  F   UNL d   1     -47.553  29.605  35.366  0.00  0.00    -0.204 F 
ATOM     15  C   UNL d   1     -49.081  28.569  34.207  0.00  0.00     0.007 A 
ENDBRANCH   7   9
ENDBRANCH   2   6
BRANCH   3  16
ATOM     16  C   UNL d   1     -51.613  24.809  33.484  0.00  0.00     0.026 A 
ATOM     17  C   UNL d   1     -52.395  24.544  33.478  0.00  0.00     0.002 A 
ATOM     18  C   UNL d   1     -52.562  23.741  33.390  0.00  0.00     0.000 A 
ATOM     19  C   UNL d   1     -51.943  23.202  33.306  0.00  0.00     0.000 A 
ATOM     20  C   UNL d   1     -51.164  23.459  33.311  0.00  0.00     0.000 A 
ATOM     21  C   UNL d   1     -50.997  24.262  33.400  0.00  0.00     0.002 A 
ENDBRANCH   3  16
TORSDOF 3
ENDMDL
MODEL 3
REMARK VINA RESULT:      51.5      0.660      1.037
REMARK  3 active torsions:
REMARK  status: ('A' for Active; 'I' for Inactive)
REMARK    1  A    between atoms: N_4  and  C_2 
REMARK    2  A    between atoms: C_9  and  C_3 
REMARK       I    between atoms: C_7  and  N_4 
REMARK    3  A    between atoms: C_8  and  C_7 
ROOT
ATOM      1  N   UNL d   1     -50.365  26.792  33.798  0.00  0.00    -0.051 NA
ATOM      2  C   UNL d   1     -49.571  26.996  33.771  0.00  0.00     0.760 A 
ATOM      3  C   UNL d   1     -50.442  26.021  33.513  0.00  0.00     0.147 A 
ATOM      4  N   UNL d   1     -49.152  26.353  33.468  0.00  0.00    -0.019 NA
ATOM      5  S   UNL d   1     -49.686  25.749  33.308  0.00  0.00     0.052 SA
ENDROOT
BRANCH   2   6
ATOM      6  N   UNL d   1     -49.169  27.692  33.984  0.00  0.00    -0.018 NA
ATOM      7  C   UNL d   1     -48.912  27.796  34.760  0.00  0.00     0.295 C 
ATOM      8  O   UNL d   1     -49.054  27.211  35.324  0.00  0.00    -0.265 OA
BRANCH   7   9
ATOM      9  C   UNL d   1     -48.515  28.485  34.971  0.00  0.00     0.059 A 
ATOM     10  C   UNL d   1     -48.160  28.543  35.713  0.00  0.00     0.007 A 
ATOM     11  C   UNL d   1     -47.762  29.239  35.918  0.00  0.00     0.030 A 
ATOM     12  C   UNL d   1     -47.718  29.870  35.388  0.00  0.00     0.140 A 
ATOM     13  C   UNL d   1     -48.072  29.812  34.648  0.00  0.00     0.030 A 
ATOM     14  F   UNL d   1     -47.318  30.555  35.608  0.00  0.00    -0.204 F 
ATOM     15  C   UNL d   1     -48.471  29.123  34.436  0.00  0.00     0.007 A 
ENDBRANCH   7   9
ENDBRANCH   2   6
BRANCH   3  16
ATOM     16  C   UNL d   1     -51.142  25.598  33.444  0.00  0.00     0.026 A 
ATOM     17  C   UNL d   1     -51.129  24.772  33.414  0.00  0.00     0.002 A 
ATOM     18  C   UNL d   1     -51.832  24.347  33.345  0.00  0.00     0.000 A 
ATOM     19  C   UNL d   1     -52.551  24.750  33.306  0.00  0.00     0.000 A 
ATOM     20  C   UNL d   1     -52.571  25.570  33.335  0.00  0.00     0.000 A 
ATOM     21  C   UNL d   1     -51.868  25.995  33.404  0.00  0.00     0.002 A 
ENDBRANCH   3  16
TORSDOF 3
ENDMDL
