MODEL 1
REMARK VINA RESULT:      19.6      0.000      0.000
REMARK  3 active torsions:
REMARK  status: ('A' for Active; 'I' for Inactive)
REMARK    1  A    between atoms: C_9  and  C_3 
REMARK    2  A    between atoms: C_8  and  C_5 
REMARK    3  A    between atoms: O_19  and  C_9 
ROOT
ATOM      1  N   UNL d   1      46.453 -18.961  42.318  0.00  0.00    -0.278 N 
ATOM      2  C   UNL d   1      46.476 -18.407  41.706  0.00  0.00     0.178 A 
ATOM      3  C   UNL d   1      46.283 -17.904  43.267  0.00  0.00     0.075 A 
ATOM      4  N   UNL d   1      46.402 -17.589  41.864  0.00  0.00    -0.223 NA
ATOM      5  C   UNL d   1      46.357 -18.703  43.095  0.00  0.00     0.178 A 
ATOM      6  C   UNL d   1      46.306 -17.351  42.656  0.00  0.00     0.086 A 
ATOM      7  C   UNL d   1      46.527 -19.759  42.145  0.00  0.00     0.263 A 
ATOM      8  S   UNL d   1      46.572 -18.646  40.915  0.00  0.00    -0.050 SA
ATOM      9  C   UNL d   1      46.624 -20.020  41.365  0.00  0.00     0.068 A 
ATOM     10  O   UNL d   1      46.504 -20.312  42.756  0.00  0.00    -0.267 OA
ATOM     11  C   UNL d   1      46.646 -19.467  40.754  0.00  0.00     0.043 A 
ATOM     12  C   UNL d   1      46.230 -16.504  42.816  0.00  0.00     0.021 C 
ENDROOT
BRANCH   5  13
ATOM     13  C   UNL d   1      46.334 -19.255  43.706  0.00  0.00     0.024 A 
ATOM     14  S   UNL d   1      46.048 -20.028  43.752  0.00  0.00    -0.089 SA
ATOM     15  C   UNL d   1      46.178 -20.305  44.506  0.00  0.00     0.035 A 
ATOM     16  C   UNL d   1      46.539 -19.717  44.925  0.00  0.00     0.007 A 
ATOM     17  C   UNL d   1      46.642 -19.073  44.455  0.00  0.00     0.004 A 
ENDBRANCH   5  13
BRANCH   3  18
ATOM     18  C   UNL d   1      46.184 -17.629  44.060  0.00  0.00     0.295 C 
ATOM     19  O   UNL d   1      46.646 -17.962  44.655  0.00  0.00    -0.259 OA
BRANCH  18  20
ATOM     20  O   UNL d   1      45.642 -17.042  44.247  0.00  0.00    -0.296 OA
ATOM     21  C   UNL d   1      45.744 -16.574  44.915  0.00  0.00     0.185 C 
ENDBRANCH  18  20
ENDBRANCH   3  18
TORSDOF 3
ENDMDL
