MODEL 1
REMARK VINA RESULT:      33.9      0.000      0.000
REMARK  5 active torsions:
REMARK  status: ('A' for Active; 'I' for Inactive)
REMARK    1  A    between atoms: S_6  and  C_2 
REMARK    2  A    between atoms: C_16  and  S_6 
REMARK    3  A    between atoms: C_8  and  C_16 
REMARK       I    between atoms: N_13  and  C_8 
REMARK    4  A    between atoms: C_19  and  N_13 
REMARK    5  A    between atoms: C_18  and  C_19 
ROOT
ATOM      1  C   UNL d   1      13.080  12.310  -3.850  0.00  0.00     0.286 C 
ATOM      2  N   UNL d   1      12.904  13.100  -3.728  0.00  0.00    -0.206 NA
ATOM      3  O   UNL d   1      13.182  12.023  -4.616  0.00  0.00    -0.265 OA
ENDROOT
BRANCH   1   4
ATOM      4  C   UNL d   1      13.157  11.793  -3.210  0.00  0.00     0.098 C 
BRANCH   4   5
ATOM      5  S   UNL d   1      13.855  11.784  -2.767  0.00  0.00    -0.080 SA
BRANCH   5   6
ATOM      6  C   UNL d   1      13.813  11.811  -1.945  0.00  0.00     0.049 A 
ATOM      7  C   UNL d   1      13.124  11.781  -1.487  0.00  0.00     0.087 A 
ATOM      8  N   UNL d   1      13.338  11.825  -0.691  0.00  0.00    -0.302 N 
ATOM      9  C   UNL d   1      14.163  11.882  -0.657  0.00  0.00     0.065 A 
ATOM     10  C   UNL d   1      12.831  11.814  -0.042  0.00  0.00     0.100 C 
ATOM     11  C   UNL d   1      14.454  11.873  -1.432  0.00  0.00     0.024 A 
ATOM     12  C   UNL d   1      14.688  11.940  -0.015  0.00  0.00     0.018 A 
ATOM     13  C   UNL d   1      15.269  11.923  -1.567  0.00  0.00     0.002 A 
ATOM     14  C   UNL d   1      15.786  11.981  -0.929  0.00  0.00     0.000 A 
ATOM     15  C   UNL d   1      15.496  11.990  -0.153  0.00  0.00     0.002 A 
ENDBRANCH   5   6
ENDBRANCH   4   5
ENDBRANCH   1   4
BRANCH   2  16
ATOM     16  C   UNL d   1      12.829  13.607  -4.364  0.00  0.00     0.102 C 
BRANCH  16  17
ATOM     17  C   UNL d   1      13.254  14.305  -4.423  0.00  0.00     0.021 A 
ATOM     18  C   UNL d   1      13.600  14.621  -3.742  0.00  0.00     0.028 A 
ATOM     19  C   UNL d   1      14.036  15.334  -3.796  0.00  0.00     0.119 A 
ATOM     20  O   UNL d   1      14.433  15.777  -3.247  0.00  0.00    -0.300 OA
ATOM     21  C   UNL d   1      14.108  15.703  -4.528  0.00  0.00     0.119 A 
ATOM     22  C   UNL d   1      14.759  16.426  -3.620  0.00  0.00     0.304 A 
ATOM     23  O   UNL d   1      14.560  16.385  -4.419  0.00  0.00    -0.300 OA
ATOM     24  C   UNL d   1      13.755  15.372  -5.204  0.00  0.00     0.026 A 
ATOM     25  C   UNL d   1      13.331  14.673  -5.135  0.00  0.00     0.004 A 
ENDBRANCH  16  17
ENDBRANCH   2  16
TORSDOF 5
ENDMDL
