MODEL 1
REMARK VINA RESULT:      -5.5      0.000      0.000
REMARK  1 active torsions:
REMARK  status: ('A' for Active; 'I' for Inactive)
REMARK    1  A    between atoms: C_5  and  C_2 
ROOT
ATOM      1  N   UNL d   1     -45.946  12.121  23.346  0.00  0.00    -0.217 NA
ATOM      2  C   UNL d   1     -46.628  12.558  23.310  0.00  0.00     0.113 A 
ATOM      3  C   UNL d   1     -46.145  11.354  23.587  0.00  0.00     0.215 A 
ATOM      4  S   UNL d   1     -46.977  11.338  23.698  0.00  0.00    -0.045 SA
ATOM      5  C   UNL d   1     -47.273  12.077  23.528  0.00  0.00     0.060 A 
ATOM      6  N   UNL d   1     -45.611  10.717  23.698  0.00  0.00    -0.120 N 
ENDROOT
BRANCH   2   7
ATOM      7  C   UNL d   1     -46.711  13.371  23.092  0.00  0.00     0.118 A 
ATOM      8  O   UNL d   1     -46.210  14.011  23.300  0.00  0.00    -0.304 OA
ATOM      9  C   UNL d   1     -46.530  14.700  22.946  0.00  0.00     0.123 A 
ATOM     10  C   UNL d   1     -47.209  14.478  22.534  0.00  0.00     0.029 A 
ATOM     11  C   UNL d   1     -47.319  13.673  22.623  0.00  0.00     0.028 A 
ENDBRANCH   2   7
TORSDOF 1
ENDMDL
MODEL 2
REMARK VINA RESULT:      -5.5      1.751      2.232
REMARK  1 active torsions:
REMARK  status: ('A' for Active; 'I' for Inactive)
REMARK    1  A    between atoms: C_5  and  C_2 
ROOT
ATOM      1  N   UNL d   1     -47.571  13.184  23.184  0.00  0.00    -0.217 NA
ATOM      2  C   UNL d   1     -47.641  13.961  22.964  0.00  0.00     0.113 A 
ATOM      3  C   UNL d   1     -46.768  12.982  23.156  0.00  0.00     0.215 A 
ATOM      4  S   UNL d   1     -46.349  13.666  22.909  0.00  0.00    -0.045 SA
ATOM      5  C   UNL d   1     -46.885  14.267  22.791  0.00  0.00     0.060 A 
ATOM      6  N   UNL d   1     -46.440  12.231  23.340  0.00  0.00    -0.120 N 
ENDROOT
BRANCH   2   7
ATOM      7  C   UNL d   1     -48.350  14.419  22.907  0.00  0.00     0.118 A 
ATOM      8  O   UNL d   1     -49.071  14.303  23.321  0.00  0.00    -0.304 OA
ATOM      9  C   UNL d   1     -49.599  14.903  23.069  0.00  0.00     0.123 A 
ATOM     10  C   UNL d   1     -49.204  15.369  22.516  0.00  0.00     0.029 A 
ATOM     11  C   UNL d   1     -48.447  15.076  22.417  0.00  0.00     0.028 A 
ENDBRANCH   2   7
TORSDOF 1
ENDMDL
MODEL 3
REMARK VINA RESULT:      -5.4      2.576      3.334
REMARK  1 active torsions:
REMARK  status: ('A' for Active; 'I' for Inactive)
REMARK    1  A    between atoms: C_5  and  C_2 
ROOT
ATOM      1  N   UNL d   1     -48.637  14.845  23.151  0.00  0.00    -0.217 NA
ATOM      2  C   UNL d   1     -48.315  14.207  22.767  0.00  0.00     0.113 A 
ATOM      3  C   UNL d   1     -49.378  14.998  22.815  0.00  0.00     0.215 A 
ATOM      4  S   UNL d   1     -49.499  14.429  22.211  0.00  0.00    -0.045 SA
ATOM      5  C   UNL d   1     -48.846  13.943  22.181  0.00  0.00     0.060 A 
ATOM      6  N   UNL d   1     -49.906  15.609  23.042  0.00  0.00    -0.120 N 
ENDROOT
BRANCH   2   7
ATOM      7  C   UNL d   1     -47.566  13.841  22.911  0.00  0.00     0.118 A 
ATOM      8  O   UNL d   1     -47.420  13.078  23.228  0.00  0.00    -0.304 OA
ATOM      9  C   UNL d   1     -46.588  12.979  23.260  0.00  0.00     0.123 A 
ATOM     10  C   UNL d   1     -46.242  13.668  22.968  0.00  0.00     0.029 A 
ATOM     11  C   UNL d   1     -46.835  14.191  22.756  0.00  0.00     0.028 A 
ENDBRANCH   2   7
TORSDOF 1
ENDMDL
MODEL 4
REMARK VINA RESULT:      -5.3      2.134      2.518
REMARK  1 active torsions:
REMARK  status: ('A' for Active; 'I' for Inactive)
REMARK    1  A    between atoms: C_5  and  C_2 
ROOT
ATOM      1  N   UNL d   1     -48.702  12.563  22.859  0.00  0.00    -0.217 NA
ATOM      2  C   UNL d   1     -48.219  12.959  22.342  0.00  0.00     0.113 A 
ATOM      3  C   UNL d   1     -49.390  12.345  22.451  0.00  0.00     0.215 A 
ATOM      4  S   UNL d   1     -49.309  12.624  21.664  0.00  0.00    -0.045 SA
ATOM      5  C   UNL d   1     -48.590  13.001  21.597  0.00  0.00     0.060 A 
ATOM      6  N   UNL d   1     -50.041  11.925  22.771  0.00  0.00    -0.120 N 
ENDROOT
BRANCH   2   7
ATOM      7  C   UNL d   1     -47.456  13.290  22.499  0.00  0.00     0.118 A 
ATOM      8  O   UNL d   1     -46.707  12.933  22.374  0.00  0.00    -0.304 OA
ATOM      9  C   UNL d   1     -46.127  13.487  22.616  0.00  0.00     0.123 A 
ATOM     10  C   UNL d   1     -46.519  14.163  22.880  0.00  0.00     0.029 A 
ATOM     11  C   UNL d   1     -47.325  14.043  22.809  0.00  0.00     0.028 A 
ENDBRANCH   2   7
TORSDOF 1
ENDMDL
MODEL 5
REMARK VINA RESULT:      -5.3      1.986      2.739
REMARK  1 active torsions:
REMARK  status: ('A' for Active; 'I' for Inactive)
REMARK    1  A    between atoms: C_5  and  C_2 
ROOT
ATOM      1  N   UNL d   1     -47.600  13.384  22.945  0.00  0.00    -0.217 NA
ATOM      2  C   UNL d   1     -47.876  12.642  23.122  0.00  0.00     0.113 A 
ATOM      3  C   UNL d   1     -46.780  13.387  23.065  0.00  0.00     0.215 A 
ATOM      4  S   UNL d   1     -46.565  12.618  23.323  0.00  0.00    -0.045 SA
ATOM      5  C   UNL d   1     -47.237  12.161  23.358  0.00  0.00     0.060 A 
ATOM      6  N   UNL d   1     -46.267  14.041  22.948  0.00  0.00    -0.120 N 
ENDROOT
BRANCH   2   7
ATOM      7  C   UNL d   1     -48.675  12.365  23.085  0.00  0.00     0.118 A 
ATOM      8  O   UNL d   1     -49.211  12.431  22.444  0.00  0.00    -0.304 OA
ATOM      9  C   UNL d   1     -49.929  12.071  22.684  0.00  0.00     0.123 A 
ATOM     10  C   UNL d   1     -49.825  11.795  23.454  0.00  0.00     0.029 A 
ATOM     11  C   UNL d   1     -49.065  11.973  23.698  0.00  0.00     0.028 A 
ENDBRANCH   2   7
TORSDOF 1
ENDMDL
