MODEL 1
REMARK VINA RESULT:      65.3      0.000      0.000
REMARK  5 active torsions:
REMARK  status: ('A' for Active; 'I' for Inactive)
REMARK    1  A    between atoms: N_5  and  S_1 
REMARK    2  A    between atoms: C_7  and  S_1 
REMARK       I    between atoms: C_4  and  N_2 
REMARK    3  A    between atoms: C_3  and  N_11 
REMARK    4  A    between atoms: C_6  and  C_4 
REMARK    5  A    between atoms: N_11  and  C_19 
ROOT
ATOM      1  C   UNL d   1      13.910  14.145  -3.613  0.00  0.00     0.104 A 
ATOM      2  C   UNL d   1      14.038  14.938  -3.851  0.00  0.00     0.014 A 
ATOM      3  C   UNL d   1      14.021  13.933  -2.800  0.00  0.00     0.014 A 
ATOM      4  C   UNL d   1      14.377  15.287  -2.486  0.00  0.00     0.084 A 
ATOM      5  C   UNL d   1      14.273  15.513  -3.284  0.00  0.00     0.020 A 
ATOM      6  C   UNL d   1      14.251  14.497  -2.245  0.00  0.00     0.020 A 
ENDROOT
BRANCH   4   7
ATOM      7  N   UNL d   1      14.611  15.858  -1.923  0.00  0.00    -0.217 NA
BRANCH   7   8
ATOM      8  C   UNL d   1      14.953  16.514  -2.161  0.00  0.00     0.224 C 
ATOM      9  N   UNL d   1      15.855  17.087  -1.368  0.00  0.00    -0.178 NA
ATOM     10  C   UNL d   1      16.040  16.774  -0.676  0.00  0.00     0.287 C 
ATOM     11  O   UNL d   1      16.576  17.115  -0.207  0.00  0.00    -0.265 OA
ATOM     12  S   UNL d   1      14.774  16.842  -2.861  0.00  0.00    -0.037 SA
BRANCH  10  13
ATOM     13  C   UNL d   1      15.682  16.101  -0.445  0.00  0.00     0.087 A 
ATOM     14  S   UNL d   1      14.946  16.026  -0.195  0.00  0.00    -0.082 SA
ATOM     15  C   UNL d   1      14.827  15.260  -0.025  0.00  0.00     0.036 A 
ATOM     16  C   UNL d   1      15.474  14.882  -0.170  0.00  0.00     0.008 A 
ATOM     17  C   UNL d   1      16.012  15.389  -0.430  0.00  0.00     0.012 A 
ENDBRANCH  10  13
ENDBRANCH   7   8
ENDBRANCH   4   7
BRANCH   1  18
ATOM     18  S   UNL d   1      13.675  13.570  -4.181  0.00  0.00     0.271 S 
ATOM     19  O   UNL d   1      14.441  13.276  -4.201  0.00  0.00    -0.200 OA
ATOM     20  O   UNL d   1      12.889  13.871  -4.160  0.00  0.00    -0.200 OA
BRANCH  18  21
ATOM     21  N   UNL d   1      13.445  13.009  -4.734  0.00  0.00    -0.229 N 
ATOM     22  C   UNL d   1      13.665  13.110  -5.561  0.00  0.00     0.092 A 
ATOM     23  C   UNL d   1      13.435  12.546  -6.117  0.00  0.00     0.020 A 
ATOM     24  C   UNL d   1      12.979  11.869  -5.859  0.00  0.00     0.003 A 
ATOM     25  C   UNL d   1      12.775  11.782  -5.069  0.00  0.00     0.020 A 
ATOM     26  C   UNL d   1      13.008  12.353  -4.506  0.00  0.00     0.092 A 
ENDBRANCH  18  21
ENDBRANCH   1  18
TORSDOF 5
ENDMDL
MODEL 2
REMARK VINA RESULT:      66.0      2.803      4.984
REMARK  5 active torsions:
REMARK  status: ('A' for Active; 'I' for Inactive)
REMARK    1  A    between atoms: N_5  and  S_1 
REMARK    2  A    between atoms: C_7  and  S_1 
REMARK       I    between atoms: C_4  and  N_2 
REMARK    3  A    between atoms: C_3  and  N_11 
REMARK    4  A    between atoms: C_6  and  C_4 
REMARK    5  A    between atoms: N_11  and  C_19 
ROOT
ATOM      1  C   UNL d   1      14.043  16.722  -5.008  0.00  0.00     0.104 A 
ATOM      2  C   UNL d   1      14.442  16.538  -4.294  0.00  0.00     0.014 A 
ATOM      3  C   UNL d   1      13.574  16.126  -5.386  0.00  0.00     0.014 A 
ATOM      4  C   UNL d   1      13.907  15.192  -4.349  0.00  0.00     0.084 A 
ATOM      5  C   UNL d   1      14.374  15.768  -3.963  0.00  0.00     0.020 A 
ATOM      6  C   UNL d   1      13.507  15.372  -5.061  0.00  0.00     0.020 A 
ENDROOT
BRANCH   4   7
ATOM      7  N   UNL d   1      13.839  14.428  -4.019  0.00  0.00    -0.217 NA
BRANCH   7   8
ATOM      8  C   UNL d   1      14.066  14.305  -3.286  0.00  0.00     0.224 C 
ATOM      9  N   UNL d   1      13.923  13.087  -2.770  0.00  0.00    -0.178 NA
ATOM     10  C   UNL d   1      13.618  12.504  -3.192  0.00  0.00     0.287 C 
ATOM     11  O   UNL d   1      13.533  11.781  -2.884  0.00  0.00    -0.265 OA
ATOM     12  S   UNL d   1      14.377  14.888  -2.848  0.00  0.00    -0.037 SA
BRANCH  10  13
ATOM     13  C   UNL d   1      13.390  12.644  -3.942  0.00  0.00     0.087 A 
ATOM     14  S   UNL d   1      13.690  12.326  -4.589  0.00  0.00    -0.082 SA
ATOM     15  C   UNL d   1      13.295  12.625  -5.209  0.00  0.00     0.036 A 
ATOM     16  C   UNL d   1      12.770  13.112  -4.943  0.00  0.00     0.008 A 
ATOM     17  C   UNL d   1      12.816  13.134  -4.161  0.00  0.00     0.012 A 
ENDBRANCH  10  13
ENDBRANCH   7   8
ENDBRANCH   4   7
BRANCH   1  18
ATOM     18  S   UNL d   1      14.111  17.492  -5.340  0.00  0.00     0.271 S 
ATOM     19  O   UNL d   1      14.066  17.171  -6.094  0.00  0.00    -0.200 OA
ATOM     20  O   UNL d   1      14.157  17.822  -4.567  0.00  0.00    -0.200 OA
BRANCH  18  21
ATOM     21  N   UNL d   1      14.178  18.244  -5.664  0.00  0.00    -0.229 N 
ATOM     22  C   UNL d   1      13.499  18.602  -6.055  0.00  0.00     0.092 A 
ATOM     23  C   UNL d   1      13.566  19.357  -6.380  0.00  0.00     0.020 A 
ATOM     24  C   UNL d   1      14.313  19.770  -6.322  0.00  0.00     0.003 A 
ATOM     25  C   UNL d   1      14.954  19.420  -5.948  0.00  0.00     0.020 A 
ATOM     26  C   UNL d   1      14.886  18.655  -5.618  0.00  0.00     0.092 A 
ENDBRANCH  18  21
ENDBRANCH   1  18
TORSDOF 5
ENDMDL
