MODEL 1
REMARK VINA RESULT:     -10.1      0.000      0.000
REMARK  5 active torsions:
REMARK  status: ('A' for Active; 'I' for Inactive)
REMARK       I    between atoms: C_3  and  N_1 
REMARK    1  A    between atoms: C_8  and  C_3 
REMARK    2  A    between atoms: S_4  and  N_9 
REMARK    3  A    between atoms: C_16  and  C_5 
REMARK    4  A    between atoms: C_10  and  C_6 
REMARK    5  A    between atoms: N_9  and  C_21 
ROOT
ATOM      1  N   UNL d   1      53.045  32.514  53.572  0.00  0.00    -0.193 N 
ATOM      2  N   UNL d   1      52.331  32.611  53.167  0.00  0.00    -0.163 NA
ATOM      3  C   UNL d   1      53.449  31.801  53.671  0.00  0.00     0.303 C 
ATOM      4  C   UNL d   1      53.275  33.259  53.857  0.00  0.00     0.088 A 
ATOM      5  C   UNL d   1      52.121  33.408  53.200  0.00  0.00     0.103 A 
ATOM      6  C   UNL d   1      52.706  33.803  53.627  0.00  0.00     0.040 A 
ATOM      7  O   UNL d   1      54.161  31.796  54.093  0.00  0.00    -0.263 OA
ENDROOT
BRANCH   5   8
ATOM      8  C   UNL d   1      51.450  33.747  52.868  0.00  0.00     0.019 A 
ATOM      9  C   UNL d   1      51.492  34.096  52.115  0.00  0.00     0.003 A 
ATOM     10  C   UNL d   1      50.823  34.433  51.786  0.00  0.00     0.020 A 
ATOM     11  C   UNL d   1      50.106  34.428  52.197  0.00  0.00     0.093 A 
ATOM     12  C   UNL d   1      50.067  34.079  52.947  0.00  0.00     0.020 A 
ATOM     13  C   UNL d   1      50.744  33.737  53.281  0.00  0.00     0.003 A 
BRANCH  11  14
ATOM     14  N   UNL d   1      49.429  34.765  51.871  0.00  0.00    -0.162 NA
BRANCH  14  15
ATOM     15  S   UNL d   1      49.038  34.408  51.247  0.00  0.00     0.266 S 
ATOM     16  O   UNL d   1      48.408  34.041  50.858  0.00  0.00    -0.203 OA
ATOM     17  O   UNL d   1      48.432  34.370  51.809  0.00  0.00    -0.203 OA
ATOM     18  C   UNL d   1      49.625  34.434  50.672  0.00  0.00     0.165 C 
ENDBRANCH  14  15
ENDBRANCH  11  14
ENDBRANCH   5   8
BRANCH   4  19
ATOM     19  C   UNL d   1      53.951  33.413  54.290  0.00  0.00     0.018 A 
ATOM     20  C   UNL d   1      54.679  33.570  53.883  0.00  0.00     0.002 A 
ATOM     21  C   UNL d   1      55.313  33.716  54.374  0.00  0.00     0.000 A 
ATOM     22  C   UNL d   1      55.257  33.713  55.199  0.00  0.00     0.000 A 
ATOM     23  C   UNL d   1      54.579  33.567  55.574  0.00  0.00     0.000 A 
ATOM     24  C   UNL d   1      53.898  33.411  55.125  0.00  0.00     0.002 A 
ENDBRANCH   4  19
BRANCH   3  25
ATOM     25  C   UNL d   1      53.149  31.115  53.356  0.00  0.00     0.158 A 
ATOM     26  O   UNL d   1      53.104  30.927  52.537  0.00  0.00    -0.300 OA
ATOM     27  C   UNL d   1      52.762  30.177  52.475  0.00  0.00     0.123 A 
ATOM     28  C   UNL d   1      52.599  29.906  53.232  0.00  0.00     0.029 A 
ATOM     29  C   UNL d   1      52.842  30.494  53.764  0.00  0.00     0.032 A 
ENDBRANCH   3  25
TORSDOF 5
ENDMDL
MODEL 2
REMARK VINA RESULT:      -9.4      0.770      2.622
REMARK  5 active torsions:
REMARK  status: ('A' for Active; 'I' for Inactive)
REMARK       I    between atoms: C_3  and  N_1 
REMARK    1  A    between atoms: C_8  and  C_3 
REMARK    2  A    between atoms: S_4  and  N_9 
REMARK    3  A    between atoms: C_16  and  C_5 
REMARK    4  A    between atoms: C_10  and  C_6 
REMARK    5  A    between atoms: N_9  and  C_21 
ROOT
ATOM      1  N   UNL d   1      53.198  32.238  53.727  0.00  0.00    -0.193 N 
ATOM      2  N   UNL d   1      52.802  32.957  53.618  0.00  0.00    -0.163 NA
ATOM      3  C   UNL d   1      53.918  32.140  54.116  0.00  0.00     0.303 C 
ATOM      4  C   UNL d   1      52.739  31.644  53.374  0.00  0.00     0.088 A 
ATOM      5  C   UNL d   1      52.106  32.809  53.203  0.00  0.00     0.103 A 
ATOM      6  C   UNL d   1      52.071  31.998  53.055  0.00  0.00     0.040 A 
ATOM      7  O   UNL d   1      54.244  31.381  54.178  0.00  0.00    -0.263 OA
ENDROOT
BRANCH   5   8
ATOM      8  C   UNL d   1      51.547  33.368  52.978  0.00  0.00     0.019 A 
ATOM      9  C   UNL d   1      50.827  33.422  53.388  0.00  0.00     0.003 A 
ATOM     10  C   UNL d   1      50.272  33.979  53.163  0.00  0.00     0.020 A 
ATOM     11  C   UNL d   1      50.423  34.489  52.530  0.00  0.00     0.093 A 
ATOM     12  C   UNL d   1      51.142  34.433  52.123  0.00  0.00     0.020 A 
ATOM     13  C   UNL d   1      51.704  33.869  52.350  0.00  0.00     0.003 A 
BRANCH  11  14
ATOM     14  N   UNL d   1      49.869  35.052  52.298  0.00  0.00    -0.162 NA
BRANCH  14  15
ATOM     15  S   UNL d   1      49.142  34.829  51.996  0.00  0.00     0.266 S 
ATOM     16  O   UNL d   1      48.320  34.748  51.982  0.00  0.00    -0.203 OA
ATOM     17  O   UNL d   1      48.880  35.174  52.701  0.00  0.00    -0.203 OA
ATOM     18  C   UNL d   1      49.377  34.481  51.289  0.00  0.00     0.165 C 
ENDBRANCH  14  15
ENDBRANCH  11  14
ENDBRANCH   5   8
BRANCH   4  19
ATOM     19  C   UNL d   1      52.927  30.849  53.353  0.00  0.00     0.018 A 
ATOM     20  C   UNL d   1      53.334  30.535  52.679  0.00  0.00     0.002 A 
ATOM     21  C   UNL d   1      53.491  29.736  52.723  0.00  0.00     0.000 A 
ATOM     22  C   UNL d   1      53.272  29.267  53.368  0.00  0.00     0.000 A 
ATOM     23  C   UNL d   1      52.893  29.562  53.993  0.00  0.00     0.000 A 
ATOM     24  C   UNL d   1      52.707  30.371  54.004  0.00  0.00     0.002 A 
ENDBRANCH   4  19
BRANCH   3  25
ATOM     25  C   UNL d   1      54.302  32.782  54.434  0.00  0.00     0.158 A 
ATOM     26  O   UNL d   1      54.845  33.282  54.029  0.00  0.00    -0.300 OA
ATOM     27  C   UNL d   1      55.096  33.858  54.565  0.00  0.00     0.123 A 
ATOM     28  C   UNL d   1      54.720  33.723  55.282  0.00  0.00     0.029 A 
ATOM     29  C   UNL d   1      54.235  33.058  55.186  0.00  0.00     0.032 A 
ENDBRANCH   3  25
TORSDOF 5
ENDMDL
MODEL 3
REMARK VINA RESULT:      -7.6      2.258      5.016
REMARK  5 active torsions:
REMARK  status: ('A' for Active; 'I' for Inactive)
REMARK       I    between atoms: C_3  and  N_1 
REMARK    1  A    between atoms: C_8  and  C_3 
REMARK    2  A    between atoms: S_4  and  N_9 
REMARK    3  A    between atoms: C_16  and  C_5 
REMARK    4  A    between atoms: C_10  and  C_6 
REMARK    5  A    between atoms: N_9  and  C_21 
ROOT
ATOM      1  N   UNL d   1      52.008  33.851  53.319  0.00  0.00    -0.193 N 
ATOM      2  N   UNL d   1      52.513  33.241  53.559  0.00  0.00    -0.163 NA
ATOM      3  C   UNL d   1      52.086  34.648  53.519  0.00  0.00     0.303 C 
ATOM      4  C   UNL d   1      51.416  33.514  52.845  0.00  0.00     0.088 A 
ATOM      5  C   UNL d   1      52.237  32.535  53.238  0.00  0.00     0.103 A 
ATOM      6  C   UNL d   1      51.561  32.708  52.798  0.00  0.00     0.040 A 
ATOM      7  O   UNL d   1      51.532  35.192  53.233  0.00  0.00    -0.263 OA
ENDROOT
BRANCH   5   8
ATOM      8  C   UNL d   1      52.575  31.792  53.337  0.00  0.00     0.019 A 
ATOM      9  C   UNL d   1      52.132  31.110  53.166  0.00  0.00     0.003 A 
ATOM     10  C   UNL d   1      52.470  30.372  53.265  0.00  0.00     0.020 A 
ATOM     11  C   UNL d   1      53.247  30.299  53.535  0.00  0.00     0.093 A 
ATOM     12  C   UNL d   1      53.686  30.981  53.705  0.00  0.00     0.020 A 
ATOM     13  C   UNL d   1      53.345  31.729  53.605  0.00  0.00     0.003 A 
BRANCH  11  14
ATOM     14  N   UNL d   1      53.593  29.559  53.637  0.00  0.00    -0.162 NA
BRANCH  14  15
ATOM     15  S   UNL d   1      53.419  29.099  54.291  0.00  0.00     0.266 S 
ATOM     16  O   UNL d   1      53.075  28.473  54.707  0.00  0.00    -0.203 OA
ATOM     17  O   UNL d   1      52.993  28.672  53.724  0.00  0.00    -0.203 OA
ATOM     18  C   UNL d   1      53.834  29.505  54.873  0.00  0.00     0.165 C 
ENDBRANCH  14  15
ENDBRANCH  11  14
ENDBRANCH   5   8
BRANCH   4  19
ATOM     19  C   UNL d   1      50.802  33.921  52.491  0.00  0.00     0.018 A 
ATOM     20  C   UNL d   1      50.121  34.129  52.953  0.00  0.00     0.002 A 
ATOM     21  C   UNL d   1      49.546  34.533  52.539  0.00  0.00     0.000 A 
ATOM     22  C   UNL d   1      49.617  34.727  51.738  0.00  0.00     0.000 A 
ATOM     23  C   UNL d   1      50.252  34.532  51.313  0.00  0.00     0.000 A 
ATOM     24  C   UNL d   1      50.870  34.119  51.681  0.00  0.00     0.002 A 
ENDBRANCH   4  19
BRANCH   3  25
ATOM     25  C   UNL d   1      52.701  34.892  53.992  0.00  0.00     0.158 A 
ATOM     26  O   UNL d   1      52.743  34.807  54.828  0.00  0.00    -0.300 OA
ATOM     27  C   UNL d   1      53.462  35.131  55.072  0.00  0.00     0.123 A 
ATOM     28  C   UNL d   1      53.857  35.410  54.409  0.00  0.00     0.029 A 
ATOM     29  C   UNL d   1      53.376  35.256  53.752  0.00  0.00     0.032 A 
ENDBRANCH   3  25
TORSDOF 5
ENDMDL
