MODEL 1
REMARK VINA RESULT:      -3.0      0.000      0.000
REMARK  4 active torsions:
REMARK  status: ('A' for Active; 'I' for Inactive)
REMARK    1  A    between atoms: C_12  and  C_2 
REMARK    2  A    between atoms: N_9  and  C_3 
REMARK       I    between atoms: C_7  and  N_8 
REMARK    3  A    between atoms: C_10  and  C_7 
REMARK    4  A    between atoms: N_8  and  N_9 
ROOT
ATOM      1  C   UNL d   1      58.937  -0.714  29.756  0.00  0.00     0.037 A 
ATOM      2  C   UNL d   1      58.467  -1.378  29.906  0.00  0.00     0.101 A 
ATOM      3  C   UNL d   1      57.718  -0.625  30.901  0.00  0.00     0.768 A 
ATOM      4  N   UNL d   1      57.869  -1.326  30.471  0.00  0.00    -0.058 NA
ATOM      5  N   UNL d   1      58.208   0.046  30.736  0.00  0.00    -0.058 NA
ATOM      6  C   UNL d   1      58.803   0.001  30.176  0.00  0.00     0.101 A 
ATOM      7  C   UNL d   1      59.544  -0.726  29.198  0.00  0.00     0.010 A 
ATOM      8  C   UNL d   1      59.284   0.681  30.023  0.00  0.00     0.020 A 
ATOM      9  C   UNL d   1      60.012  -0.078  29.043  0.00  0.00     0.035 A 
ATOM     10  C   UNL d   1      59.873   0.619  29.461  0.00  0.00     0.008 A 
ATOM     11 BR   UNL d   1      60.638  -0.116  28.458  0.00  0.00    -0.049 Br
ENDROOT
BRANCH   3  12
ATOM     12  N   UNL d   1      57.119  -0.565  31.472  0.00  0.00     0.049 NA
BRANCH  12  13
ATOM     13  N   UNL d   1      56.688  -1.224  31.708  0.00  0.00    -0.094 NA
ATOM     14  C   UNL d   1      56.216  -1.197  32.354  0.00  0.00     0.273 C 
ATOM     15  O   UNL d   1      55.795  -1.881  32.564  0.00  0.00    -0.269 OA
BRANCH  14  16
ATOM     16  C   UNL d   1      56.151  -0.509  32.795  0.00  0.00     0.075 C 
ATOM     17  C   UNL d   1      55.601  -0.192  32.218  0.00  0.00     0.009 C 
ATOM     18  C   UNL d   1      56.683  -0.835  33.341  0.00  0.00     0.009 C 
ATOM     19  C   UNL d   1      56.086   0.179  33.238  0.00  0.00     0.009 C 
ENDBRANCH  14  16
ENDBRANCH  12  13
ENDBRANCH   3  12
BRANCH   2  20
ATOM     20  C   UNL d   1      58.578  -2.080  29.511  0.00  0.00     0.018 A 
ATOM     21  C   UNL d   1      58.158  -2.267  28.845  0.00  0.00     0.002 A 
ATOM     22  C   UNL d   1      58.270  -2.965  28.455  0.00  0.00     0.000 A 
ATOM     23  C   UNL d   1      58.828  -3.499  28.746  0.00  0.00     0.000 A 
ATOM     24  C   UNL d   1      59.241  -3.336  29.385  0.00  0.00     0.000 A 
ATOM     25  C   UNL d   1      59.137  -2.622  29.798  0.00  0.00     0.002 A 
ENDBRANCH   2  20
TORSDOF 4
ENDMDL
MODEL 2
REMARK VINA RESULT:      -0.7      1.517      2.163
REMARK  4 active torsions:
REMARK  status: ('A' for Active; 'I' for Inactive)
REMARK    1  A    between atoms: C_12  and  C_2 
REMARK    2  A    between atoms: N_9  and  C_3 
REMARK       I    between atoms: C_7  and  N_8 
REMARK    3  A    between atoms: C_10  and  C_7 
REMARK    4  A    between atoms: N_8  and  N_9 
ROOT
ATOM      1  C   UNL d   1      58.976   0.391  31.205  0.00  0.00     0.037 A 
ATOM      2  C   UNL d   1      58.244   0.262  30.841  0.00  0.00     0.101 A 
ATOM      3  C   UNL d   1      57.574   0.447  32.120  0.00  0.00     0.768 A 
ATOM      4  N   UNL d   1      57.559   0.291  31.299  0.00  0.00    -0.058 NA
ATOM      5  N   UNL d   1      58.332   0.577  32.478  0.00  0.00    -0.058 NA
ATOM      6  C   UNL d   1      59.016   0.549  32.029  0.00  0.00     0.101 A 
ATOM      7  C   UNL d   1      59.684   0.371  30.782  0.00  0.00     0.010 A 
ATOM      8  C   UNL d   1      59.764   0.681  32.402  0.00  0.00     0.020 A 
ATOM      9  C   UNL d   1      60.409   0.496  31.130  0.00  0.00     0.035 A 
ATOM     10  C   UNL d   1      60.437   0.650  31.940  0.00  0.00     0.008 A 
ATOM     11 BR   UNL d   1      61.130   0.469  30.668  0.00  0.00    -0.049 Br
ENDROOT
BRANCH   3  12
ATOM     12  N   UNL d   1      56.890   0.478  32.587  0.00  0.00     0.049 NA
BRANCH  12  13
ATOM     13  N   UNL d   1      56.286  -0.072  32.494  0.00  0.00    -0.094 NA
ATOM     14  C   UNL d   1      55.739  -0.184  33.068  0.00  0.00     0.273 C 
ATOM     15  O   UNL d   1      55.143  -0.748  32.941  0.00  0.00    -0.269 OA
BRANCH  14  16
ATOM     16  C   UNL d   1      55.770   0.249  33.765  0.00  0.00     0.075 C 
ATOM     17  C   UNL d   1      56.466  -0.191  34.006  0.00  0.00     0.009 C 
ATOM     18  C   UNL d   1      55.096   0.662  33.512  0.00  0.00     0.009 C 
ATOM     19  C   UNL d   1      55.800   0.682  34.461  0.00  0.00     0.009 C 
ENDBRANCH  14  16
ENDBRANCH  12  13
ENDBRANCH   3  12
BRANCH   2  20
ATOM     20  C   UNL d   1      58.182   0.108  30.046  0.00  0.00     0.018 A 
ATOM     21  C   UNL d   1      57.973   0.681  29.514  0.00  0.00     0.002 A 
ATOM     22  C   UNL d   1      57.912   0.525  28.724  0.00  0.00     0.000 A 
ATOM     23  C   UNL d   1      58.068  -0.240  28.455  0.00  0.00     0.000 A 
ATOM     24  C   UNL d   1      58.270  -0.804  28.952  0.00  0.00     0.000 A 
ATOM     25  C   UNL d   1      58.337  -0.659  29.768  0.00  0.00     0.002 A 
ENDBRANCH   2  20
TORSDOF 4
ENDMDL
MODEL 3
REMARK VINA RESULT:      -0.0      2.164      4.562
REMARK  4 active torsions:
REMARK  status: ('A' for Active; 'I' for Inactive)
REMARK    1  A    between atoms: C_12  and  C_2 
REMARK    2  A    between atoms: N_9  and  C_3 
REMARK       I    between atoms: C_7  and  N_8 
REMARK    3  A    between atoms: C_10  and  C_7 
REMARK    4  A    between atoms: N_8  and  N_9 
ROOT
ATOM      1  C   UNL d   1      57.573   0.334  32.951  0.00  0.00     0.037 A 
ATOM      2  C   UNL d   1      56.927   0.160  32.463  0.00  0.00     0.101 A 
ATOM      3  C   UNL d   1      57.790   0.239  31.293  0.00  0.00     0.768 A 
ATOM      4  N   UNL d   1      57.043   0.116  31.648  0.00  0.00    -0.058 NA
ATOM      5  N   UNL d   1      58.441   0.416  31.807  0.00  0.00    -0.058 NA
ATOM      6  C   UNL d   1      58.332   0.462  32.617  0.00  0.00     0.101 A 
ATOM      7  C   UNL d   1      57.497   0.387  33.771  0.00  0.00     0.010 A 
ATOM      8  C   UNL d   1      58.993   0.640  33.116  0.00  0.00     0.020 A 
ATOM      9  C   UNL d   1      58.125   0.557  34.260  0.00  0.00     0.035 A 
ATOM     10  C   UNL d   1      58.868   0.682  33.922  0.00  0.00     0.008 A 
ATOM     11 BR   UNL d   1      58.022   0.607  35.109  0.00  0.00    -0.049 Br
ENDROOT
BRANCH   3  12
ATOM     12  N   UNL d   1      57.915   0.196  30.474  0.00  0.00     0.049 NA
BRANCH  12  13
ATOM     13  N   UNL d   1      57.893  -0.523  30.078  0.00  0.00    -0.094 NA
ATOM     14  C   UNL d   1      58.253  -0.613  29.368  0.00  0.00     0.273 C 
ATOM     15  O   UNL d   1      58.211  -1.354  28.995  0.00  0.00    -0.269 OA
BRANCH  14  16
ATOM     16  C   UNL d   1      58.654   0.013  29.020  0.00  0.00     0.075 C 
ATOM     17  C   UNL d   1      57.924   0.274  28.654  0.00  0.00     0.009 C 
ATOM     18  C   UNL d   1      59.348  -0.258  29.385  0.00  0.00     0.009 C 
ATOM     19  C   UNL d   1      59.055   0.639  28.673  0.00  0.00     0.009 C 
ENDBRANCH  14  16
ENDBRANCH  12  13
ENDBRANCH   3  12
BRANCH   2  20
ATOM     20  C   UNL d   1      56.184   0.033  32.764  0.00  0.00     0.018 A 
ATOM     21  C   UNL d   1      55.913  -0.711  32.935  0.00  0.00     0.002 A 
ATOM     22  C   UNL d   1      55.174  -0.835  33.234  0.00  0.00     0.000 A 
ATOM     23  C   UNL d   1      54.683  -0.185  33.368  0.00  0.00     0.000 A 
ATOM     24  C   UNL d   1      54.927   0.538  33.210  0.00  0.00     0.000 A 
ATOM     25  C   UNL d   1      55.685   0.682  32.902  0.00  0.00     0.002 A 
ENDBRANCH   2  20
TORSDOF 4
ENDMDL
