MODEL 1
REMARK VINA RESULT:      20.8      0.000      0.000
REMARK  3 active torsions:
REMARK  status: ('A' for Active; 'I' for Inactive)
REMARK    1  A    between atoms: S_10  and  C_3 
REMARK    2  A    between atoms: C_14  and  S_10 
REMARK    3  A    between atoms: C_16  and  C_14 
ROOT
ATOM      1  C   UNL d   1      46.602 -19.544  42.854  0.00  0.00     0.155 A 
ATOM      2  C   UNL d   1      46.597 -18.806  42.482  0.00  0.00     0.107 A 
ATOM      3  C   UNL d   1      46.567 -18.171  43.757  0.00  0.00     0.182 A 
ATOM      4  N   UNL d   1      46.572 -18.900  44.128  0.00  0.00    -0.250 N 
ATOM      5  N   UNL d   1      46.579 -18.114  42.938  0.00  0.00    -0.220 NA
ATOM      6  C   UNL d   1      46.590 -19.593  43.672  0.00  0.00     0.285 A 
ATOM      7  N   UNL d   1      46.620 -20.125  42.271  0.00  0.00    -0.239 NA
ATOM      8  C   UNL d   1      46.612 -18.924  41.670  0.00  0.00     0.037 A 
ATOM      9  C   UNL d   1      46.626 -19.746  41.535  0.00  0.00     0.083 A 
ATOM     10  O   UNL d   1      46.595 -20.329  44.053  0.00  0.00    -0.265 OA
ATOM     11  C   UNL d   1      46.559 -18.947  44.955  0.00  0.00     0.104 C 
ATOM     12  C   UNL d   1      46.614 -18.405  41.033  0.00  0.00     0.003 A 
ATOM     13  C   UNL d   1      46.643 -20.038  40.762  0.00  0.00     0.019 A 
ATOM     14  C   UNL d   1      46.631 -18.699  40.261  0.00  0.00     0.000 A 
ATOM     15  C   UNL d   1      46.645 -19.510  40.128  0.00  0.00     0.002 A 
ENDROOT
BRANCH   3  16
ATOM     16  S   UNL d   1      46.549 -17.484  44.213  0.00  0.00    -0.050 SA
BRANCH  16  17
ATOM     17  C   UNL d   1      45.971 -16.911  44.079  0.00  0.00     0.032 C 
ATOM     18  C   UNL d   1      45.227 -17.132  43.807  0.00  0.00     0.007 C 
BRANCH  17  19
ATOM     19  C   UNL d   1      46.147 -16.118  44.219  0.00  0.00     0.007 C 
ATOM     20  C   UNL d   1      45.562 -15.609  44.509  0.00  0.00     0.001 C 
ENDBRANCH  17  19
ENDBRANCH  16  17
ENDBRANCH   3  16
TORSDOF 3
ENDMDL
