MODEL 1
REMARK VINA RESULT:      -7.9      0.000      0.000
REMARK  2 active torsions:
REMARK  status: ('A' for Active; 'I' for Inactive)
REMARK    1  A    between atoms: C_4  and  C_1 
REMARK       I    between atoms: N_8  and  C_4 
REMARK    2  A    between atoms: O_12  and  C_11 
ROOT
ATOM      1  C   UNL d   1     -46.816  12.866  22.844  0.00  0.00     0.120 A 
ATOM      2  C   UNL d   1     -46.826  13.604  23.212  0.00  0.00     0.305 A 
ATOM      3  O   UNL d   1     -47.469  14.120  23.089  0.00  0.00    -0.271 OA
ATOM      4  C   UNL d   1     -47.445  12.631  22.350  0.00  0.00     0.012 A 
ATOM      5  C   UNL d   1     -48.089  13.894  22.606  0.00  0.00     0.125 A 
ATOM      6  C   UNL d   1     -48.078  13.149  22.235  0.00  0.00     0.025 A 
ATOM      7  O   UNL d   1     -46.207  13.833  23.697  0.00  0.00    -0.259 OA
ATOM      8  C   UNL d   1     -48.732  14.399  22.478  0.00  0.00     0.117 A 
ATOM      9  C   UNL d   1     -48.704  12.921  21.746  0.00  0.00     0.002 A 
ATOM     10  C   UNL d   1     -49.337  13.435  21.629  0.00  0.00     0.002 A 
ATOM     11  C   UNL d   1     -49.351  14.170  21.993  0.00  0.00     0.026 A 
ENDROOT
BRANCH   1  12
ATOM     12  C   UNL d   1     -46.183  12.359  22.965  0.00  0.00     0.270 C 
ATOM     13  N   UNL d   1     -46.281  11.667  23.391  0.00  0.00    -0.269 N 
ATOM     14  C   UNL d   1     -47.020  11.484  23.698  0.00  0.00     0.102 C 
ATOM     15  C   UNL d   1     -45.649  11.160  23.512  0.00  0.00     0.102 C 
ATOM     16  O   UNL d   1     -45.444  12.543  22.658  0.00  0.00    -0.266 OA
ENDBRANCH   1  12
BRANCH   8  17
ATOM     17  O   UNL d   1     -48.745  15.135  22.843  0.00  0.00    -0.326 OA
ATOM     18  C   UNL d   1     -49.437  15.572  22.857  0.00  0.00     0.181 C 
ENDBRANCH   8  17
TORSDOF 2
ENDMDL
MODEL 2
REMARK VINA RESULT:      -7.8      1.903      3.708
REMARK  2 active torsions:
REMARK  status: ('A' for Active; 'I' for Inactive)
REMARK    1  A    between atoms: C_4  and  C_1 
REMARK       I    between atoms: N_8  and  C_4 
REMARK    2  A    between atoms: O_12  and  C_11 
ROOT
ATOM      1  C   UNL d   1     -49.250  12.731  22.986  0.00  0.00     0.120 A 
ATOM      2  C   UNL d   1     -49.081  11.963  23.238  0.00  0.00     0.305 A 
ATOM      3  O   UNL d   1     -48.292  11.739  23.386  0.00  0.00    -0.271 OA
ATOM      4  C   UNL d   1     -48.636  13.285  22.880  0.00  0.00     0.012 A 
ATOM      5  C   UNL d   1     -47.687  12.278  23.283  0.00  0.00     0.125 A 
ATOM      6  C   UNL d   1     -47.857  13.053  23.030  0.00  0.00     0.025 A 
ATOM      7  O   UNL d   1     -49.686  11.420  23.342  0.00  0.00    -0.259 OA
ATOM      8  C   UNL d   1     -46.901  12.066  23.428  0.00  0.00     0.117 A 
ATOM      9  C   UNL d   1     -47.245  13.599  22.925  0.00  0.00     0.002 A 
ATOM     10  C   UNL d   1     -46.468  13.371  23.074  0.00  0.00     0.002 A 
ATOM     11  C   UNL d   1     -46.296  12.608  23.324  0.00  0.00     0.026 A 
ENDROOT
BRANCH   1  12
ATOM     12  C   UNL d   1     -50.025  12.951  22.841  0.00  0.00     0.270 C 
ATOM     13  N   UNL d   1     -50.289  13.058  22.073  0.00  0.00    -0.269 N 
ATOM     14  C   UNL d   1     -49.769  12.944  21.448  0.00  0.00     0.102 C 
ATOM     15  C   UNL d   1     -51.064  13.278  21.927  0.00  0.00     0.102 C 
ATOM     16  O   UNL d   1     -50.545  13.066  23.466  0.00  0.00    -0.266 OA
ENDBRANCH   1  12
BRANCH   8  17
ATOM     17  O   UNL d   1     -46.729  11.303  23.678  0.00  0.00    -0.326 OA
ATOM     18  C   UNL d   1     -45.953  11.042  23.698  0.00  0.00     0.181 C 
ENDBRANCH   8  17
TORSDOF 2
ENDMDL
MODEL 3
REMARK VINA RESULT:      -7.7      1.427      3.429
REMARK  2 active torsions:
REMARK  status: ('A' for Active; 'I' for Inactive)
REMARK    1  A    between atoms: C_4  and  C_1 
REMARK       I    between atoms: N_8  and  C_4 
REMARK    2  A    between atoms: O_12  and  C_11 
ROOT
ATOM      1  C   UNL d   1     -48.682  14.274  22.892  0.00  0.00     0.120 A 
ATOM      2  C   UNL d   1     -48.046  14.704  22.590  0.00  0.00     0.305 A 
ATOM      3  O   UNL d   1     -47.286  14.361  22.573  0.00  0.00    -0.271 OA
ATOM      4  C   UNL d   1     -48.571  13.500  23.180  0.00  0.00     0.012 A 
ATOM      5  C   UNL d   1     -47.172  13.603  22.854  0.00  0.00     0.125 A 
ATOM      6  C   UNL d   1     -47.815  13.169  23.158  0.00  0.00     0.025 A 
ATOM      7  O   UNL d   1     -48.157  15.464  22.308  0.00  0.00    -0.259 OA
ATOM      8  C   UNL d   1     -46.422  13.254  22.841  0.00  0.00     0.117 A 
ATOM      9  C   UNL d   1     -47.700  12.402  23.443  0.00  0.00     0.002 A 
ATOM     10  C   UNL d   1     -46.947  12.069  23.423  0.00  0.00     0.002 A 
ATOM     11  C   UNL d   1     -46.311  12.493  23.123  0.00  0.00     0.026 A 
ENDROOT
BRANCH   1  12
ATOM     12  C   UNL d   1     -49.429  14.611  22.909  0.00  0.00     0.270 C 
ATOM     13  N   UNL d   1     -50.000  14.384  22.367  0.00  0.00    -0.269 N 
ATOM     14  C   UNL d   1     -49.817  13.815  21.804  0.00  0.00     0.102 C 
ATOM     15  C   UNL d   1     -50.746  14.720  22.384  0.00  0.00     0.102 C 
ATOM     16  O   UNL d   1     -49.612  15.180  23.472  0.00  0.00    -0.266 OA
ENDBRANCH   1  12
BRANCH   8  17
ATOM     17  O   UNL d   1     -45.786  13.678  22.542  0.00  0.00    -0.326 OA
ATOM     18  C   UNL d   1     -45.140  13.283  22.228  0.00  0.00     0.181 C 
ENDBRANCH   8  17
TORSDOF 2
ENDMDL
MODEL 4
REMARK VINA RESULT:      -7.6      1.554      1.983
REMARK  2 active torsions:
REMARK  status: ('A' for Active; 'I' for Inactive)
REMARK    1  A    between atoms: C_4  and  C_1 
REMARK       I    between atoms: N_8  and  C_4 
REMARK    2  A    between atoms: O_12  and  C_11 
ROOT
ATOM      1  C   UNL d   1     -47.272  13.239  23.131  0.00  0.00     0.120 A 
ATOM      2  C   UNL d   1     -47.818  13.849  23.029  0.00  0.00     0.305 A 
ATOM      3  O   UNL d   1     -48.632  13.696  23.121  0.00  0.00    -0.271 OA
ATOM      4  C   UNL d   1     -47.529  12.470  23.326  0.00  0.00     0.012 A 
ATOM      5  C   UNL d   1     -48.889  12.944  23.312  0.00  0.00     0.125 A 
ATOM      6  C   UNL d   1     -48.337  12.328  23.415  0.00  0.00     0.025 A 
ATOM      7  O   UNL d   1     -47.564  14.604  22.838  0.00  0.00    -0.259 OA
ATOM      8  C   UNL d   1     -49.695  12.783  23.406  0.00  0.00     0.117 A 
ATOM      9  C   UNL d   1     -48.596  11.568  23.608  0.00  0.00     0.002 A 
ATOM     10  C   UNL d   1     -49.402  11.423  23.698  0.00  0.00     0.002 A 
ATOM     11  C   UNL d   1     -49.949  12.028  23.597  0.00  0.00     0.026 A 
ENDROOT
BRANCH   1  12
ATOM     12  C   UNL d   1     -46.471  13.389  23.040  0.00  0.00     0.270 C 
ATOM     13  N   UNL d   1     -46.091  13.206  22.338  0.00  0.00    -0.269 N 
ATOM     14  C   UNL d   1     -46.519  12.870  21.724  0.00  0.00     0.102 C 
ATOM     15  C   UNL d   1     -45.291  13.356  22.247  0.00  0.00     0.102 C 
ATOM     16  O   UNL d   1     -46.043  13.726  23.654  0.00  0.00    -0.266 OA
ENDBRANCH   1  12
BRANCH   8  17
ATOM     17  O   UNL d   1     -50.241  13.387  23.305  0.00  0.00    -0.326 OA
ATOM     18  C   UNL d   1     -51.040  13.240  23.412  0.00  0.00     0.181 C 
ENDBRANCH   8  17
TORSDOF 2
ENDMDL
