MODEL 1
REMARK VINA RESULT:      -4.3      0.000      0.000
REMARK  5 active torsions:
REMARK  status: ('A' for Active; 'I' for Inactive)
REMARK    1  A    between atoms: N_3  and  C_1 
REMARK       I    between atoms: C_9  and  N_3 
REMARK       I    between atoms: N_7  and  C_8 
REMARK    2  A    between atoms: C_8  and  C_14 
REMARK    3  A    between atoms: C_15  and  C_9 
REMARK    4  A    between atoms: S_12  and  C_15 
REMARK    5  A    between atoms: C_14  and  S_12 
ROOT
ATOM      1  N   UNL d   1      57.799  -0.442  30.239  0.00  0.00    -0.183 NA
ATOM      2  C   UNL d   1      57.803   0.198  30.765  0.00  0.00     0.287 C 
ATOM      3  O   UNL d   1      58.476   0.678  30.830  0.00  0.00    -0.265 OA
ENDROOT
BRANCH   2   4
ATOM      4  C   UNL d   1      57.144   0.363  31.224  0.00  0.00     0.098 C 
BRANCH   4   5
ATOM      5  S   UNL d   1      57.199   0.374  32.052  0.00  0.00    -0.076 SA
BRANCH   5   6
ATOM      6  C   UNL d   1      56.516   0.435  32.512  0.00  0.00     0.097 C 
BRANCH   6   7
ATOM      7  C   UNL d   1      56.568   0.475  33.333  0.00  0.00     0.271 C 
ATOM      8  N   UNL d   1      55.884   0.544  33.779  0.00  0.00    -0.272 N 
ATOM      9  C   UNL d   1      55.156   0.571  33.390  0.00  0.00     0.083 A 
ATOM     10  C   UNL d   1      55.929   0.585  34.589  0.00  0.00     0.083 A 
ATOM     11  C   UNL d   1      54.466   0.640  33.838  0.00  0.00     0.019 A 
ATOM     12  C   UNL d   1      54.506   0.682  34.653  0.00  0.00     0.003 A 
ATOM     13  C   UNL d   1      55.237   0.654  35.039  0.00  0.00     0.019 A 
ATOM     14  O   UNL d   1      57.304   0.447  33.701  0.00  0.00    -0.266 OA
ENDBRANCH   6   7
ENDBRANCH   5   6
ENDBRANCH   4   5
ENDBRANCH   2   4
BRANCH   1  15
ATOM     15  C   UNL d   1      58.545  -0.429  29.884  0.00  0.00     0.182 A 
ATOM     16  N   UNL d   1      58.873  -1.026  29.415  0.00  0.00    -0.283 N 
ATOM     17  C   UNL d   1      59.629  -0.782  29.175  0.00  0.00     0.072 A 
ATOM     18  C   UNL d   1      58.508  -1.733  29.225  0.00  0.00     0.101 C 
ATOM     19  C   UNL d   1      60.204  -1.138  28.712  0.00  0.00     0.017 A 
ATOM     20  C   UNL d   1      59.768  -0.034  29.496  0.00  0.00     0.048 A 
ATOM     21  C   UNL d   1      60.910  -0.760  28.566  0.00  0.00    -0.011 A 
ATOM     22  C   UNL d   1      61.049  -0.012  28.887  0.00  0.00     0.027 A 
ATOM     23  C   UNL d   1      60.483   0.359  29.354  0.00  0.00    -0.004 A 
ATOM     24  S   UNL d   1      59.099   0.188  29.935  0.00  0.00    -0.048 SA
ENDBRANCH   1  15
TORSDOF 5
ENDMDL
MODEL 2
REMARK VINA RESULT:      -3.4      1.392      5.672
REMARK  5 active torsions:
REMARK  status: ('A' for Active; 'I' for Inactive)
REMARK    1  A    between atoms: N_3  and  C_1 
REMARK       I    between atoms: C_9  and  N_3 
REMARK       I    between atoms: N_7  and  C_8 
REMARK    2  A    between atoms: C_8  and  C_14 
REMARK    3  A    between atoms: C_15  and  C_9 
REMARK    4  A    between atoms: S_12  and  C_15 
REMARK    5  A    between atoms: C_14  and  S_12 
ROOT
ATOM      1  N   UNL d   1      57.890   0.682  31.136  0.00  0.00    -0.183 NA
ATOM      2  C   UNL d   1      57.681   0.030  30.669  0.00  0.00     0.287 C 
ATOM      3  O   UNL d   1      57.086  -0.489  30.923  0.00  0.00    -0.265 OA
ENDROOT
BRANCH   2   4
ATOM      4  C   UNL d   1      58.059  -0.107  29.955  0.00  0.00     0.098 C 
BRANCH   4   5
ATOM      5  S   UNL d   1      58.737  -0.585  29.922  0.00  0.00    -0.076 SA
BRANCH   5   6
ATOM      6  C   UNL d   1      58.864  -1.079  29.273  0.00  0.00     0.097 C 
BRANCH   6   7
ATOM      7  C   UNL d   1      59.614  -1.388  29.125  0.00  0.00     0.271 C 
ATOM      8  N   UNL d   1      59.691  -2.174  28.902  0.00  0.00    -0.272 N 
ATOM      9  C   UNL d   1      59.011  -2.636  28.832  0.00  0.00     0.083 A 
ATOM     10  C   UNL d   1      60.427  -2.483  28.755  0.00  0.00     0.083 A 
ATOM     11  C   UNL d   1      59.087  -3.427  28.608  0.00  0.00     0.019 A 
ATOM     12  C   UNL d   1      59.825  -3.744  28.459  0.00  0.00     0.003 A 
ATOM     13  C   UNL d   1      60.504  -3.277  28.530  0.00  0.00     0.019 A 
ATOM     14  O   UNL d   1      60.279  -0.909  29.200  0.00  0.00    -0.266 OA
ENDBRANCH   6   7
ENDBRANCH   5   6
ENDBRANCH   4   5
ENDBRANCH   2   4
BRANCH   1  15
ATOM     15  C   UNL d   1      57.397   0.634  31.798  0.00  0.00     0.182 A 
ATOM     16  N   UNL d   1      57.640   0.634  32.589  0.00  0.00    -0.283 N 
ATOM     17  C   UNL d   1      56.966   0.578  33.068  0.00  0.00     0.072 A 
ATOM     18  C   UNL d   1      58.415   0.681  32.846  0.00  0.00     0.101 C 
ATOM     19  C   UNL d   1      56.864   0.554  33.881  0.00  0.00     0.017 A 
ATOM     20  C   UNL d   1      56.305   0.544  32.573  0.00  0.00     0.048 A 
ATOM     21  C   UNL d   1      56.120   0.496  34.204  0.00  0.00    -0.011 A 
ATOM     22  C   UNL d   1      55.459   0.462  33.710  0.00  0.00     0.027 A 
ATOM     23  C   UNL d   1      55.542   0.485  32.892  0.00  0.00    -0.004 A 
ATOM     24  S   UNL d   1      56.568   0.578  31.787  0.00  0.00    -0.048 SA
ENDBRANCH   1  15
TORSDOF 5
ENDMDL
MODEL 3
REMARK VINA RESULT:      -3.4      1.094      5.865
REMARK  5 active torsions:
REMARK  status: ('A' for Active; 'I' for Inactive)
REMARK    1  A    between atoms: N_3  and  C_1 
REMARK       I    between atoms: C_9  and  N_3 
REMARK       I    between atoms: N_7  and  C_8 
REMARK    2  A    between atoms: C_8  and  C_14 
REMARK    3  A    between atoms: C_15  and  C_9 
REMARK    4  A    between atoms: S_12  and  C_15 
REMARK    5  A    between atoms: C_14  and  S_12 
ROOT
ATOM      1  N   UNL d   1      57.337   0.169  32.505  0.00  0.00    -0.183 NA
ATOM      2  C   UNL d   1      57.072   0.369  31.745  0.00  0.00     0.287 C 
ATOM      3  O   UNL d   1      56.290   0.619  31.631  0.00  0.00    -0.265 OA
ENDROOT
BRANCH   2   4
ATOM      4  C   UNL d   1      57.579   0.323  31.103  0.00  0.00     0.098 C 
BRANCH   4   5
ATOM      5  S   UNL d   1      57.677  -0.392  30.694  0.00  0.00    -0.076 SA
BRANCH   5   6
ATOM      6  C   UNL d   1      58.264  -0.463  30.118  0.00  0.00     0.097 C 
BRANCH   6   7
ATOM      7  C   UNL d   1      58.489  -1.206  29.840  0.00  0.00     0.271 C 
ATOM      8  N   UNL d   1      59.199  -1.290  29.439  0.00  0.00    -0.272 N 
ATOM      9  C   UNL d   1      59.672  -0.624  29.324  0.00  0.00     0.083 A 
ATOM     10  C   UNL d   1      59.426  -2.019  29.163  0.00  0.00     0.083 A 
ATOM     11  C   UNL d   1      60.388  -0.706  28.920  0.00  0.00     0.019 A 
ATOM     12  C   UNL d   1      60.621  -1.438  28.640  0.00  0.00     0.003 A 
ATOM     13  C   UNL d   1      60.144  -2.103  28.758  0.00  0.00     0.019 A 
ATOM     14  O   UNL d   1      58.002  -1.857  29.966  0.00  0.00    -0.266 OA
ENDBRANCH   6   7
ENDBRANCH   5   6
ENDBRANCH   4   5
ENDBRANCH   2   4
BRANCH   1  15
ATOM     15  C   UNL d   1      56.681   0.284  32.995  0.00  0.00     0.182 A 
ATOM     16  N   UNL d   1      56.697   0.386  33.815  0.00  0.00    -0.283 N 
ATOM     17  C   UNL d   1      55.917   0.482  34.080  0.00  0.00     0.072 A 
ATOM     18  C   UNL d   1      57.371   0.389  34.279  0.00  0.00     0.101 C 
ATOM     19  C   UNL d   1      55.596   0.602  34.825  0.00  0.00     0.017 A 
ATOM     20  C   UNL d   1      55.419   0.440  33.423  0.00  0.00     0.048 A 
ATOM     21  C   UNL d   1      54.791   0.680  34.921  0.00  0.00    -0.011 A 
ATOM     22  C   UNL d   1      54.293   0.638  34.264  0.00  0.00     0.027 A 
ATOM     23  C   UNL d   1      54.598   0.518  33.509  0.00  0.00    -0.004 A 
ATOM     24  S   UNL d   1      55.888   0.317  32.749  0.00  0.00    -0.048 SA
ENDBRANCH   1  15
TORSDOF 5
ENDMDL
MODEL 4
REMARK VINA RESULT:      -3.2      9.480      9.847
REMARK  5 active torsions:
REMARK  status: ('A' for Active; 'I' for Inactive)
REMARK    1  A    between atoms: N_3  and  C_1 
REMARK       I    between atoms: C_9  and  N_3 
REMARK       I    between atoms: N_7  and  C_8 
REMARK    2  A    between atoms: C_8  and  C_14 
REMARK    3  A    between atoms: C_15  and  C_9 
REMARK    4  A    between atoms: S_12  and  C_15 
REMARK    5  A    between atoms: C_14  and  S_12 
ROOT
ATOM      1  N   UNL d   1      57.896  -9.798  32.192  0.00  0.00    -0.183 NA
ATOM      2  C   UNL d   1      58.666  -9.805  32.496  0.00  0.00     0.287 C 
ATOM      3  O   UNL d   1      59.316  -9.813  31.980  0.00  0.00    -0.265 OA
ENDROOT
BRANCH   2   4
ATOM      4  C   UNL d   1      58.794  -9.804  33.305  0.00  0.00     0.098 C 
BRANCH   4   5
ATOM      5  S   UNL d   1      59.504  -9.510  33.619  0.00  0.00    -0.076 SA
BRANCH   5   6
ATOM      6  C   UNL d   1      59.517  -9.183  34.377  0.00  0.00     0.097 C 
BRANCH   6   7
ATOM      7  C   UNL d   1      60.222  -8.900  34.697  0.00  0.00     0.271 C 
ATOM      8  N   UNL d   1      60.202  -8.287  35.242  0.00  0.00    -0.272 N 
ATOM      9  C   UNL d   1      59.471  -7.970  35.457  0.00  0.00     0.083 A 
ATOM     10  C   UNL d   1      60.893  -8.004  35.560  0.00  0.00     0.083 A 
ATOM     11  C   UNL d   1      59.448  -7.353  36.005  0.00  0.00     0.019 A 
ATOM     12  C   UNL d   1      60.141  -7.064  36.329  0.00  0.00     0.003 A 
ATOM     13  C   UNL d   1      60.871  -7.385  36.111  0.00  0.00     0.019 A 
ATOM     14  O   UNL d   1      60.940  -9.231  34.469  0.00  0.00    -0.266 OA
ENDBRANCH   6   7
ENDBRANCH   5   6
ENDBRANCH   4   5
ENDBRANCH   2   4
BRANCH   1  15
ATOM     15  C   UNL d   1      57.992  -9.801  31.371  0.00  0.00     0.182 A 
ATOM     16  N   UNL d   1      57.385  -9.804  30.809  0.00  0.00    -0.283 N 
ATOM     17  C   UNL d   1      57.730  -9.807  30.054  0.00  0.00     0.072 A 
ATOM     18  C   UNL d   1      56.584  -9.804  30.976  0.00  0.00     0.101 C 
ATOM     19  C   UNL d   1      57.410  -9.810  29.299  0.00  0.00     0.017 A 
ATOM     20  C   UNL d   1      58.550  -9.806  30.150  0.00  0.00     0.048 A 
ATOM     21  C   UNL d   1      57.894  -9.813  28.645  0.00  0.00    -0.011 A 
ATOM     22  C   UNL d   1      58.715  -9.811  28.741  0.00  0.00     0.027 A 
ATOM     23  C   UNL d   1      59.052  -9.808  29.491  0.00  0.00    -0.004 A 
ATOM     24  S   UNL d   1      58.716  -9.802  30.964  0.00  0.00    -0.048 SA
ENDBRANCH   1  15
TORSDOF 5
ENDMDL
