MODEL 1
REMARK VINA RESULT:      -2.5      0.000      0.000
REMARK  4 active torsions:
REMARK  status: ('A' for Active; 'I' for Inactive)
REMARK       I    between atoms: C_3  and  N_1 
REMARK    1  A    between atoms: C_7  and  C_3 
REMARK    2  A    between atoms: C_8  and  C_4 
REMARK    3  A    between atoms: C_9  and  C_5 
REMARK    4  A    between atoms: O_25  and  C_18 
ROOT
ATOM      1  N   UNL d   1      57.507  -0.920  30.840  0.00  0.00    -0.195 N 
ATOM      2  N   UNL d   1      56.957  -0.925  31.466  0.00  0.00    -0.163 NA
ATOM      3  C   UNL d   1      57.603  -1.539  30.292  0.00  0.00     0.282 C 
ATOM      4  C   UNL d   1      57.933  -0.220  30.850  0.00  0.00     0.088 A 
ATOM      5  C   UNL d   1      57.043  -0.216  31.870  0.00  0.00     0.103 A 
ATOM      6  C   UNL d   1      57.645   0.218  31.489  0.00  0.00     0.040 A 
ATOM      7  O   UNL d   1      57.141  -2.215  30.340  0.00  0.00    -0.265 OA
ENDROOT
BRANCH   3   8
ATOM      8  C   UNL d   1      58.182  -1.459  29.686  0.00  0.00     0.077 A 
ATOM      9  C   UNL d   1      58.049  -0.968  29.046  0.00  0.00     0.104 A 
ATOM     10  N   UNL d   1      58.612  -0.892  28.459  0.00  0.00    -0.242 NA
ATOM     11  C   UNL d   1      59.321  -1.323  28.524  0.00  0.00     0.099 A 
ATOM     12  C   UNL d   1      59.456  -1.816  29.164  0.00  0.00     0.021 A 
ATOM     13  C   UNL d   1      58.892  -1.891  29.751  0.00  0.00     0.008 A 
ENDBRANCH   3   8
BRANCH   4  14
ATOM     14  C   UNL d   1      58.530   0.006  30.327  0.00  0.00     0.018 A 
ATOM     15  C   UNL d   1      59.320  -0.136  30.517  0.00  0.00     0.004 A 
ATOM     16  C   UNL d   1      59.917   0.089  29.994  0.00  0.00     0.024 A 
ATOM     17  C   UNL d   1      59.724   0.456  29.281  0.00  0.00     0.094 A 
ATOM     18  C   UNL d   1      58.937   0.596  29.094  0.00  0.00     0.024 A 
ATOM     19  C   UNL d   1      58.340   0.371  29.617  0.00  0.00     0.004 A 
BRANCH  17  20
ATOM     20  O   UNL d   1      60.321   0.682  28.758  0.00  0.00    -0.328 OA
ATOM     21  C   UNL d   1      61.107   0.682  29.006  0.00  0.00     0.181 C 
ENDBRANCH  17  20
ENDBRANCH   4  14
BRANCH   5  22
ATOM     22  C   UNL d   1      56.613   0.010  32.522  0.00  0.00     0.019 A 
ATOM     23  C   UNL d   1      55.797  -0.151  32.526  0.00  0.00     0.002 A 
ATOM     24  C   UNL d   1      55.348   0.083  33.201  0.00  0.00     0.007 A 
ATOM     25  C   UNL d   1      55.712   0.456  33.827  0.00  0.00     0.035 A 
ATOM     26  C   UNL d   1      56.528   0.618  33.823  0.00  0.00     0.007 A 
ATOM     27 BR   UNL d   1      55.257   0.678  34.479  0.00  0.00    -0.049 Br
ATOM     28  C   UNL d   1      56.978   0.382  33.143  0.00  0.00     0.002 A 
ENDBRANCH   5  22
TORSDOF 4
ENDMDL
