MODEL 1
REMARK VINA RESULT:      -7.1      0.000      0.000
REMARK  7 active torsions:
REMARK  status: ('A' for Active; 'I' for Inactive)
REMARK    1  A    between atoms: S_9  and  C_2 
REMARK    2  A    between atoms: C_15  and  C_5 
REMARK    3  A    between atoms: C_6  and  C_7 
REMARK       I    between atoms: C_7  and  N_8 
REMARK    4  A    between atoms: N_8  and  C_15 
REMARK    5  A    between atoms: C_14  and  S_9 
REMARK    6  A    between atoms: C_10  and  C_14 
REMARK    7  A    between atoms: C_12  and  C_10 
ROOT
ATOM      1  O   UNL d   1     -43.874  13.439  21.612  0.00  0.00    -0.262 OA
ATOM      2  C   UNL d   1     -43.248  12.936  21.409  0.00  0.00     0.236 A 
ATOM      3  N   UNL d   1     -43.381  12.215  21.768  0.00  0.00    -0.114 NA
ATOM      4  N   UNL d   1     -44.083  12.267  22.190  0.00  0.00    -0.119 NA
ATOM      5  C   UNL d   1     -44.386  13.020  22.094  0.00  0.00     0.224 A 
ENDROOT
BRANCH   2   6
ATOM      6  S   UNL d   1     -42.609  13.134  20.931  0.00  0.00    -0.037 SA
BRANCH   6   7
ATOM      7  C   UNL d   1     -42.069  13.692  21.178  0.00  0.00     0.081 C 
BRANCH   7   8
ATOM      8  C   UNL d   1     -41.446  13.927  20.681  0.00  0.00     0.202 C 
ATOM      9  O   UNL d   1     -41.417  13.659  19.907  0.00  0.00    -0.286 OA
BRANCH   8  10
ATOM     10  C   UNL d   1     -40.859  14.428  20.967  0.00  0.00     0.040 A 
ATOM     11  C   UNL d   1     -40.182  14.110  21.307  0.00  0.00     0.004 A 
ATOM     12  C   UNL d   1     -39.589  14.610  21.597  0.00  0.00     0.011 A 
ATOM     13  C   UNL d   1     -39.675  15.429  21.546  0.00  0.00     0.058 A 
ATOM     14  C   UNL d   1     -40.355  15.746  21.204  0.00  0.00     0.011 A 
ATOM     15 CL   UNL d   1     -39.088  15.922  21.832  0.00  0.00    -0.082 Cl
ATOM     16  C   UNL d   1     -40.951  15.254  20.913  0.00  0.00     0.004 A 
ENDBRANCH   8  10
ENDBRANCH   7   8
ENDBRANCH   6   7
ENDBRANCH   2   6
BRANCH   5  17
ATOM     17  C   UNL d   1     -45.083  13.306  22.423  0.00  0.00     0.149 C 
BRANCH  17  18
ATOM     18  N   UNL d   1     -45.732  12.813  22.516  0.00  0.00    -0.203 NA
ATOM     19  C   UNL d   1     -46.406  13.088  22.903  0.00  0.00     0.281 C 
ATOM     20  O   UNL d   1     -46.433  13.854  23.196  0.00  0.00    -0.265 OA
BRANCH  19  21
ATOM     21  C   UNL d   1     -47.055  12.589  22.993  0.00  0.00     0.085 A 
ATOM     22  C   UNL d   1     -47.685  12.659  22.482  0.00  0.00     0.145 A 
ATOM     23  F   UNL d   1     -47.690  13.217  21.877  0.00  0.00    -0.204 F 
ATOM     24  C   UNL d   1     -48.330  12.151  22.584  0.00  0.00     0.030 A 
ATOM     25  C   UNL d   1     -48.352  11.579  23.186  0.00  0.00     0.002 A 
ATOM     26  C   UNL d   1     -47.694  11.528  23.696  0.00  0.00     0.000 A 
ATOM     27  C   UNL d   1     -47.048  12.037  23.593  0.00  0.00     0.007 A 
ENDBRANCH  19  21
ENDBRANCH  17  18
ENDBRANCH   5  17
TORSDOF 7
ENDMDL
MODEL 2
REMARK VINA RESULT:      -6.6      1.193      1.389
REMARK  7 active torsions:
REMARK  status: ('A' for Active; 'I' for Inactive)
REMARK    1  A    between atoms: S_9  and  C_2 
REMARK    2  A    between atoms: C_15  and  C_5 
REMARK    3  A    between atoms: C_6  and  C_7 
REMARK       I    between atoms: C_7  and  N_8 
REMARK    4  A    between atoms: N_8  and  C_15 
REMARK    5  A    between atoms: C_14  and  S_9 
REMARK    6  A    between atoms: C_10  and  C_14 
REMARK    7  A    between atoms: C_12  and  C_10 
ROOT
ATOM      1  O   UNL d   1     -43.470  13.613  21.814  0.00  0.00    -0.262 OA
ATOM      2  C   UNL d   1     -42.893  13.139  21.453  0.00  0.00     0.236 A 
ATOM      3  N   UNL d   1     -43.251  12.441  21.225  0.00  0.00    -0.114 NA
ATOM      4  N   UNL d   1     -44.042  12.479  21.441  0.00  0.00    -0.119 NA
ATOM      5  C   UNL d   1     -44.176  13.200  21.803  0.00  0.00     0.224 A 
ENDROOT
BRANCH   2   6
ATOM      6  S   UNL d   1     -42.103  13.342  21.347  0.00  0.00    -0.037 SA
BRANCH   6   7
ATOM      7  C   UNL d   1     -41.892  13.885  20.779  0.00  0.00     0.081 C 
BRANCH   7   8
ATOM      8  C   UNL d   1     -41.114  14.175  20.740  0.00  0.00     0.202 C 
ATOM      9  O   UNL d   1     -40.592  14.029  21.353  0.00  0.00    -0.286 OA
BRANCH   8  10
ATOM     10  C   UNL d   1     -40.870  14.608  20.083  0.00  0.00     0.040 A 
ATOM     11  C   UNL d   1     -40.778  15.422  20.144  0.00  0.00     0.004 A 
ATOM     12  C   UNL d   1     -40.533  15.861  19.486  0.00  0.00     0.011 A 
ATOM     13  C   UNL d   1     -40.380  15.486  18.768  0.00  0.00     0.058 A 
ATOM     14  C   UNL d   1     -40.474  14.668  18.710  0.00  0.00     0.011 A 
ATOM     15 CL   UNL d   1     -40.139  15.921  18.120  0.00  0.00    -0.082 Cl
ATOM     16  C   UNL d   1     -40.718  14.223  19.361  0.00  0.00     0.004 A 
ENDBRANCH   8  10
ENDBRANCH   7   8
ENDBRANCH   6   7
ENDBRANCH   2   6
BRANCH   5  17
ATOM     17  C   UNL d   1     -44.895  13.463  22.103  0.00  0.00     0.149 C 
BRANCH  17  18
ATOM     18  N   UNL d   1     -45.487  12.928  22.294  0.00  0.00    -0.203 NA
ATOM     19  C   UNL d   1     -46.128  13.170  22.753  0.00  0.00     0.281 C 
ATOM     20  O   UNL d   1     -46.178  13.943  23.022  0.00  0.00    -0.265 OA
BRANCH  19  21
ATOM     21  C   UNL d   1     -46.719  12.628  22.941  0.00  0.00     0.085 A 
ATOM     22  C   UNL d   1     -47.440  12.681  22.565  0.00  0.00     0.145 A 
ATOM     23  F   UNL d   1     -47.592  13.262  22.003  0.00  0.00    -0.204 F 
ATOM     24  C   UNL d   1     -48.026  12.130  22.764  0.00  0.00     0.030 A 
ATOM     25  C   UNL d   1     -47.899  11.535  23.328  0.00  0.00     0.002 A 
ATOM     26  C   UNL d   1     -47.152  11.503  23.698  0.00  0.00     0.000 A 
ATOM     27  C   UNL d   1     -46.566  12.054  23.499  0.00  0.00     0.007 A 
ENDBRANCH  19  21
ENDBRANCH  17  18
ENDBRANCH   5  17
TORSDOF 7
ENDMDL
