MODEL 1
REMARK VINA RESULT:      53.6      0.000      0.000
REMARK  7 active torsions:
REMARK  status: ('A' for Active; 'I' for Inactive)
REMARK    1  A    between atoms: N_2  and  C_1 
REMARK    2  A    between atoms: S_4  and  C_3 
REMARK    3  A    between atoms: C_6  and  S_4 
REMARK    4  A    between atoms: C_5  and  C_8 
REMARK    5  A    between atoms: C_9  and  C_6 
REMARK    6  A    between atoms: O_14  and  C_9 
REMARK    7  A    between atoms: C_12  and  O_14 
ROOT
ATOM      1  S   UNL d   1     -48.783  28.978  34.665  0.00  0.00     0.096 S 
ATOM      2  O   UNL d   1     -48.622  28.536  35.334  0.00  0.00    -0.247 OA
ENDROOT
BRANCH   1   3
ATOM      3  C   UNL d   1     -48.507  29.756  34.610  0.00  0.00     0.082 A 
ATOM      4  C   UNL d   1     -47.859  30.011  35.076  0.00  0.00     0.135 A 
ATOM      5  C   UNL d   1     -47.593  30.789  35.012  0.00  0.00     0.028 A 
ATOM      6  C   UNL d   1     -47.955  31.320  34.496  0.00  0.00     0.073 A 
ATOM      7  C   UNL d   1     -48.597  31.068  34.034  0.00  0.00     0.005 A 
ATOM      8  C   UNL d   1     -48.873  30.287  34.090  0.00  0.00     0.011 A 
BRANCH   4   9
ATOM      9  N   UNL d   1     -47.497  29.479  35.592  0.00  0.00    -0.113 N 
ATOM     10  O   UNL d   1     -46.908  28.964  35.304  0.00  0.00    -0.532 OA
ATOM     11  O   UNL d   1     -47.718  29.456  36.393  0.00  0.00    -0.532 OA
ENDBRANCH   4   9
BRANCH   6  12
ATOM     12  C   UNL d   1     -47.689  32.098  34.432  0.00  0.00     0.419 C 
ATOM     13  F   UNL d   1     -47.356  32.610  35.055  0.00  0.00    -0.166 F 
ATOM     14  F   UNL d   1     -47.443  32.809  34.387  0.00  0.00    -0.166 F 
ATOM     15  F   UNL d   1     -47.663  32.625  33.742  0.00  0.00    -0.166 F 
ENDBRANCH   6  12
ENDBRANCH   1   3
BRANCH   1  16
ATOM     16  C   UNL d   1     -49.220  28.652  34.045  0.00  0.00     0.137 C 
BRANCH  16  17
ATOM     17  C   UNL d   1     -49.369  27.838  34.030  0.00  0.00     0.309 C 
ATOM     18  O   UNL d   1     -49.309  27.396  34.724  0.00  0.00    -0.258 OA
BRANCH  17  19
ATOM     19  O   UNL d   1     -49.577  27.469  33.321  0.00  0.00    -0.273 OA
BRANCH  19  20
ATOM     20  C   UNL d   1     -50.056  26.963  33.316  0.00  0.00     0.103 A 
ATOM     21  C   UNL d   1     -50.737  27.118  33.314  0.00  0.00     0.025 A 
ATOM     22  C   UNL d   1     -51.224  26.609  33.309  0.00  0.00     0.002 A 
ATOM     23  C   UNL d   1     -51.905  26.764  33.306  0.00  0.00     0.000 C 
ATOM     24  C   UNL d   1     -51.015  25.939  33.307  0.00  0.00     0.000 A 
ATOM     25  C   UNL d   1     -50.320  25.778  33.310  0.00  0.00     0.002 A 
ATOM     26  C   UNL d   1     -49.848  26.293  33.315  0.00  0.00     0.025 A 
ATOM     27  C   UNL d   1     -50.108  25.096  33.308  0.00  0.00     0.000 C 
ENDBRANCH  19  20
ENDBRANCH  17  19
ENDBRANCH  16  17
ENDBRANCH   1  16
TORSDOF 7
ENDMDL
