MODEL 1
REMARK VINA RESULT:      31.2      0.000      0.000
REMARK  6 active torsions:
REMARK  status: ('A' for Active; 'I' for Inactive)
REMARK    1  A    between atoms: N_2  and  S_1 
REMARK    2  A    between atoms: C_3  and  S_1 
REMARK    3  A    between atoms: C_9  and  N_2 
REMARK    4  A    between atoms: C_13  and  C_9 
REMARK    5  A    between atoms: O_14  and  C_10 
REMARK    6  A    between atoms: C_17  and  O_14 
ROOT
ATOM      1  S   UNL d   1     -54.895-101.791 -40.780  0.00  0.00     0.285 S 
ATOM      2  O   UNL d   1     -54.761-101.025 -40.507  0.00  0.00    -0.198 OA
ATOM      3  O   UNL d   1     -55.029-102.557 -41.053  0.00  0.00    -0.198 OA
ENDROOT
BRANCH   1   4
ATOM      4  N   UNL d   1     -54.711-101.550 -41.548  0.00  0.00    -0.157 NA
BRANCH   4   5
ATOM      5  C   UNL d   1     -55.309-101.283 -42.053  0.00  0.00     0.112 C 
BRANCH   5   6
ATOM      6  C   UNL d   1     -55.205-101.318 -42.870  0.00  0.00     0.023 A 
ATOM      7  C   UNL d   1     -55.315-102.036 -43.276  0.00  0.00     0.022 A 
ATOM      8  C   UNL d   1     -55.211-102.071 -44.093  0.00  0.00     0.099 A 
ATOM      9  N   UNL d   1     -55.000-101.399 -44.508  0.00  0.00    -0.242 NA
ATOM     10  C   UNL d   1     -54.889-100.684 -44.110  0.00  0.00     0.099 A 
ATOM     11  C   UNL d   1     -54.993-100.646 -43.285  0.00  0.00     0.022 A 
ENDBRANCH   5   6
ENDBRANCH   4   5
ENDBRANCH   1   4
BRANCH   1  12
ATOM     12  C   UNL d   1     -55.079-102.032 -40.013  0.00  0.00     0.105 A 
ATOM     13  C   UNL d   1     -54.714-101.668 -39.369  0.00  0.00     0.015 A 
ATOM     14  C   UNL d   1     -54.898-101.910 -38.602  0.00  0.00     0.025 A 
ATOM     15  C   UNL d   1     -55.447-102.516 -38.479  0.00  0.00     0.100 A 
ATOM     16  C   UNL d   1     -55.812-102.879 -39.123  0.00  0.00     0.025 A 
ATOM     17  C   UNL d   1     -55.628-102.638 -39.890  0.00  0.00     0.015 A 
BRANCH  15  18
ATOM     18  O   UNL d   1     -55.631-102.757 -37.712  0.00  0.00    -0.305 OA
BRANCH  18  19
ATOM     19  C   UNL d   1     -55.072-102.675 -37.110  0.00  0.00     0.123 C 
ATOM     20  C   UNL d   1     -55.293-102.793 -36.320  0.00  0.00     0.029 C 
ENDBRANCH  18  19
ENDBRANCH  15  18
ENDBRANCH   1  12
TORSDOF 6
ENDMDL
MODEL 2
REMARK VINA RESULT:      31.9      4.138      5.484
REMARK  6 active torsions:
REMARK  status: ('A' for Active; 'I' for Inactive)
REMARK    1  A    between atoms: N_2  and  S_1 
REMARK    2  A    between atoms: C_3  and  S_1 
REMARK    3  A    between atoms: C_9  and  N_2 
REMARK    4  A    between atoms: C_13  and  C_9 
REMARK    5  A    between atoms: O_14  and  C_10 
REMARK    6  A    between atoms: C_17  and  O_14 
ROOT
ATOM      1  S   UNL d   1     -55.947 -98.880 -44.367  0.00  0.00     0.285 S 
ATOM      2  O   UNL d   1     -55.994 -99.003 -45.180  0.00  0.00    -0.198 OA
ATOM      3  O   UNL d   1     -55.900 -98.757 -43.552  0.00  0.00    -0.198 OA
ENDROOT
BRANCH   1   4
ATOM      4  N   UNL d   1     -55.123 -98.910 -44.409  0.00  0.00    -0.157 NA
BRANCH   4   5
ATOM      5  C   UNL d   1     -54.752 -99.495 -44.860  0.00  0.00     0.112 C 
BRANCH   5   6
ATOM      6  C   UNL d   1     -54.750-100.278 -44.600  0.00  0.00     0.023 A 
ATOM      7  C   UNL d   1     -54.759-100.448 -43.786  0.00  0.00     0.022 A 
ATOM      8  C   UNL d   1     -54.757-101.231 -43.526  0.00  0.00     0.099 A 
ATOM      9  N   UNL d   1     -54.745-101.843 -44.068  0.00  0.00    -0.242 NA
ATOM     10  C   UNL d   1     -54.736-101.679 -44.877  0.00  0.00     0.099 A 
ATOM     11  C   UNL d   1     -54.739-100.890 -45.143  0.00  0.00     0.022 A 
ENDBRANCH   5   6
ENDBRANCH   4   5
ENDBRANCH   1   4
BRANCH   1  12
ATOM     12  C   UNL d   1     -56.770 -98.850 -44.323  0.00  0.00     0.105 A 
ATOM     13  C   UNL d   1     -57.219 -98.853 -45.015  0.00  0.00     0.015 A 
ATOM     14  C   UNL d   1     -58.042 -98.823 -44.972  0.00  0.00     0.025 A 
ATOM     15  C   UNL d   1     -58.417 -98.791 -44.236  0.00  0.00     0.100 A 
ATOM     16  C   UNL d   1     -57.968 -98.788 -43.544  0.00  0.00     0.025 A 
ATOM     17  C   UNL d   1     -57.145 -98.818 -43.587  0.00  0.00     0.015 A 
BRANCH  15  18
ATOM     18  O   UNL d   1     -59.240 -98.761 -44.192  0.00  0.00    -0.305 OA
BRANCH  18  19
ATOM     19  C   UNL d   1     -59.635 -99.156 -43.585  0.00  0.00     0.123 C 
ATOM     20  C   UNL d   1     -59.715 -98.799 -42.842  0.00  0.00     0.029 C 
ENDBRANCH  18  19
ENDBRANCH  15  18
ENDBRANCH   1  12
TORSDOF 6
ENDMDL
MODEL 3
REMARK VINA RESULT:      33.8      1.479      4.880
REMARK  6 active torsions:
REMARK  status: ('A' for Active; 'I' for Inactive)
REMARK    1  A    between atoms: N_2  and  S_1 
REMARK    2  A    between atoms: C_3  and  S_1 
REMARK    3  A    between atoms: C_9  and  N_2 
REMARK    4  A    between atoms: C_13  and  C_9 
REMARK    5  A    between atoms: O_14  and  C_10 
REMARK    6  A    between atoms: C_17  and  O_14 
ROOT
ATOM      1  S   UNL d   1     -54.957-102.156 -41.056  0.00  0.00     0.285 S 
ATOM      2  O   UNL d   1     -54.960-102.880 -41.451  0.00  0.00    -0.198 OA
ATOM      3  O   UNL d   1     -54.954-101.433 -40.660  0.00  0.00    -0.198 OA
ENDROOT
BRANCH   1   4
ATOM      4  N   UNL d   1     -55.019-102.550 -40.333  0.00  0.00    -0.157 NA
BRANCH   4   5
ATOM      5  C   UNL d   1     -55.619-102.350 -39.801  0.00  0.00     0.112 C 
BRANCH   5   6
ATOM      6  C   UNL d   1     -55.537-102.526 -38.999  0.00  0.00     0.023 A 
ATOM      7  C   UNL d   1     -56.209-102.590 -38.514  0.00  0.00     0.022 A 
ATOM      8  C   UNL d   1     -56.126-102.766 -37.712  0.00  0.00     0.099 A 
ATOM      9  N   UNL d   1     -55.382-102.880 -37.392  0.00  0.00    -0.242 NA
ATOM     10  C   UNL d   1     -54.712-102.818 -37.870  0.00  0.00     0.099 A 
ATOM     11  C   UNL d   1     -54.792-102.639 -38.679  0.00  0.00     0.022 A 
ENDBRANCH   5   6
ENDBRANCH   4   5
ENDBRANCH   1   4
BRANCH   1  12
ATOM     12  C   UNL d   1     -54.896-101.762 -41.777  0.00  0.00     0.105 A 
ATOM     13  C   UNL d   1     -54.873-100.938 -41.795  0.00  0.00     0.015 A 
ATOM     14  C   UNL d   1     -54.812-100.543 -42.517  0.00  0.00     0.025 A 
ATOM     15  C   UNL d   1     -54.773-100.973 -43.222  0.00  0.00     0.100 A 
ATOM     16  C   UNL d   1     -54.795-101.798 -43.204  0.00  0.00     0.025 A 
ATOM     17  C   UNL d   1     -54.857-102.192 -42.483  0.00  0.00     0.015 A 
BRANCH  15  18
ATOM     18  O   UNL d   1     -54.711-100.579 -43.944  0.00  0.00    -0.305 OA
BRANCH  18  19
ATOM     19  C   UNL d   1     -55.167 -99.906 -44.085  0.00  0.00     0.123 C 
ATOM     20  C   UNL d   1     -54.812 -99.219 -44.382  0.00  0.00     0.029 C 
ENDBRANCH  18  19
ENDBRANCH  15  18
ENDBRANCH   1  12
TORSDOF 6
ENDMDL
