MODEL 1
REMARK VINA RESULT:      -5.3      0.000      0.000
REMARK  5 active torsions:
REMARK  status: ('A' for Active; 'I' for Inactive)
REMARK    1  A    between atoms: C_4  and  C_1 
REMARK    2  A    between atoms: N_8  and  C_4 
REMARK    3  A    between atoms: C_11  and  N_8 
REMARK    4  A    between atoms: O_17  and  C_12 
REMARK    5  A    between atoms: C_20  and  O_17 
ROOT
ATOM      1  C   UNL d   1     -42.223-122.861 -50.455  0.00  0.00     0.105 C 
ENDROOT
BRANCH   1   2
ATOM      2  C   UNL d   1     -42.345-123.057 -49.650  0.00  0.00     0.096 A 
ATOM      3  C   UNL d   1     -41.803-122.823 -49.080  0.00  0.00     0.196 A 
ATOM      4  C   UNL d   1     -41.934-123.022 -48.287  0.00  0.00     0.019 A 
ATOM      5  O   UNL d   1     -41.123-122.385 -49.294  0.00  0.00    -0.287 OA
ATOM      6  C   UNL d   1     -42.605-123.455 -48.069  0.00  0.00     0.043 A 
ATOM      7  C   UNL d   1     -43.146-123.688 -48.651  0.00  0.00     0.019 A 
ATOM      8  C   UNL d   1     -42.178-123.304 -47.396  0.00  0.00     0.009 C 
ATOM      9  C   UNL d   1     -43.063-123.817 -47.486  0.00  0.00     0.009 C 
ATOM     10  C   UNL d   1     -43.022-123.492 -49.440  0.00  0.00     0.196 A 
ATOM     11  O   UNL d   1     -43.579-123.736 -50.011  0.00  0.00    -0.287 OA
ENDBRANCH   1   2
BRANCH   1  12
ATOM     12  N   UNL d   1     -41.508-123.014 -50.824  0.00  0.00    -0.244 NA
BRANCH  12  13
ATOM     13  C   UNL d   1     -41.428-122.869 -51.628  0.00  0.00     0.082 A 
ATOM     14  C   UNL d   1     -41.441-123.505 -52.153  0.00  0.00     0.021 A 
ATOM     15  C   UNL d   1     -41.359-123.355 -52.964  0.00  0.00     0.026 A 
ATOM     16  C   UNL d   1     -41.266-122.587 -53.249  0.00  0.00     0.100 A 
ATOM     17  C   UNL d   1     -41.254-121.958 -52.712  0.00  0.00     0.026 A 
ATOM     18  C   UNL d   1     -41.335-122.100 -51.905  0.00  0.00     0.021 A 
BRANCH  16  19
ATOM     19  O   UNL d   1     -41.183-122.437 -54.078  0.00  0.00    -0.305 OA
BRANCH  19  20
ATOM     20  C   UNL d   1     -41.853-122.447 -54.591  0.00  0.00     0.123 C 
ATOM     21  C   UNL d   1     -41.786-122.102 -55.337  0.00  0.00     0.029 C 
ENDBRANCH  19  20
ENDBRANCH  16  19
ENDBRANCH  12  13
ENDBRANCH   1  12
TORSDOF 5
ENDMDL
