MODEL 1
REMARK VINA RESULT:      -8.8      0.000      0.000
REMARK  5 active torsions:
REMARK  status: ('A' for Active; 'I' for Inactive)
REMARK    1  A    between atoms: C_2  and  C_1 
REMARK    2  A    between atoms: C_5  and  C_2 
REMARK    3  A    between atoms: C_9  and  C_5 
REMARK    4  A    between atoms: O_18  and  C_12 
REMARK    5  A    between atoms: O_19  and  C_14 
ROOT
ATOM      1  C   UNL d   1     -49.345  12.429  22.828  0.00  0.00     0.141 C 
ATOM      2  C   UNL d   1     -49.684  11.784  23.223  0.00  0.00     0.107 C 
ATOM      3  N   UNL d   1     -50.035  11.133  23.628  0.00  0.00    -0.191 NA
ENDROOT
BRANCH   1   4
ATOM      4  C   UNL d   1     -49.662  13.176  22.911  0.00  0.00     0.161 A 
ATOM      5  N   UNL d   1     -50.310  13.475  22.463  0.00  0.00    -0.287 N 
ATOM      6  C   UNL d   1     -50.452  14.257  22.726  0.00  0.00     0.083 A 
ATOM      7  C   UNL d   1     -50.720  13.069  21.883  0.00  0.00     0.101 C 
ATOM      8  C   UNL d   1     -50.993  14.827  22.513  0.00  0.00     0.019 A 
ATOM      9  C   UNL d   1     -49.893  14.427  23.325  0.00  0.00     0.099 A 
ATOM     10  C   UNL d   1     -51.005  15.563  22.870  0.00  0.00     0.002 A 
ATOM     11  C   UNL d   1     -50.447  15.733  23.470  0.00  0.00     0.002 A 
ATOM     12  C   UNL d   1     -49.890  15.164  23.698  0.00  0.00     0.021 A 
ATOM     13  N   UNL d   1     -49.417  13.747  23.423  0.00  0.00    -0.226 NA
ENDBRANCH   1   4
BRANCH   1  14
ATOM     14  C   UNL d   1     -48.683  12.306  22.351  0.00  0.00     0.208 C 
ATOM     15  O   UNL d   1     -48.768  12.346  21.535  0.00  0.00    -0.286 OA
BRANCH  14  16
ATOM     16  C   UNL d   1     -47.952  12.146  22.688  0.00  0.00     0.042 A 
ATOM     17  C   UNL d   1     -47.323  12.665  22.589  0.00  0.00     0.029 A 
ATOM     18  C   UNL d   1     -46.597  12.507  22.923  0.00  0.00     0.116 A 
ATOM     19  C   UNL d   1     -46.479  11.824  23.365  0.00  0.00     0.116 A 
ATOM     20  C   UNL d   1     -47.110  11.301  23.465  0.00  0.00     0.026 A 
ATOM     21  C   UNL d   1     -47.836  11.460  23.131  0.00  0.00     0.005 A 
BRANCH  18  22
ATOM     22  O   UNL d   1     -45.988  13.038  22.811  0.00  0.00    -0.326 OA
ATOM     23  C   UNL d   1     -46.141  13.859  22.735  0.00  0.00     0.181 C 
ENDBRANCH  18  22
BRANCH  19  24
ATOM     24  O   UNL d   1     -45.757  11.666  23.697  0.00  0.00    -0.326 OA
ATOM     25  C   UNL d   1     -45.455  10.890  23.694  0.00  0.00     0.181 C 
ENDBRANCH  19  24
ENDBRANCH  14  16
ENDBRANCH   1  14
TORSDOF 5
ENDMDL
MODEL 2
REMARK VINA RESULT:      -7.8      1.029      1.673
REMARK  5 active torsions:
REMARK  status: ('A' for Active; 'I' for Inactive)
REMARK    1  A    between atoms: C_2  and  C_1 
REMARK    2  A    between atoms: C_5  and  C_2 
REMARK    3  A    between atoms: C_9  and  C_5 
REMARK    4  A    between atoms: O_18  and  C_12 
REMARK    5  A    between atoms: O_19  and  C_14 
ROOT
ATOM      1  C   UNL d   1     -48.581  13.112  22.519  0.00  0.00     0.141 C 
ATOM      2  C   UNL d   1     -48.597  12.872  21.727  0.00  0.00     0.107 C 
ATOM      3  N   UNL d   1     -48.618  12.633  20.918  0.00  0.00    -0.191 NA
ENDROOT
BRANCH   1   4
ATOM      4  C   UNL d   1     -49.076  13.706  22.780  0.00  0.00     0.161 A 
ATOM      5  N   UNL d   1     -49.909  13.626  22.883  0.00  0.00    -0.287 N 
ATOM      6  C   UNL d   1     -50.196  14.364  23.156  0.00  0.00     0.083 A 
ATOM      7  C   UNL d   1     -50.348  12.950  22.741  0.00  0.00     0.101 C 
ATOM      8  C   UNL d   1     -50.937  14.636  23.354  0.00  0.00     0.019 A 
ATOM      9  C   UNL d   1     -49.542  14.883  23.216  0.00  0.00     0.099 A 
ATOM     10  C   UNL d   1     -51.061  15.402  23.610  0.00  0.00     0.002 A 
ATOM     11  C   UNL d   1     -50.407  15.921  23.670  0.00  0.00     0.002 A 
ATOM     12  C   UNL d   1     -49.646  15.660  23.473  0.00  0.00     0.021 A 
ATOM     13  N   UNL d   1     -48.863  14.456  22.979  0.00  0.00    -0.226 NA
ENDBRANCH   1   4
BRANCH   1  14
ATOM     14  C   UNL d   1     -48.060  12.744  23.042  0.00  0.00     0.208 C 
ATOM     15  O   UNL d   1     -48.364  12.344  23.691  0.00  0.00    -0.286 OA
BRANCH  14  16
ATOM     16  C   UNL d   1     -47.251  12.777  22.913  0.00  0.00     0.042 A 
ATOM     17  C   UNL d   1     -46.755  12.194  23.213  0.00  0.00     0.029 A 
ATOM     18  C   UNL d   1     -45.950  12.227  23.086  0.00  0.00     0.116 A 
ATOM     19  C   UNL d   1     -45.619  12.844  22.655  0.00  0.00     0.116 A 
ATOM     20  C   UNL d   1     -46.116  13.430  22.353  0.00  0.00     0.026 A 
ATOM     21  C   UNL d   1     -46.920  13.397  22.480  0.00  0.00     0.005 A 
BRANCH  18  22
ATOM     22  O   UNL d   1     -45.479  11.637  23.394  0.00  0.00    -0.326 OA
ATOM     23  C   UNL d   1     -45.805  10.895  23.611  0.00  0.00     0.181 C 
ENDBRANCH  18  22
BRANCH  19  24
ATOM     24  O   UNL d   1     -44.819  12.877  22.528  0.00  0.00    -0.326 OA
ATOM     25  C   UNL d   1     -44.521  13.018  21.763  0.00  0.00     0.181 C 
ENDBRANCH  19  24
ENDBRANCH  14  16
ENDBRANCH   1  14
TORSDOF 5
ENDMDL
MODEL 3
REMARK VINA RESULT:      -6.5      1.232      1.905
REMARK  5 active torsions:
REMARK  status: ('A' for Active; 'I' for Inactive)
REMARK    1  A    between atoms: C_2  and  C_1 
REMARK    2  A    between atoms: C_5  and  C_2 
REMARK    3  A    between atoms: C_9  and  C_5 
REMARK    4  A    between atoms: O_18  and  C_12 
REMARK    5  A    between atoms: O_19  and  C_14 
ROOT
ATOM      1  C   UNL d   1     -47.612  13.793  22.694  0.00  0.00     0.141 C 
ATOM      2  C   UNL d   1     -47.069  14.378  22.916  0.00  0.00     0.107 C 
ATOM      3  N   UNL d   1     -46.522  14.978  23.145  0.00  0.00    -0.191 NA
ENDROOT
BRANCH   1   4
ATOM      4  C   UNL d   1     -48.404  13.880  22.867  0.00  0.00     0.161 A 
ATOM      5  N   UNL d   1     -48.881  14.529  22.620  0.00  0.00    -0.287 N 
ATOM      6  C   UNL d   1     -49.653  14.395  22.916  0.00  0.00     0.083 A 
ATOM      7  C   UNL d   1     -48.630  15.168  22.174  0.00  0.00     0.101 C 
ATOM      8  C   UNL d   1     -50.349  14.814  22.867  0.00  0.00     0.019 A 
ATOM      9  C   UNL d   1     -49.640  13.672  23.337  0.00  0.00     0.099 A 
ATOM     10  C   UNL d   1     -51.038  14.547  23.218  0.00  0.00     0.002 A 
ATOM     11  C   UNL d   1     -51.025  13.823  23.639  0.00  0.00     0.002 A 
ATOM     12  C   UNL d   1     -50.324  13.385  23.698  0.00  0.00     0.021 A 
ATOM     13  N   UNL d   1     -48.861  13.372  23.293  0.00  0.00    -0.226 NA
ENDBRANCH   1   4
BRANCH   1  14
ATOM     14  C   UNL d   1     -47.341  13.123  22.297  0.00  0.00     0.208 C 
ATOM     15  O   UNL d   1     -47.641  12.954  21.551  0.00  0.00    -0.286 OA
BRANCH  14  16
ATOM     16  C   UNL d   1     -46.781  12.633  22.642  0.00  0.00     0.042 A 
ATOM     17  C   UNL d   1     -45.990  12.681  22.423  0.00  0.00     0.029 A 
ATOM     18  C   UNL d   1     -45.434  12.195  22.766  0.00  0.00     0.116 A 
ATOM     19  C   UNL d   1     -45.652  11.646  23.337  0.00  0.00     0.116 A 
ATOM     20  C   UNL d   1     -46.446  11.595  23.558  0.00  0.00     0.026 A 
ATOM     21  C   UNL d   1     -47.003  12.082  23.215  0.00  0.00     0.005 A 
BRANCH  18  22
ATOM     22  O   UNL d   1     -44.655  12.262  22.532  0.00  0.00    -0.326 OA
ATOM     23  C   UNL d   1     -44.448  12.698  21.846  0.00  0.00     0.181 C 
ENDBRANCH  18  22
BRANCH  19  24
ATOM     24  O   UNL d   1     -45.099  11.161  23.678  0.00  0.00    -0.326 OA
ATOM     25  C   UNL d   1     -45.218  10.337  23.698  0.00  0.00     0.181 C 
ENDBRANCH  19  24
ENDBRANCH  14  16
ENDBRANCH   1  14
TORSDOF 5
ENDMDL
