MODEL 1
REMARK VINA RESULT:      22.5      0.000      0.000
REMARK  1 active torsions:
REMARK  status: ('A' for Active; 'I' for Inactive)
REMARK    1  A    between atoms: C_4  and  C_1 
ROOT
ATOM      1  C   UNL d   1     -57.191 -98.801 -44.412  0.00  0.00     0.112 A 
ATOM      2  N   UNL d   1     -57.707 -98.794 -45.064  0.00  0.00    -0.238 NA
ATOM      3  S   UNL d   1     -57.651 -98.792 -43.716  0.00  0.00    -0.066 SA
ATOM      4  C   UNL d   1     -58.484 -98.780 -44.773  0.00  0.00     0.088 A 
ATOM      5  C   UNL d   1     -58.450 -98.779 -43.943  0.00  0.00     0.049 A 
ATOM      6  C   UNL d   1     -59.214 -98.769 -45.156  0.00  0.00     0.020 A 
ATOM      7  C   UNL d   1     -59.146 -98.766 -43.500  0.00  0.00     0.008 A 
ATOM      8  C   UNL d   1     -59.877 -98.755 -43.884  0.00  0.00     0.001 A 
ATOM      9  C   UNL d   1     -59.911 -98.756 -44.714  0.00  0.00     0.002 A 
ENDROOT
BRANCH   1  10
ATOM     10  C   UNL d   1     -56.365 -98.815 -44.442  0.00  0.00     0.043 A 
ATOM     11  C   UNL d   1     -55.980 -98.793 -45.176  0.00  0.00     0.105 A 
ATOM     12  N   UNL d   1     -56.423 -98.758 -45.872  0.00  0.00    -0.148 N 
ATOM     13  C   UNL d   1     -55.155 -98.807 -45.206  0.00  0.00     0.021 A 
ATOM     14  C   UNL d   1     -54.713 -98.842 -44.510  0.00  0.00     0.002 A 
ATOM     15  C   UNL d   1     -55.109 -98.864 -43.780  0.00  0.00     0.000 A 
ATOM     16  C   UNL d   1     -55.923 -98.850 -43.746  0.00  0.00     0.004 A 
ENDBRANCH   1  10
TORSDOF 1
ENDMDL
