MODEL 1
REMARK VINA RESULT:      -5.2      0.000      0.000
REMARK  4 active torsions:
REMARK  status: ('A' for Active; 'I' for Inactive)
REMARK    1  A    between atoms: C_2  and  S_1 
REMARK    2  A    between atoms: N_3  and  S_1 
REMARK    3  A    between atoms: C_4  and  C_6 
REMARK       I    between atoms: N_7  and  C_4 
REMARK    4  A    between atoms: C_14  and  N_7 
ROOT
ATOM      1  C   UNL d   1      58.893  -0.881  29.411  0.00  0.00     0.104 A 
ATOM      2  C   UNL d   1      58.353  -0.738  30.019  0.00  0.00     0.018 A 
ATOM      3  C   UNL d   1      58.219   0.038  30.279  0.00  0.00     0.059 A 
ATOM      4  C   UNL d   1      59.293  -0.257  29.066  0.00  0.00     0.012 A 
ATOM      5  C   UNL d   1      58.625   0.667  29.929  0.00  0.00     0.005 A 
ATOM      6  C   UNL d   1      59.159   0.519  29.325  0.00  0.00     0.001 A 
ATOM      7  C   UNL d   1      59.833  -0.399  28.458  0.00  0.00     0.001 C 
ENDROOT
BRANCH   3   8
ATOM      8  C   UNL d   1      57.678   0.187  30.889  0.00  0.00     0.279 C 
ATOM      9  N   UNL d   1      57.802  -0.131  31.638  0.00  0.00    -0.208 NA
ATOM     10  O   UNL d   1      57.014   0.654  30.747  0.00  0.00    -0.265 OA
BRANCH   9  11
ATOM     11  C   UNL d   1      57.266   0.016  32.245  0.00  0.00     0.087 A 
ATOM     12  C   UNL d   1      56.536  -0.350  32.237  0.00  0.00     0.045 A 
ATOM     13  C   UNL d   1      55.998  -0.208  32.836  0.00  0.00     0.121 A 
ATOM     14  O   UNL d   1      55.230  -0.489  32.982  0.00  0.00    -0.299 OA
ATOM     15  C   UNL d   1      56.194   0.309  33.455  0.00  0.00     0.119 A 
ATOM     16  C   UNL d   1      54.950  -0.152  33.682  0.00  0.00     0.304 A 
ATOM     17  O   UNL d   1      55.552   0.349  33.980  0.00  0.00    -0.300 OA
ATOM     18  C   UNL d   1      56.935   0.679  33.461  0.00  0.00     0.028 A 
ATOM     19  C   UNL d   1      57.471   0.533  32.857  0.00  0.00     0.021 A 
ENDBRANCH   9  11
ENDBRANCH   3   8
BRANCH   1  20
ATOM     20  S   UNL d   1      59.026  -1.648  29.154  0.00  0.00     0.271 S 
ATOM     21  O   UNL d   1      58.449  -1.548  28.556  0.00  0.00    -0.200 OA
ATOM     22  O   UNL d   1      59.677  -1.761  29.831  0.00  0.00    -0.200 OA
BRANCH  20  23
ATOM     23  N   UNL d   1      59.197  -2.430  28.934  0.00  0.00    -0.229 N 
ATOM     24  C   UNL d   1      58.591  -2.927  28.674  0.00  0.00     0.092 A 
ATOM     25  C   UNL d   1      58.754  -3.698  28.455  0.00  0.00     0.020 A 
ATOM     26  C   UNL d   1      59.523  -3.986  28.492  0.00  0.00     0.003 A 
ATOM     27  C   UNL d   1      60.129  -3.489  28.752  0.00  0.00     0.020 A 
ATOM     28  C   UNL d   1      59.969  -2.713  28.973  0.00  0.00     0.092 A 
ENDBRANCH  20  23
ENDBRANCH   1  20
TORSDOF 4
ENDMDL
