MODEL 1
REMARK VINA RESULT:      -3.1      0.000      0.000
REMARK  6 active torsions:
REMARK  status: ('A' for Active; 'I' for Inactive)
REMARK    1  A    between atoms: S_12  and  C_1 
REMARK    2  A    between atoms: C_2  and  S_11 
REMARK    3  A    between atoms: S_11  and  C_15 
REMARK    4  A    between atoms: C_16  and  S_12 
REMARK    5  A    between atoms: C_13  and  C_16 
REMARK    6  A    between atoms: C_15  and  C_13 
ROOT
ATOM      1  C   UNL d   1      32.814  18.457 -22.861  0.00  0.00     0.209 C 
ATOM      2  O   UNL d   1      33.241  17.892 -22.418  0.00  0.00    -0.285 OA
ENDROOT
BRANCH   1   3
ATOM      3  C   UNL d   1      32.958  19.266 -22.740  0.00  0.00     0.080 C 
BRANCH   3   4
ATOM      4  S   UNL d   1      33.028  19.574 -21.974  0.00  0.00    -0.058 SA
BRANCH   4   5
ATOM      5  C   UNL d   1      33.069  20.387 -21.854  0.00  0.00     0.141 A 
ATOM      6  N   UNL d   1      33.088  20.974 -22.442  0.00  0.00    -0.232 NA
ATOM      7  C   UNL d   1      33.130  21.711 -22.069  0.00  0.00     0.088 A 
ATOM      8  C   UNL d   1      33.162  22.478 -22.371  0.00  0.00     0.020 A 
ATOM      9  C   UNL d   1      33.138  21.589 -21.244  0.00  0.00     0.049 A 
ATOM     10  C   UNL d   1      33.203  23.126 -21.863  0.00  0.00     0.002 A 
ATOM     11  C   UNL d   1      33.210  23.004 -21.038  0.00  0.00     0.001 A 
ATOM     12  C   UNL d   1      33.178  22.233 -20.735  0.00  0.00     0.008 A 
ATOM     13  S   UNL d   1      33.101  20.772 -21.109  0.00  0.00    -0.060 SA
ENDBRANCH   4   5
ENDBRANCH   3   4
ENDBRANCH   1   3
BRANCH   1  14
ATOM     14  C   UNL d   1      32.256  18.209 -23.413  0.00  0.00     0.080 C 
BRANCH  14  15
ATOM     15  S   UNL d   1      32.235  17.420 -23.663  0.00  0.00    -0.058 SA
BRANCH  15  16
ATOM     16  C   UNL d   1      31.545  17.100 -23.978  0.00  0.00     0.141 A 
ATOM     17  N   UNL d   1      30.907  17.528 -24.302  0.00  0.00    -0.232 NA
ATOM     18  C   UNL d   1      30.332  16.978 -24.551  0.00  0.00     0.088 A 
ATOM     19  C   UNL d   1      29.600  17.078 -24.904  0.00  0.00     0.020 A 
ATOM     20  C   UNL d   1      30.609  16.220 -24.385  0.00  0.00     0.049 A 
ATOM     21  C   UNL d   1      29.134  16.425 -25.097  0.00  0.00     0.002 A 
ATOM     22  C   UNL d   1      29.418  15.656 -24.927  0.00  0.00     0.001 A 
ATOM     23  C   UNL d   1      30.154  15.556 -24.571  0.00  0.00     0.008 A 
ATOM     24  S   UNL d   1      31.363  16.292 -24.029  0.00  0.00    -0.060 SA
ENDBRANCH  15  16
ENDBRANCH  14  15
ENDBRANCH   1  14
TORSDOF 6
ENDMDL
MODEL 2
REMARK VINA RESULT:      -2.5      1.588      6.230
REMARK  6 active torsions:
REMARK  status: ('A' for Active; 'I' for Inactive)
REMARK    1  A    between atoms: S_12  and  C_1 
REMARK    2  A    between atoms: C_2  and  S_11 
REMARK    3  A    between atoms: S_11  and  C_15 
REMARK    4  A    between atoms: C_16  and  S_12 
REMARK    5  A    between atoms: C_13  and  C_16 
REMARK    6  A    between atoms: C_15  and  C_13 
ROOT
ATOM      1  C   UNL d   1      33.166  20.289 -22.713  0.00  0.00     0.209 C 
ATOM      2  O   UNL d   1      33.044  20.749 -23.399  0.00  0.00    -0.285 OA
ENDROOT
BRANCH   1   3
ATOM      3  C   UNL d   1      33.216  19.462 -22.777  0.00  0.00     0.080 C 
BRANCH   3   4
ATOM      4  S   UNL d   1      33.208  19.094 -23.518  0.00  0.00    -0.058 SA
BRANCH   4   5
ATOM      5  C   UNL d   1      32.901  18.335 -23.604  0.00  0.00     0.141 A 
ATOM      6  N   UNL d   1      33.176  17.645 -23.229  0.00  0.00    -0.232 NA
ATOM      7  C   UNL d   1      32.704  17.013 -23.477  0.00  0.00     0.088 A 
ATOM      8  C   UNL d   1      32.719  16.210 -23.289  0.00  0.00     0.020 A 
ATOM      9  C   UNL d   1      32.131  17.304 -24.009  0.00  0.00     0.049 A 
ATOM     10  C   UNL d   1      32.173  15.691 -23.623  0.00  0.00     0.002 A 
ATOM     11  C   UNL d   1      31.600  15.982 -24.155  0.00  0.00     0.001 A 
ATOM     12  C   UNL d   1      31.585  16.789 -24.343  0.00  0.00     0.008 A 
ATOM     13  S   UNL d   1      32.251  18.120 -24.088  0.00  0.00    -0.060 SA
ENDBRANCH   4   5
ENDBRANCH   3   4
ENDBRANCH   1   3
BRANCH   1  14
ATOM     14  C   UNL d   1      33.237  20.658 -21.980  0.00  0.00     0.080 C 
BRANCH  14  15
ATOM     15  S   UNL d   1      32.565  20.932 -21.582  0.00  0.00    -0.058 SA
BRANCH  15  16
ATOM     16  C   UNL d   1      32.631  21.517 -21.006  0.00  0.00     0.141 A 
ATOM     17  N   UNL d   1      33.041  21.453 -20.284  0.00  0.00    -0.232 NA
ATOM     18  C   UNL d   1      32.959  22.177 -19.879  0.00  0.00     0.088 A 
ATOM     19  C   UNL d   1      33.241  22.430 -19.153  0.00  0.00     0.020 A 
ATOM     20  C   UNL d   1      32.504  22.683 -20.343  0.00  0.00     0.049 A 
ATOM     21  C   UNL d   1      33.074  23.190 -18.880  0.00  0.00     0.002 A 
ATOM     22  C   UNL d   1      32.612  23.702 -19.353  0.00  0.00     0.001 A 
ATOM     23  C   UNL d   1      32.329  23.447 -20.083  0.00  0.00     0.008 A 
ATOM     24  S   UNL d   1      32.298  22.276 -21.045  0.00  0.00    -0.060 SA
ENDBRANCH  15  16
ENDBRANCH  14  15
ENDBRANCH   1  14
TORSDOF 6
ENDMDL
