MODEL 1
REMARK VINA RESULT:      -1.8      0.000      0.000
REMARK  2 active torsions:
REMARK  status: ('A' for Active; 'I' for Inactive)
REMARK    1  A    between atoms: N_9  and  C_3 
REMARK    2  A    between atoms: C_11  and  C_4 
ROOT
ATOM      1  N   UNL d   1     -41.840-122.459 -51.982  0.00  0.00    -0.196 N 
ATOM      2  C   UNL d   1     -41.781-122.389 -51.158  0.00  0.00     0.167 A 
ATOM      3  C   UNL d   1     -41.657-121.807 -52.463  0.00  0.00     0.153 A 
ATOM      4  C   UNL d   1     -41.959-123.024 -50.675  0.00  0.00     0.057 A 
ATOM      5  N   UNL d   1     -42.261-123.817 -51.844  0.00  0.00    -0.161 NA
ATOM      6  N   UNL d   1     -41.541-121.676 -50.822  0.00  0.00    -0.227 NA
ATOM      7  C   UNL d   1     -41.421-121.105 -52.120  0.00  0.00     0.057 A 
ATOM      8  C   UNL d   1     -42.200-123.743 -51.020  0.00  0.00     0.124 A 
ATOM      9  C   UNL d   1     -41.362-121.039 -51.296  0.00  0.00     0.086 A 
ATOM     10  C   UNL d   1     -41.123-120.326 -50.960  0.00  0.00     0.021 C 
ENDROOT
BRANCH   4  11
ATOM     11  C   UNL d   1     -41.901-122.958 -49.855  0.00  0.00     0.004 A 
ATOM     12  C   UNL d   1     -42.560-122.726 -49.413  0.00  0.00     0.000 A 
ATOM     13  C   UNL d   1     -42.502-122.661 -48.592  0.00  0.00     0.000 A 
ATOM     14  C   UNL d   1     -41.772-122.831 -48.215  0.00  0.00     0.000 A 
ATOM     15  C   UNL d   1     -41.128-123.060 -48.671  0.00  0.00     0.000 A 
ATOM     16  C   UNL d   1     -41.714-122.765 -47.395  0.00  0.00     0.000 C 
ATOM     17  C   UNL d   1     -41.185-123.125 -49.487  0.00  0.00     0.000 A 
ENDBRANCH   4  11
BRANCH   3  18
ATOM     18  N   UNL d   1     -41.717-121.875 -53.313  0.00  0.00    -0.285 N 
ATOM     19  C   UNL d   1     -42.374-121.511 -53.719  0.00  0.00     0.108 A 
ATOM     20  C   UNL d   1     -42.429-121.581 -54.561  0.00  0.00     0.142 A 
ATOM     21  O   UNL d   1     -41.826-122.018 -55.010  0.00  0.00    -0.300 OA
ATOM     22  C   UNL d   1     -41.188-122.369 -54.586  0.00  0.00     0.142 A 
ATOM     23  C   UNL d   1     -41.128-122.301 -53.744  0.00  0.00     0.108 A 
ENDBRANCH   3  18
TORSDOF 2
ENDMDL
MODEL 2
REMARK VINA RESULT:      -1.4      1.579      4.428
REMARK  2 active torsions:
REMARK  status: ('A' for Active; 'I' for Inactive)
REMARK    1  A    between atoms: N_9  and  C_3 
REMARK    2  A    between atoms: C_11  and  C_4 
ROOT
ATOM      1  N   UNL d   1     -41.858-122.570 -51.513  0.00  0.00    -0.196 N 
ATOM      2  C   UNL d   1     -41.781-122.250 -52.274  0.00  0.00     0.167 A 
ATOM      3  C   UNL d   1     -41.687-122.099 -50.852  0.00  0.00     0.153 A 
ATOM      4  C   UNL d   1     -41.948-122.704 -52.933  0.00  0.00     0.057 A 
ATOM      5  N   UNL d   1     -42.274-123.817 -52.073  0.00  0.00    -0.161 NA
ATOM      6  N   UNL d   1     -41.536-121.469 -52.369  0.00  0.00    -0.227 NA
ATOM      7  C   UNL d   1     -41.444-121.327 -50.956  0.00  0.00     0.057 A 
ATOM      8  C   UNL d   1     -42.196-123.493 -52.832  0.00  0.00     0.124 A 
ATOM      9  C   UNL d   1     -41.369-121.010 -51.718  0.00  0.00     0.086 A 
ATOM     10  C   UNL d   1     -41.123-120.229 -51.813  0.00  0.00     0.021 C 
ENDROOT
BRANCH   4  11
ATOM     11  C   UNL d   1     -41.873-122.389 -53.691  0.00  0.00     0.004 A 
ATOM     12  C   UNL d   1     -41.200-122.555 -54.142  0.00  0.00     0.000 A 
ATOM     13  C   UNL d   1     -41.124-122.240 -54.901  0.00  0.00     0.000 A 
ATOM     14  C   UNL d   1     -41.734-121.752 -55.208  0.00  0.00     0.000 A 
ATOM     15  C   UNL d   1     -42.396-121.597 -54.745  0.00  0.00     0.000 A 
ATOM     16  C   UNL d   1     -41.659-121.437 -55.966  0.00  0.00     0.000 C 
ATOM     17  C   UNL d   1     -42.471-121.911 -53.990  0.00  0.00     0.000 A 
ENDBRANCH   4  11
BRANCH   3  18
ATOM     18  N   UNL d   1     -41.764-122.426 -50.065  0.00  0.00    -0.285 N 
ATOM     19  C   UNL d   1     -41.125-122.885 -49.735  0.00  0.00     0.108 A 
ATOM     20  C   UNL d   1     -41.206-123.207 -48.956  0.00  0.00     0.142 A 
ATOM     21  O   UNL d   1     -41.932-123.073 -48.495  0.00  0.00    -0.300 OA
ATOM     22  C   UNL d   1     -42.549-122.617 -48.843  0.00  0.00     0.142 A 
ATOM     23  C   UNL d   1     -42.472-122.293 -49.622  0.00  0.00     0.108 A 
ENDBRANCH   3  18
TORSDOF 2
ENDMDL
