MODEL 1
REMARK VINA RESULT:      -0.6      0.000      0.000
REMARK  7 active torsions:
REMARK  status: ('A' for Active; 'I' for Inactive)
REMARK    1  A    between atoms: C_3  and  N_1 
REMARK    2  A    between atoms: N_7  and  C_3 
REMARK    3  A    between atoms: C_9  and  C_4 
REMARK    4  A    between atoms: C_10  and  C_5 
REMARK    5  A    between atoms: C_15  and  N_7 
REMARK    6  A    between atoms: O_22  and  C_16 
REMARK    7  A    between atoms: O_23  and  C_17 
ROOT
ATOM      1  N   UNL d   1      57.723  -1.405  30.407  0.00  0.00    -0.203 N 
ATOM      2  N   UNL d   1      57.177  -1.461  31.010  0.00  0.00    -0.163 NA
ATOM      3  C   UNL d   1      57.177  -0.713  31.410  0.00  0.00     0.103 A 
ATOM      4  C   UNL d   1      58.061  -0.672  30.408  0.00  0.00     0.087 A 
ATOM      5  C   UNL d   1      57.731  -0.241  31.021  0.00  0.00     0.040 A 
ENDROOT
BRANCH   1   6
ATOM      6  C   UNL d   1      57.911  -2.030  29.855  0.00  0.00     0.222 C 
ATOM      7  S   UNL d   1      57.671  -1.950  29.069  0.00  0.00    -0.037 SA
BRANCH   6   8
ATOM      8  N   UNL d   1      58.325  -2.690  30.126  0.00  0.00    -0.217 NA
BRANCH   8   9
ATOM      9  C   UNL d   1      58.649  -3.204  29.568  0.00  0.00     0.084 A 
ATOM     10  C   UNL d   1      59.462  -3.212  29.449  0.00  0.00     0.019 A 
ATOM     11  C   UNL d   1      59.788  -3.740  28.877  0.00  0.00     0.002 A 
ATOM     12  C   UNL d   1      59.313  -4.227  28.456  0.00  0.00     0.000 A 
ATOM     13  C   UNL d   1      58.499  -4.227  28.567  0.00  0.00     0.002 A 
ATOM     14  C   UNL d   1      58.165  -3.717  29.122  0.00  0.00     0.019 A 
ENDBRANCH   8   9
ENDBRANCH   6   8
ENDBRANCH   1   6
BRANCH   4  15
ATOM     15  C   UNL d   1      58.642  -0.330  29.918  0.00  0.00     0.018 A 
ATOM     16  C   UNL d   1      58.453  -0.138  29.140  0.00  0.00     0.004 A 
ATOM     17  C   UNL d   1      59.023   0.199  28.657  0.00  0.00     0.024 A 
ATOM     18  C   UNL d   1      59.797   0.349  28.948  0.00  0.00     0.094 A 
ATOM     19  C   UNL d   1      59.979   0.147  29.748  0.00  0.00     0.024 A 
ATOM     20  C   UNL d   1      59.391  -0.189  30.214  0.00  0.00     0.004 A 
BRANCH  18  21
ATOM     21  O   UNL d   1      60.350   0.682  28.458  0.00  0.00    -0.328 OA
ATOM     22  C   UNL d   1      61.133   0.449  28.487  0.00  0.00     0.181 C 
ENDBRANCH  18  21
ENDBRANCH   4  15
BRANCH   3  23
ATOM     23  C   UNL d   1      56.702  -0.526  32.060  0.00  0.00     0.019 A 
ATOM     24  C   UNL d   1      56.087  -1.025  32.281  0.00  0.00     0.004 A 
ATOM     25  C   UNL d   1      55.608  -0.846  32.929  0.00  0.00     0.024 A 
ATOM     26  C   UNL d   1      55.752  -0.156  33.359  0.00  0.00     0.094 A 
ATOM     27  C   UNL d   1      56.383   0.355  33.132  0.00  0.00     0.024 A 
ATOM     28  C   UNL d   1      56.857   0.170  32.484  0.00  0.00     0.004 A 
BRANCH  26  29
ATOM     29  O   UNL d   1      55.256   0.021  34.023  0.00  0.00    -0.328 OA
ATOM     30  C   UNL d   1      54.467   0.592  34.105  0.00  0.00     0.181 C 
ENDBRANCH  26  29
ENDBRANCH   3  23
TORSDOF 7
ENDMDL
MODEL 2
REMARK VINA RESULT:      -0.5      1.169      2.953
REMARK  7 active torsions:
REMARK  status: ('A' for Active; 'I' for Inactive)
REMARK    1  A    between atoms: C_3  and  N_1 
REMARK    2  A    between atoms: N_7  and  C_3 
REMARK    3  A    between atoms: C_9  and  C_4 
REMARK    4  A    between atoms: C_10  and  C_5 
REMARK    5  A    between atoms: C_15  and  N_7 
REMARK    6  A    between atoms: O_22  and  C_16 
REMARK    7  A    between atoms: O_23  and  C_17 
ROOT
ATOM      1  N   UNL d   1      57.897  -0.382  30.197  0.00  0.00    -0.203 N 
ATOM      2  N   UNL d   1      57.473  -0.011  30.786  0.00  0.00    -0.163 NA
ATOM      3  C   UNL d   1      57.176  -0.622  31.295  0.00  0.00     0.103 A 
ATOM      4  C   UNL d   1      57.881  -1.182  30.307  0.00  0.00     0.087 A 
ATOM      5  C   UNL d   1      57.440  -1.337  30.979  0.00  0.00     0.040 A 
ENDROOT
BRANCH   1   6
ATOM      6  C   UNL d   1      58.299   0.017  29.556  0.00  0.00     0.222 C 
ATOM      7  S   UNL d   1      58.213  -0.280  28.790  0.00  0.00    -0.037 SA
BRANCH   6   8
ATOM      8  N   UNL d   1      58.757   0.681  29.724  0.00  0.00    -0.217 NA
BRANCH   8   9
ATOM      9  C   UNL d   1      59.547   0.681  29.488  0.00  0.00     0.084 A 
ATOM     10  C   UNL d   1      60.140   0.682  30.058  0.00  0.00     0.019 A 
ATOM     11  C   UNL d   1      60.947   0.682  29.810  0.00  0.00     0.002 A 
ATOM     12  C   UNL d   1      61.133   0.682  29.033  0.00  0.00     0.000 A 
ATOM     13  C   UNL d   1      60.548   0.681  28.455  0.00  0.00     0.002 A 
ATOM     14  C   UNL d   1      59.756   0.681  28.681  0.00  0.00     0.019 A 
ENDBRANCH   8   9
ENDBRANCH   6   8
ENDBRANCH   1   6
BRANCH   4  15
ATOM     15  C   UNL d   1      58.220  -1.807  29.872  0.00  0.00     0.018 A 
ATOM     16  C   UNL d   1      58.957  -2.101  30.094  0.00  0.00     0.004 A 
ATOM     17  C   UNL d   1      59.291  -2.715  29.667  0.00  0.00     0.024 A 
ATOM     18  C   UNL d   1      58.889  -3.047  29.006  0.00  0.00     0.094 A 
ATOM     19  C   UNL d   1      58.135  -2.736  28.789  0.00  0.00     0.024 A 
ATOM     20  C   UNL d   1      57.819  -2.120  29.232  0.00  0.00     0.004 A 
BRANCH  18  21
ATOM     21  O   UNL d   1      59.233  -3.654  28.594  0.00  0.00    -0.328 OA
ATOM     22  C   UNL d   1      58.949  -4.418  28.657  0.00  0.00     0.181 C 
ENDBRANCH  18  21
ENDBRANCH   4  15
BRANCH   3  23
ATOM     23  C   UNL d   1      56.713  -0.491  31.968  0.00  0.00     0.019 A 
ATOM     24  C   UNL d   1      56.574   0.275  32.232  0.00  0.00     0.004 A 
ATOM     25  C   UNL d   1      56.114   0.413  32.904  0.00  0.00     0.024 A 
ATOM     26  C   UNL d   1      55.790  -0.228  33.312  0.00  0.00     0.094 A 
ATOM     27  C   UNL d   1      55.934  -1.013  33.039  0.00  0.00     0.024 A 
ATOM     28  C   UNL d   1      56.394  -1.144  32.369  0.00  0.00     0.004 A 
BRANCH  26  29
ATOM     29  O   UNL d   1      55.319  -0.077  33.999  0.00  0.00    -0.328 OA
ATOM     30  C   UNL d   1      54.722   0.664  34.222  0.00  0.00     0.181 C 
ENDBRANCH  26  29
ENDBRANCH   3  23
TORSDOF 7
ENDMDL
