MODEL 1
REMARK VINA RESULT:      13.0      0.000      0.000
REMARK  2 active torsions:
REMARK  status: ('A' for Active; 'I' for Inactive)
REMARK    1  A    between atoms: C_12  and  C_9 
REMARK    2  A    between atoms: N_15  and  C_12 
ROOT
ATOM      1  C   UNL d   1     -51.361  25.191  33.307  0.00  0.00     0.176 A 
ATOM      2  C   UNL d   1     -50.547  25.060  33.307  0.00  0.00     0.174 A 
ATOM      3  N   UNL d   1     -51.657  25.978  33.308  0.00  0.00    -0.240 N 
ATOM      4  N   UNL d   1     -50.318  26.480  33.309  0.00  0.00    -0.223 N 
ATOM      5  C   UNL d   1     -51.145  26.614  33.309  0.00  0.00     0.343 A 
ATOM      6  C   UNL d   1     -50.015  25.713  33.308  0.00  0.00     0.289 A 
ATOM      7  N   UNL d   1     -51.892  24.567  33.307  0.00  0.00    -0.206 NA
ATOM      8  N   UNL d   1     -50.778  23.648  33.306  0.00  0.00    -0.217 NA
ATOM      9  C   UNL d   1     -51.604  23.794  33.306  0.00  0.00     0.182 A 
ATOM     10  O   UNL d   1     -51.437  27.392  33.309  0.00  0.00    -0.245 OA
ATOM     11  O   UNL d   1     -49.197  25.581  33.308  0.00  0.00    -0.265 OA
ATOM     12  C   UNL d   1     -52.479  26.111  33.308  0.00  0.00     0.105 C 
ATOM     13  C   UNL d   1     -49.768  27.163  33.309  0.00  0.00     0.107 C 
ENDROOT
BRANCH   9  14
ATOM     14  C   UNL d   1     -52.267  23.322  33.306  0.00  0.00     0.120 C 
BRANCH  14  15
ATOM     15  N   UNL d   1     -52.913  23.262  33.774  0.00  0.00    -0.297 N 
ATOM     16  C   UNL d   1     -52.833  23.207  34.575  0.00  0.00     0.100 C 
ATOM     17  C   UNL d   1     -53.647  23.256  33.442  0.00  0.00     0.100 C 
ENDBRANCH  14  15
ENDBRANCH   9  14
TORSDOF 2
ENDMDL
