MODEL 1
REMARK VINA RESULT:      91.4      0.000      0.000
REMARK  3 active torsions:
REMARK  status: ('A' for Active; 'I' for Inactive)
REMARK    1  A    between atoms: C_14  and  C_1 
REMARK    2  A    between atoms: C_3  and  C_8 
REMARK       I    between atoms: C_8  and  N_13 
REMARK    3  A    between atoms: N_13  and  C_15 
ROOT
ATOM      1  C   UNL d   1     -49.174  28.305  34.200  0.00  0.00     0.025 A 
ATOM      2  C   UNL d   1     -48.415  29.018  35.187  0.00  0.00     0.085 A 
ATOM      3  C   UNL d   1     -48.814  28.337  34.945  0.00  0.00     0.021 A 
ATOM      4  C   UNL d   1     -49.151  28.911  33.703  0.00  0.00     0.002 A 
ATOM      5  C   UNL d   1     -48.766  29.585  33.919  0.00  0.00     0.002 A 
ATOM      6  C   UNL d   1     -48.383  29.675  34.662  0.00  0.00     0.019 A 
ENDROOT
BRANCH   2   7
ATOM      7  N   UNL d   1     -48.054  29.068  35.918  0.00  0.00    -0.206 NA
ATOM      8  C   UNL d   1     -47.575  29.732  36.087  0.00  0.00     0.302 C 
ATOM      9  O   UNL d   1     -47.203  29.773  36.852  0.00  0.00    -0.263 OA
BRANCH   8  10
ATOM     10  C   UNL d   1     -47.476  30.302  35.542  0.00  0.00     0.161 A 
ATOM     11  C   UNL d   1     -46.859  30.195  35.025  0.00  0.00     0.072 A 
ATOM     12  C   UNL d   1     -46.745  30.776  34.457  0.00  0.00     0.200 A 
ATOM     13  O   UNL d   1     -46.139  30.690  33.934  0.00  0.00    -0.286 OA
ATOM     14  C   UNL d   1     -47.233  31.439  34.412  0.00  0.00     0.062 A 
ATOM     15  C   UNL d   1     -47.857  31.535  34.944  0.00  0.00     0.103 A 
ATOM     16  C   UNL d   1     -47.124  32.025  33.844  0.00  0.00     0.005 A 
ATOM     17  O   UNL d   1     -47.993  30.965  35.525  0.00  0.00    -0.302 OA
ATOM     18  C   UNL d   1     -48.350  32.217  34.890  0.00  0.00     0.025 A 
ATOM     19  C   UNL d   1     -48.242  32.787  34.337  0.00  0.00     0.002 A 
ATOM     20  C   UNL d   1     -47.631  32.682  33.823  0.00  0.00     0.000 A 
ENDBRANCH   8  10
ENDBRANCH   2   7
BRANCH   1  21
ATOM     21  C   UNL d   1     -49.571  27.592  33.991  0.00  0.00     0.111 A 
ATOM     22  N   UNL d   1     -49.295  26.825  33.873  0.00  0.00    -0.239 NA
ATOM     23  C   UNL d   1     -49.938  26.344  33.675  0.00  0.00     0.088 A 
ATOM     24  C   UNL d   1     -50.031  25.539  33.493  0.00  0.00     0.020 A 
ATOM     25  C   UNL d   1     -50.604  26.829  33.674  0.00  0.00     0.049 A 
ATOM     26  C   UNL d   1     -50.778  25.191  33.306  0.00  0.00     0.002 A 
ATOM     27  C   UNL d   1     -51.462  25.693  33.306  0.00  0.00     0.001 A 
ATOM     28  C   UNL d   1     -51.356  26.510  33.493  0.00  0.00     0.008 A 
ATOM     29  S   UNL d   1     -50.361  27.608  33.874  0.00  0.00    -0.066 SA
ENDBRANCH   1  21
TORSDOF 3
ENDMDL
MODEL 2
REMARK VINA RESULT:      93.1      4.114      6.054
REMARK  3 active torsions:
REMARK  status: ('A' for Active; 'I' for Inactive)
REMARK    1  A    between atoms: C_14  and  C_1 
REMARK    2  A    between atoms: C_3  and  C_8 
REMARK       I    between atoms: C_8  and  N_13 
REMARK    3  A    between atoms: N_13  and  C_15 
ROOT
ATOM      1  C   UNL d   1     -51.234  26.359  36.440  0.00  0.00     0.025 A 
ATOM      2  C   UNL d   1     -51.238  27.134  35.233  0.00  0.00     0.085 A 
ATOM      3  C   UNL d   1     -51.644  26.790  35.864  0.00  0.00     0.021 A 
ATOM      4  C   UNL d   1     -50.457  26.261  36.409  0.00  0.00     0.002 A 
ATOM      5  C   UNL d   1     -50.041  26.589  35.801  0.00  0.00     0.002 A 
ATOM      6  C   UNL d   1     -50.403  27.036  35.188  0.00  0.00     0.019 A 
ENDROOT
BRANCH   2   7
ATOM      7  N   UNL d   1     -51.625  27.563  34.655  0.00  0.00    -0.206 NA
ATOM      8  C   UNL d   1     -51.740  27.215  33.904  0.00  0.00     0.302 C 
ATOM      9  O   UNL d   1     -52.145  27.671  33.309  0.00  0.00    -0.263 OA
BRANCH   8  10
ATOM     10  C   UNL d   1     -51.475  26.479  33.759  0.00  0.00     0.161 A 
ATOM     11  C   UNL d   1     -50.679  26.413  33.608  0.00  0.00     0.072 A 
ATOM     12  C   UNL d   1     -50.392  25.659  33.457  0.00  0.00     0.200 A 
ATOM     13  O   UNL d   1     -49.607  25.570  33.306  0.00  0.00    -0.286 OA
ATOM     14  C   UNL d   1     -50.886  24.999  33.457  0.00  0.00     0.062 A 
ATOM     15  C   UNL d   1     -51.693  25.082  33.611  0.00  0.00     0.103 A 
ATOM     16  C   UNL d   1     -50.603  24.241  33.306  0.00  0.00     0.005 A 
ATOM     17  O   UNL d   1     -52.008  25.828  33.767  0.00  0.00    -0.302 OA
ATOM     18  C   UNL d   1     -52.190  24.400  33.609  0.00  0.00     0.025 A 
ATOM     19  C   UNL d   1     -51.913  23.663  33.461  0.00  0.00     0.002 A 
ATOM     20  C   UNL d   1     -51.124  23.595  33.312  0.00  0.00     0.000 A 
ENDBRANCH   8  10
ENDBRANCH   2   7
BRANCH   1  21
ATOM     21  C   UNL d   1     -51.684  26.024  37.068  0.00  0.00     0.111 A 
ATOM     22  N   UNL d   1     -52.465  25.761  37.104  0.00  0.00    -0.239 NA
ATOM     23  C   UNL d   1     -52.611  25.484  37.869  0.00  0.00     0.088 A 
ATOM     24  C   UNL d   1     -53.268  25.155  38.256  0.00  0.00     0.020 A 
ATOM     25  C   UNL d   1     -51.912  25.582  38.294  0.00  0.00     0.049 A 
ATOM     26  C   UNL d   1     -53.257  24.915  39.065  0.00  0.00     0.002 A 
ATOM     27  C   UNL d   1     -52.535  25.017  39.500  0.00  0.00     0.001 A 
ATOM     28  C   UNL d   1     -51.873  25.353  39.098  0.00  0.00     0.008 A 
ATOM     29  S   UNL d   1     -51.339  25.921  37.781  0.00  0.00    -0.066 SA
ENDBRANCH   1  21
TORSDOF 3
ENDMDL
