MODEL 1
REMARK VINA RESULT:      48.5      0.000      0.000
REMARK  8 active torsions:
REMARK  status: ('A' for Active; 'I' for Inactive)
REMARK    1  A    between atoms: C_8  and  C_1 
REMARK    2  A    between atoms: C_7  and  C_2 
REMARK    3  A    between atoms: C_9  and  C_3 
REMARK    4  A    between atoms: O_14  and  C_7 
REMARK    5  A    between atoms: O_15  and  C_8 
REMARK    6  A    between atoms: C_22  and  O_14 
REMARK    7  A    between atoms: C_23  and  O_15 
REMARK    8  A    between atoms: O_21  and  C_18 
ROOT
ATOM      1  C   UNL d   1      14.425  14.940  -2.454  0.00  0.00     0.081 A 
ATOM      2  C   UNL d   1      14.562  13.973  -1.420  0.00  0.00     0.081 A 
ATOM      3  C   UNL d   1      14.327  14.170  -2.181  0.00  0.00     0.013 A 
ATOM      4  C   UNL d   1      14.759  15.513  -1.962  0.00  0.00     0.086 A 
ATOM      5  C   UNL d   1      14.896  14.545  -0.929  0.00  0.00     0.086 A 
ATOM      6  N   UNL d   1      14.994  15.313  -1.199  0.00  0.00    -0.245 NA
ATOM      7  C   UNL d   1      15.137  14.344  -0.148  0.00  0.00     0.021 C 
ATOM      8  C   UNL d   1      14.861  16.299  -2.236  0.00  0.00     0.021 C 
ENDROOT
BRANCH   3   9
ATOM      9  C   UNL d   1      13.991  13.595  -2.675  0.00  0.00     0.001 A 
ATOM     10  C   UNL d   1      13.184  13.595  -2.820  0.00  0.00     0.002 A 
ATOM     11  C   UNL d   1      12.847  13.017  -3.316  0.00  0.00     0.024 A 
ATOM     12  C   UNL d   1      13.320  12.445  -3.663  0.00  0.00     0.094 A 
ATOM     13  C   UNL d   1      14.131  12.442  -3.520  0.00  0.00     0.024 A 
ATOM     14  C   UNL d   1      14.468  13.020  -3.023  0.00  0.00     0.002 A 
BRANCH  12  15
ATOM     15  O   UNL d   1      12.994  11.871  -4.154  0.00  0.00    -0.328 OA
ATOM     16  C   UNL d   1      13.275  11.786  -4.923  0.00  0.00     0.181 C 
ENDBRANCH  12  15
ENDBRANCH   3   9
BRANCH   2  17
ATOM     17  C   UNL d   1      14.459  13.182  -1.146  0.00  0.00     0.302 C 
ATOM     18  O   UNL d   1      14.889  12.570  -1.488  0.00  0.00    -0.259 OA
BRANCH  17  19
ATOM     19  O   UNL d   1      13.923  13.027  -0.530  0.00  0.00    -0.271 OA
BRANCH  19  20
ATOM     20  C   UNL d   1      14.023  12.365  -0.049  0.00  0.00     0.126 C 
ATOM     21  C   UNL d   1      13.446  11.780  -0.023  0.00  0.00     0.029 C 
ENDBRANCH  19  20
ENDBRANCH  17  19
ENDBRANCH   2  17
BRANCH   1  22
ATOM     22  C   UNL d   1      14.183  15.137  -3.234  0.00  0.00     0.302 C 
ATOM     23  O   UNL d   1      13.367  15.175  -3.418  0.00  0.00    -0.259 OA
BRANCH  22  24
ATOM     24  O   UNL d   1      14.755  15.289  -3.807  0.00  0.00    -0.271 OA
BRANCH  24  25
ATOM     25  C   UNL d   1      14.630  15.889  -4.359  0.00  0.00     0.126 C 
ATOM     26  C   UNL d   1      15.121  15.946  -5.022  0.00  0.00     0.029 C 
ENDBRANCH  24  25
ENDBRANCH  22  24
ENDBRANCH   1  22
TORSDOF 8
ENDMDL
