MODEL 1
REMARK VINA RESULT:     -12.2      0.000      0.000
REMARK  1 active torsions:
REMARK  status: ('A' for Active; 'I' for Inactive)
REMARK    1  A    between atoms: C_2  and  N_1 
ROOT
ATOM      1  C   UNL d   1      53.640  31.605  53.627  0.00  0.00     0.153 A 
ATOM      2  C   UNL d   1      53.068  32.128  53.368  0.00  0.00     0.059 A 
ATOM      3  C   UNL d   1      52.364  31.822  52.978  0.00  0.00     0.115 A 
ATOM      4  S   UNL d   1      51.903  32.483  52.787  0.00  0.00    -0.068 SA
ATOM      5  C   UNL d   1      53.003  32.945  53.395  0.00  0.00     0.011 A 
ATOM      6  C   UNL d   1      52.291  33.165  53.040  0.00  0.00     0.031 A 
ATOM      7  N   UNL d   1      53.569  30.769  53.528  0.00  0.00    -0.206 NA
ATOM      8  N   UNL d   1      52.267  31.017  52.867  0.00  0.00    -0.217 NA
ATOM      9  C   UNL d   1      52.851  30.461  53.130  0.00  0.00     0.201 A 
ATOM     10  C   UNL d   1      53.501  33.535  53.699  0.00  0.00     0.001 A 
ATOM     11  C   UNL d   1      52.067  33.972  52.983  0.00  0.00     0.006 A 
ATOM     12  C   UNL d   1      53.299  34.366  53.656  0.00  0.00     0.000 A 
ATOM     13  C   UNL d   1      52.585  34.546  53.296  0.00  0.00     0.001 A 
ENDROOT
BRANCH   1  14
ATOM     14  N   UNL d   1      54.094  32.230  53.911  0.00  0.00    -0.273 N 
ATOM     15  C   UNL d   1      54.520  32.465  53.211  0.00  0.00     0.184 A 
ATOM     16  N   UNL d   1      55.007  33.092  53.399  0.00  0.00    -0.224 NA
ATOM     17  C   UNL d   1      54.903  33.260  54.190  0.00  0.00     0.099 A 
ATOM     18  C   UNL d   1      54.332  32.731  54.541  0.00  0.00     0.085 A 
ATOM     19  C   UNL d   1      55.246  33.828  54.672  0.00  0.00     0.021 A 
ATOM     20  C   UNL d   1      54.134  32.786  55.323  0.00  0.00     0.019 A 
ATOM     21  C   UNL d   1      54.491  33.366  55.791  0.00  0.00     0.002 A 
ATOM     22  C   UNL d   1      55.037  33.873  55.459  0.00  0.00     0.002 A 
ENDBRANCH   1  14
TORSDOF 1
ENDMDL
MODEL 2
REMARK VINA RESULT:     -10.7      1.322      2.720
REMARK  1 active torsions:
REMARK  status: ('A' for Active; 'I' for Inactive)
REMARK    1  A    between atoms: C_2  and  N_1 
ROOT
ATOM      1  C   UNL d   1      52.717  32.099  53.154  0.00  0.00     0.153 A 
ATOM      2  C   UNL d   1      53.126  32.531  53.714  0.00  0.00     0.059 A 
ATOM      3  C   UNL d   1      53.722  32.136  54.195  0.00  0.00     0.115 A 
ATOM      4  S   UNL d   1      54.029  32.716  54.700  0.00  0.00    -0.068 SA
ATOM      5  C   UNL d   1      53.100  33.317  53.945  0.00  0.00     0.011 A 
ATOM      6  C   UNL d   1      53.651  33.433  54.548  0.00  0.00     0.031 A 
ATOM      7  N   UNL d   1      52.854  31.276  53.024  0.00  0.00    -0.206 NA
ATOM      8  N   UNL d   1      53.877  31.339  54.093  0.00  0.00    -0.217 NA
ATOM      9  C   UNL d   1      53.462  30.878  53.516  0.00  0.00     0.201 A 
ATOM     10  C   UNL d   1      52.643  33.959  53.687  0.00  0.00     0.001 A 
ATOM     11  C   UNL d   1      53.753  34.188  54.900  0.00  0.00     0.006 A 
ATOM     12  C   UNL d   1      52.725  34.741  54.028  0.00  0.00     0.000 A 
ATOM     13  C   UNL d   1      53.282  34.819  54.624  0.00  0.00     0.001 A 
ENDROOT
BRANCH   1  14
ATOM     14  N   UNL d   1      52.292  32.770  52.937  0.00  0.00    -0.273 N 
ATOM     15  C   UNL d   1      52.833  33.151  52.401  0.00  0.00     0.184 A 
ATOM     16  N   UNL d   1      52.490  33.840  52.128  0.00  0.00    -0.224 NA
ATOM     17  C   UNL d   1      51.755  33.906  52.473  0.00  0.00     0.099 A 
ATOM     18  C   UNL d   1      51.601  33.244  52.990  0.00  0.00     0.085 A 
ATOM     19  C   UNL d   1      51.172  34.480  52.402  0.00  0.00     0.021 A 
ATOM     20  C   UNL d   1      50.905  33.181  53.397  0.00  0.00     0.019 A 
ATOM     21  C   UNL d   1      50.331  33.771  53.312  0.00  0.00     0.002 A 
ATOM     22  C   UNL d   1      50.475  34.404  52.819  0.00  0.00     0.002 A 
ENDBRANCH   1  14
TORSDOF 1
ENDMDL
MODEL 3
REMARK VINA RESULT:     -10.5      1.087      2.639
REMARK  1 active torsions:
REMARK  status: ('A' for Active; 'I' for Inactive)
REMARK    1  A    between atoms: C_2  and  N_1 
ROOT
ATOM      1  C   UNL d   1      54.359  32.977  54.629  0.00  0.00     0.153 A 
ATOM      2  C   UNL d   1      53.710  33.420  54.403  0.00  0.00     0.059 A 
ATOM      3  C   UNL d   1      53.600  34.205  54.740  0.00  0.00     0.115 A 
ATOM      4  S   UNL d   1      52.904  34.502  54.402  0.00  0.00    -0.068 SA
ATOM      5  C   UNL d   1      53.089  33.280  53.887  0.00  0.00     0.011 A 
ATOM      6  C   UNL d   1      52.594  33.940  53.885  0.00  0.00     0.031 A 
ATOM      7  N   UNL d   1      54.930  33.259  55.185  0.00  0.00    -0.206 NA
ATOM      8  N   UNL d   1      54.137  34.505  55.280  0.00  0.00    -0.217 NA
ATOM      9  C   UNL d   1      54.814  34.059  55.525  0.00  0.00     0.201 A 
ATOM     10  C   UNL d   1      52.897  32.631  53.408  0.00  0.00     0.001 A 
ATOM     11  C   UNL d   1      51.905  33.962  53.406  0.00  0.00     0.006 A 
ATOM     12  C   UNL d   1      52.201  32.625  52.909  0.00  0.00     0.000 A 
ATOM     13  C   UNL d   1      51.734  33.297  52.932  0.00  0.00     0.001 A 
ENDROOT
BRANCH   1  14
ATOM     14  N   UNL d   1      54.121  32.363  54.136  0.00  0.00    -0.273 N 
ATOM     15  C   UNL d   1      54.422  32.623  53.382  0.00  0.00     0.184 A 
ATOM     16  N   UNL d   1      54.231  32.065  52.817  0.00  0.00    -0.224 NA
ATOM     17  C   UNL d   1      53.822  31.465  53.188  0.00  0.00     0.099 A 
ATOM     18  C   UNL d   1      53.737  31.626  54.023  0.00  0.00     0.085 A 
ATOM     19  C   UNL d   1      53.498  30.770  52.897  0.00  0.00     0.021 A 
ATOM     20  C   UNL d   1      53.350  31.111  54.512  0.00  0.00     0.019 A 
ATOM     21  C   UNL d   1      53.031  30.416  54.198  0.00  0.00     0.002 A 
ATOM     22  C   UNL d   1      53.110  30.260  53.402  0.00  0.00     0.002 A 
ENDBRANCH   1  14
TORSDOF 1
ENDMDL
MODEL 4
REMARK VINA RESULT:     -10.4      1.472      3.233
REMARK  1 active torsions:
REMARK  status: ('A' for Active; 'I' for Inactive)
REMARK    1  A    between atoms: C_2  and  N_1 
ROOT
ATOM      1  C   UNL d   1      53.282  34.169  54.405  0.00  0.00     0.153 A 
ATOM      2  C   UNL d   1      53.436  33.378  54.268  0.00  0.00     0.059 A 
ATOM      3  C   UNL d   1      54.013  32.972  54.762  0.00  0.00     0.115 A 
ATOM      4  S   UNL d   1      54.040  32.192  54.486  0.00  0.00    -0.068 SA
ATOM      5  C   UNL d   1      53.146  32.837  53.725  0.00  0.00     0.011 A 
ATOM      6  C   UNL d   1      53.514  32.110  53.856  0.00  0.00     0.031 A 
ATOM      7  N   UNL d   1      53.667  34.609  55.015  0.00  0.00    -0.206 NA
ATOM      8  N   UNL d   1      54.402  33.371  55.362  0.00  0.00    -0.217 NA
ATOM      9  C   UNL d   1      54.254  34.190  55.516  0.00  0.00     0.201 A 
ATOM     10  C   UNL d   1      52.587  32.902  53.117  0.00  0.00     0.001 A 
ATOM     11  C   UNL d   1      53.330  31.441  53.384  0.00  0.00     0.006 A 
ATOM     12  C   UNL d   1      52.379  32.237  52.618  0.00  0.00     0.000 A 
ATOM     13  C   UNL d   1      52.764  31.532  52.777  0.00  0.00     0.001 A 
ENDROOT
BRANCH   1  14
ATOM     14  N   UNL d   1      52.736  34.177  53.789  0.00  0.00    -0.273 N 
ATOM     15  C   UNL d   1      53.239  34.327  53.117  0.00  0.00     0.184 A 
ATOM     16  N   UNL d   1      52.776  34.353  52.445  0.00  0.00    -0.224 NA
ATOM     17  C   UNL d   1      52.003  34.225  52.670  0.00  0.00     0.099 A 
ATOM     18  C   UNL d   1      51.946  34.111  53.514  0.00  0.00     0.085 A 
ATOM     19  C   UNL d   1      51.309  34.192  52.232  0.00  0.00     0.021 A 
ATOM     20  C   UNL d   1      51.235  33.974  53.873  0.00  0.00     0.019 A 
ATOM     21  C   UNL d   1      50.548  33.945  53.413  0.00  0.00     0.002 A 
ATOM     22  C   UNL d   1      50.598  34.054  52.606  0.00  0.00     0.002 A 
ENDBRANCH   1  14
TORSDOF 1
ENDMDL
MODEL 5
REMARK VINA RESULT:     -10.0      1.328      2.826
REMARK  1 active torsions:
REMARK  status: ('A' for Active; 'I' for Inactive)
REMARK    1  A    between atoms: C_2  and  N_1 
ROOT
ATOM      1  C   UNL d   1      52.281  33.193  52.852  0.00  0.00     0.153 A 
ATOM      2  C   UNL d   1      52.628  33.514  53.519  0.00  0.00     0.059 A 
ATOM      3  C   UNL d   1      52.410  34.310  53.763  0.00  0.00     0.115 A 
ATOM      4  S   UNL d   1      52.853  34.468  54.445  0.00  0.00    -0.068 SA
ATOM      5  C   UNL d   1      53.182  33.230  54.053  0.00  0.00     0.011 A 
ATOM      6  C   UNL d   1      53.321  33.813  54.621  0.00  0.00     0.031 A 
ATOM      7  N   UNL d   1      51.713  33.612  52.389  0.00  0.00    -0.206 NA
ATOM      8  N   UNL d   1      51.863  34.742  53.335  0.00  0.00    -0.217 NA
ATOM      9  C   UNL d   1      51.494  34.423  52.641  0.00  0.00     0.201 A 
ATOM     10  C   UNL d   1      53.589  32.510  54.106  0.00  0.00     0.001 A 
ATOM     11  C   UNL d   1      53.866  33.684  55.247  0.00  0.00     0.006 A 
ATOM     12  C   UNL d   1      54.150  32.351  54.733  0.00  0.00     0.000 A 
ATOM     13  C   UNL d   1      54.263  32.951  55.279  0.00  0.00     0.001 A 
ENDROOT
BRANCH   1  14
ATOM     14  N   UNL d   1      52.712  32.498  52.953  0.00  0.00    -0.273 N 
ATOM     15  C   UNL d   1      53.479  32.729  52.664  0.00  0.00     0.184 A 
ATOM     16  N   UNL d   1      53.985  32.090  52.725  0.00  0.00    -0.224 NA
ATOM     17  C   UNL d   1      53.563  31.469  53.042  0.00  0.00     0.099 A 
ATOM     18  C   UNL d   1      52.755  31.696  53.196  0.00  0.00     0.085 A 
ATOM     19  C   UNL d   1      53.786  30.700  53.224  0.00  0.00     0.021 A 
ATOM     20  C   UNL d   1      52.224  31.174  53.512  0.00  0.00     0.019 A 
ATOM     21  C   UNL d   1      52.470  30.404  53.688  0.00  0.00     0.002 A 
ATOM     22  C   UNL d   1      53.241  30.184  53.542  0.00  0.00     0.002 A 
ENDBRANCH   1  14
TORSDOF 1
ENDMDL
MODEL 6
REMARK VINA RESULT:      -9.9      1.169      2.106
REMARK  1 active torsions:
REMARK  status: ('A' for Active; 'I' for Inactive)
REMARK    1  A    between atoms: C_2  and  N_1 
ROOT
ATOM      1  C   UNL d   1      52.400  33.983  53.437  0.00  0.00     0.153 A 
ATOM      2  C   UNL d   1      52.282  33.190  53.283  0.00  0.00     0.059 A 
ATOM      3  C   UNL d   1      51.528  32.934  52.955  0.00  0.00     0.115 A 
ATOM      4  S   UNL d   1      51.586  32.112  52.866  0.00  0.00    -0.068 SA
ATOM      5  C   UNL d   1      52.753  32.525  53.377  0.00  0.00     0.011 A 
ATOM      6  C   UNL d   1      52.330  31.864  53.122  0.00  0.00     0.031 A 
ATOM      7  N   UNL d   1      51.809  34.569  53.286  0.00  0.00    -0.206 NA
ATOM      8  N   UNL d   1      50.937  33.477  52.798  0.00  0.00    -0.217 NA
ATOM      9  C   UNL d   1      51.043  34.303  52.951  0.00  0.00     0.201 A 
ATOM     10  C   UNL d   1      53.524  32.424  53.664  0.00  0.00     0.001 A 
ATOM     11  C   UNL d   1      52.669  31.097  53.150  0.00  0.00     0.006 A 
ATOM     12  C   UNL d   1      53.896  31.653  53.705  0.00  0.00     0.000 A 
ATOM     13  C   UNL d   1      53.446  31.021  53.443  0.00  0.00     0.001 A 
ENDROOT
BRANCH   1  14
ATOM     14  N   UNL d   1      53.159  33.826  53.712  0.00  0.00    -0.273 N 
ATOM     15  C   UNL d   1      53.600  33.781  52.984  0.00  0.00     0.184 A 
ATOM     16  N   UNL d   1      54.381  33.625  53.160  0.00  0.00    -0.224 NA
ATOM     17  C   UNL d   1      54.448  33.569  53.971  0.00  0.00     0.099 A 
ATOM     18  C   UNL d   1      53.692  33.691  54.347  0.00  0.00     0.085 A 
ATOM     19  C   UNL d   1      55.096  33.421  54.452  0.00  0.00     0.021 A 
ATOM     20  C   UNL d   1      53.613  33.663  55.151  0.00  0.00     0.019 A 
ATOM     21  C   UNL d   1      54.279  33.513  55.618  0.00  0.00     0.002 A 
ATOM     22  C   UNL d   1      55.003  33.395  55.262  0.00  0.00     0.002 A 
ENDBRANCH   1  14
TORSDOF 1
ENDMDL
