MODEL 1
REMARK VINA RESULT:      55.2      0.000      0.000
REMARK  7 active torsions:
REMARK  status: ('A' for Active; 'I' for Inactive)
REMARK    1  A    between atoms: C_11  and  C_4 
REMARK    2  A    between atoms: N_12  and  C_5 
REMARK    3  A    between atoms: C_10  and  C_8 
REMARK    4  A    between atoms: C_15  and  N_12 
REMARK    5  A    between atoms: N_13  and  C_19 
REMARK    6  A    between atoms: C_14  and  C_15 
REMARK    7  A    between atoms: C_19  and  C_14 
ROOT
ATOM      1  C   UNL d   1      44.400 -16.243  38.016  0.00  0.00     0.168 A 
ATOM      2  N   UNL d   1      44.870 -16.698  38.540  0.00  0.00    -0.184 N 
ATOM      3  N   UNL d   1      44.751 -15.677  37.544  0.00  0.00    -0.231 NA
ATOM      4  C   UNL d   1      43.601 -16.363  37.979  0.00  0.00     0.057 A 
ATOM      5  C   UNL d   1      45.664 -16.562  38.561  0.00  0.00     0.217 A 
ATOM      6  N   UNL d   1      43.720 -17.373  38.964  0.00  0.00    -0.160 NA
ATOM      7  C   UNL d   1      46.027 -15.997  38.091  0.00  0.00     0.067 A 
ATOM      8  C   UNL d   1      45.565 -15.548  37.576  0.00  0.00     0.064 A 
ATOM      9  C   UNL d   1      43.257 -16.924  38.449  0.00  0.00     0.124 A 
ENDROOT
BRANCH   5  10
ATOM     10  N   UNL d   1      46.142 -17.025  39.093  0.00  0.00    -0.380 NA
BRANCH  10  11
ATOM     11  C   UNL d   1      46.646 -17.421  39.643  0.00  0.00     0.164 C 
BRANCH  11  12
ATOM     12  C   UNL d   1      46.313 -18.031  40.135  0.00  0.00     0.054 C 
BRANCH  12  13
ATOM     13  C   UNL d   1      46.477 -18.026  40.977  0.00  0.00     0.083 C 
BRANCH  13  14
ATOM     14  N   UNL d   1      46.458 -18.752  41.412  0.00  0.00    -0.300 N 
ATOM     15  C   UNL d   1      46.463 -18.337  42.152  0.00  0.00     0.100 C 
ATOM     16  C   UNL d   1      46.437 -19.607  41.417  0.00  0.00     0.100 C 
ENDBRANCH  13  14
ENDBRANCH  12  13
ENDBRANCH  11  12
ENDBRANCH  10  11
ENDBRANCH   5  10
BRANCH   8  17
ATOM     17  C   UNL d   1      45.928 -14.956  37.081  0.00  0.00     0.036 C 
ATOM     18  C   UNL d   1      46.290 -14.370  36.595  0.00  0.00     0.006 C 
ATOM     19  C   UNL d   1      45.572 -14.755  36.334  0.00  0.00     0.006 C 
ATOM     20  C   UNL d   1      46.645 -14.568  37.337  0.00  0.00     0.006 C 
ENDBRANCH   8  17
BRANCH   4  21
ATOM     21  C   UNL d   1      43.139 -15.914  37.464  0.00  0.00     0.004 A 
ATOM     22  C   UNL d   1      43.071 -15.123  37.584  0.00  0.00     0.000 A 
ATOM     23  C   UNL d   1      42.608 -14.675  37.069  0.00  0.00     0.000 A 
ATOM     24  C   UNL d   1      42.229 -15.031  36.449  0.00  0.00     0.000 A 
ATOM     25  C   UNL d   1      42.302 -15.835  36.333  0.00  0.00     0.000 A 
ATOM     26  C   UNL d   1      42.765 -16.284  36.848  0.00  0.00     0.000 A 
ENDBRANCH   4  21
TORSDOF 7
ENDMDL
