MODEL 1
REMARK VINA RESULT:      17.4      0.000      0.000
REMARK  2 active torsions:
REMARK  status: ('A' for Active; 'I' for Inactive)
REMARK    1  A    between atoms: C_2  and  S_1 
REMARK    2  A    between atoms: C_7  and  C_3 
ROOT
ATOM      1  C   UNL d   1     -58.744 -98.814 -44.202  0.00  0.00     0.117 A 
ATOM      2  C   UNL d   1     -57.388 -98.813 -44.670  0.00  0.00     0.076 A 
ATOM      3  C   UNL d   1     -57.934 -98.833 -44.049  0.00  0.00     0.021 A 
ATOM      4  C   UNL d   1     -59.017 -98.775 -44.978  0.00  0.00     0.071 A 
ATOM      5  C   UNL d   1     -57.660 -98.775 -45.447  0.00  0.00     0.065 A 
ATOM      6  C   UNL d   1     -58.479 -98.756 -45.601  0.00  0.00     0.024 A 
ATOM      7 CL   UNL d   1     -57.122 -98.755 -46.069  0.00  0.00    -0.082 Cl
ATOM      8 CL   UNL d   1     -59.827 -98.756 -45.131  0.00  0.00    -0.082 Cl
ENDROOT
BRANCH   1   9
ATOM      9  S   UNL d   1     -59.284 -98.834 -43.575  0.00  0.00     0.303 S 
ATOM     10  O   UNL d   1     -58.671 -98.756 -43.038  0.00  0.00    -0.197 OA
ATOM     11  O   UNL d   1     -59.916 -98.912 -44.115  0.00  0.00    -0.197 OA
ATOM     12  N   UNL d   1     -59.830 -98.854 -42.955  0.00  0.00    -0.043 N 
ENDBRANCH   1   9
BRANCH   2  13
ATOM     13  C   UNL d   1     -56.578 -98.833 -44.513  0.00  0.00     0.212 C 
ATOM     14  O   UNL d   1     -56.035 -98.818 -45.130  0.00  0.00    -0.644 OA
ATOM     15  O   UNL d   1     -56.314 -98.867 -43.730  0.00  0.00    -0.644 OA
ENDBRANCH   2  13
TORSDOF 2
ENDMDL
MODEL 2
REMARK VINA RESULT:      18.6      7.400      7.974
REMARK  2 active torsions:
REMARK  status: ('A' for Active; 'I' for Inactive)
REMARK    1  A    between atoms: C_2  and  S_1 
REMARK    2  A    between atoms: C_7  and  C_3 
ROOT
ATOM      1  C   UNL d   1     -55.548-102.439 -38.968  0.00  0.00     0.117 A 
ATOM      2  C   UNL d   1     -55.401-102.418 -37.540  0.00  0.00     0.076 A 
ATOM      3  C   UNL d   1     -55.093-102.287 -38.297  0.00  0.00     0.021 A 
ATOM      4  C   UNL d   1     -56.316-102.723 -38.890  0.00  0.00     0.071 A 
ATOM      5  C   UNL d   1     -56.171-102.702 -37.462  0.00  0.00     0.065 A 
ATOM      6  C   UNL d   1     -56.630-102.855 -38.140  0.00  0.00     0.024 A 
ATOM      7 CL   UNL d   1     -56.484-102.834 -36.713  0.00  0.00    -0.082 Cl
ATOM      8 CL   UNL d   1     -56.771-102.874 -39.561  0.00  0.00    -0.082 Cl
ENDROOT
BRANCH   1   9
ATOM      9  S   UNL d   1     -55.231-102.305 -39.720  0.00  0.00     0.303 S 
ATOM     10  O   UNL d   1     -55.735-102.866 -40.038  0.00  0.00    -0.197 OA
ATOM     11  O   UNL d   1     -54.712-101.731 -39.406  0.00  0.00    -0.197 OA
ATOM     12  N   UNL d   1     -54.908-102.165 -40.468  0.00  0.00    -0.043 N 
ENDBRANCH   1   9
BRANCH   2  13
ATOM     13  C   UNL d   1     -54.943-102.265 -36.871  0.00  0.00     0.212 C 
ATOM     14  O   UNL d   1     -54.718-102.879 -36.373  0.00  0.00    -0.644 OA
ATOM     15  O   UNL d   1     -54.711-101.489 -36.704  0.00  0.00    -0.644 OA
ENDBRANCH   2  13
TORSDOF 2
ENDMDL
MODEL 3
REMARK VINA RESULT:      18.9      1.452      1.712
REMARK  2 active torsions:
REMARK  status: ('A' for Active; 'I' for Inactive)
REMARK    1  A    between atoms: C_2  and  S_1 
REMARK    2  A    between atoms: C_7  and  C_3 
ROOT
ATOM      1  C   UNL d   1     -58.441 -98.767 -44.845  0.00  0.00     0.117 A 
ATOM      2  C   UNL d   1     -57.033 -98.778 -44.570  0.00  0.00     0.076 A 
ATOM      3  C   UNL d   1     -57.660 -98.774 -45.109  0.00  0.00     0.021 A 
ATOM      4  C   UNL d   1     -58.604 -98.763 -44.038  0.00  0.00     0.071 A 
ATOM      5  C   UNL d   1     -57.196 -98.774 -43.762  0.00  0.00     0.065 A 
ATOM      6  C   UNL d   1     -57.985 -98.767 -43.495  0.00  0.00     0.024 A 
ATOM      7 CL   UNL d   1     -56.576 -98.778 -43.220  0.00  0.00    -0.082 Cl
ATOM      8 CL   UNL d   1     -59.385 -98.755 -43.774  0.00  0.00    -0.082 Cl
ENDROOT
BRANCH   1   9
ATOM      9  S   UNL d   1     -59.062 -98.763 -45.392  0.00  0.00     0.303 S 
ATOM     10  O   UNL d   1     -58.525 -98.756 -46.009  0.00  0.00    -0.197 OA
ATOM     11  O   UNL d   1     -59.618 -98.770 -44.768  0.00  0.00    -0.197 OA
ATOM     12  N   UNL d   1     -59.689 -98.759 -45.930  0.00  0.00    -0.043 N 
ENDBRANCH   1   9
BRANCH   2  13
ATOM     13  C   UNL d   1     -56.253 -98.786 -44.838  0.00  0.00     0.212 C 
ATOM     14  O   UNL d   1     -56.091 -98.805 -45.644  0.00  0.00    -0.644 OA
ATOM     15  O   UNL d   1     -55.633 -98.774 -44.291  0.00  0.00    -0.644 OA
ENDBRANCH   2  13
TORSDOF 2
ENDMDL
MODEL 4
REMARK VINA RESULT:      19.9      1.446      2.667
REMARK  2 active torsions:
REMARK  status: ('A' for Active; 'I' for Inactive)
REMARK    1  A    between atoms: C_2  and  S_1 
REMARK    2  A    between atoms: C_7  and  C_3 
ROOT
ATOM      1  C   UNL d   1     -57.033 -98.814 -44.344  0.00  0.00     0.117 A 
ATOM      2  C   UNL d   1     -58.458 -98.814 -44.170  0.00  0.00     0.076 A 
ATOM      3  C   UNL d   1     -57.695 -98.833 -43.851  0.00  0.00     0.021 A 
ATOM      4  C   UNL d   1     -57.127 -98.776 -45.160  0.00  0.00     0.071 A 
ATOM      5  C   UNL d   1     -58.552 -98.775 -44.988  0.00  0.00     0.065 A 
ATOM      6  C   UNL d   1     -57.884 -98.756 -45.485  0.00  0.00     0.024 A 
ATOM      7 CL   UNL d   1     -59.309 -98.755 -45.312  0.00  0.00    -0.082 Cl
ATOM      8 CL   UNL d   1     -56.466 -98.757 -45.652  0.00  0.00    -0.082 Cl
ENDROOT
BRANCH   1   9
ATOM      9  S   UNL d   1     -56.274 -98.834 -44.016  0.00  0.00     0.303 S 
ATOM     10  O   UNL d   1     -56.592 -98.780 -43.263  0.00  0.00    -0.197 OA
ATOM     11  O   UNL d   1     -55.940 -98.890 -44.779  0.00  0.00    -0.197 OA
ATOM     12  N   UNL d   1     -55.511 -98.855 -43.697  0.00  0.00    -0.043 N 
ENDBRANCH   1   9
BRANCH   2  13
ATOM     13  C   UNL d   1     -59.117 -98.833 -43.675  0.00  0.00     0.212 C 
ATOM     14  O   UNL d   1     -59.871 -98.927 -43.990  0.00  0.00    -0.644 OA
ATOM     15  O   UNL d   1     -59.016 -98.757 -42.858  0.00  0.00    -0.644 OA
ENDBRANCH   2  13
TORSDOF 2
ENDMDL
