MODEL 1
REMARK VINA RESULT:      10.8      0.000      0.000
REMARK  2 active torsions:
REMARK  status: ('A' for Active; 'I' for Inactive)
REMARK    1  A    between atoms: CA_2  and  C_1 
REMARK    2  A    between atoms: C_3  and  CA_2 
ROOT
ATOM      1  C   UNL d   1      57.465  49.691  50.164  0.00  0.00     0.053 A 
ATOM      2  C   UNL d   1      56.715  49.690  50.521  0.00  0.00     0.142 A 
ATOM      3  F   UNL d   1      56.652  49.694  51.343  0.00  0.00    -0.204 F 
ATOM      4  C   UNL d   1      57.529  49.688  49.333  0.00  0.00     0.004 A 
ATOM      5  C   UNL d   1      56.037  49.686  50.046  0.00  0.00     0.030 A 
ATOM      6  C   UNL d   1      56.842  49.684  48.866  0.00  0.00     0.000 A 
ATOM      7  C   UNL d   1      56.100  49.683  49.224  0.00  0.00     0.002 A 
ENDROOT
BRANCH   1   8
ATOM      8  CA  UNL d   1      58.143  49.695  50.630  0.00  0.00     0.169 C 
ATOM      9  N   UNL d   1      58.082  49.701  51.453  0.00  0.00    -0.142 N 
BRANCH   8  10
ATOM     10  C   UNL d   1      58.885  49.692  50.269  0.00  0.00     0.231 C 
ATOM     11  O   UNL d   1      58.952  49.693  49.449  0.00  0.00    -0.643 OA
ATOM     12  OXT UNL d   1      59.568  49.689  50.735  0.00  0.00    -0.643 OA
ENDBRANCH   8  10
ENDBRANCH   1   8
TORSDOF 2
ENDMDL
