MODEL 1
REMARK VINA RESULT:      55.8      0.000      0.000
REMARK  4 active torsions:
REMARK  status: ('A' for Active; 'I' for Inactive)
REMARK    1  A    between atoms: S_6  and  C_1 
REMARK    2  A    between atoms: C_14  and  N_2 
REMARK    3  A    between atoms: C_7  and  S_6 
REMARK    4  A    between atoms: O_18  and  C_16 
ROOT
ATOM      1  C   UNL d   1     -56.344 -98.899 -44.637  0.00  0.00     0.114 A 
ATOM      2  N   UNL d   1     -56.750 -98.911 -43.919  0.00  0.00    -0.239 NA
ATOM      3  C   UNL d   1     -57.568 -98.872 -43.930  0.00  0.00     0.084 A 
ATOM      4  C   UNL d   1     -57.971 -98.823 -44.630  0.00  0.00     0.018 A 
ATOM      5  C   UNL d   1     -57.571 -98.811 -45.345  0.00  0.00     0.004 A 
ATOM      6  C   UNL d   1     -57.978 -98.884 -43.209  0.00  0.00     0.043 A 
ATOM      7  C   UNL d   1     -56.747 -98.850 -45.337  0.00  0.00     0.026 A 
ATOM      8  C   UNL d   1     -58.800 -98.783 -44.636  0.00  0.00     0.004 A 
ATOM      9  C   UNL d   1     -58.798 -98.845 -43.220  0.00  0.00     0.096 A 
ATOM     10  C   UNL d   1     -59.201 -98.796 -43.920  0.00  0.00     0.024 A 
ATOM     11  C   UNL d   1     -57.979 -98.761 -46.054  0.00  0.00     0.000 C 
ENDROOT
BRANCH   1  12
ATOM     12  S   UNL d   1     -55.501 -98.934 -44.747  0.00  0.00    -0.028 SA
BRANCH  12  13
ATOM     13  C   UNL d   1     -55.389 -99.259 -43.940  0.00  0.00     0.220 A 
ATOM     14  N   UNL d   1     -55.185-100.055 -43.730  0.00  0.00    -0.186 N 
ATOM     15  N   UNL d   1     -55.146-100.082 -42.911  0.00  0.00    -0.038 NA
ATOM     16  N   UNL d   1     -55.323 -99.310 -42.596  0.00  0.00    -0.022 NA
ATOM     17  N   UNL d   1     -55.470 -98.817 -43.243  0.00  0.00    -0.101 NA
BRANCH  14  18
ATOM     18  C   UNL d   1     -55.050-100.689 -44.260  0.00  0.00     0.087 A 
ATOM     19  C   UNL d   1     -55.052-100.522 -45.089  0.00  0.00     0.019 A 
ATOM     20  C   UNL d   1     -54.915-101.157 -45.662  0.00  0.00     0.002 A 
ATOM     21  C   UNL d   1     -54.783-101.932 -45.374  0.00  0.00     0.000 A 
ATOM     22  C   UNL d   1     -54.779-102.111 -44.526  0.00  0.00     0.002 A 
ATOM     23  C   UNL d   1     -54.918-101.456 -44.000  0.00  0.00     0.019 A 
ENDBRANCH  14  18
ENDBRANCH  12  13
ENDBRANCH   1  12
BRANCH   9  24
ATOM     24  O   UNL d   1     -59.198 -98.857 -42.505  0.00  0.00    -0.328 OA
ATOM     25  C   UNL d   1     -59.155 -99.509 -42.024  0.00  0.00     0.181 C 
ENDBRANCH   9  24
TORSDOF 4
ENDMDL
MODEL 2
REMARK VINA RESULT:      56.8      1.478      3.753
REMARK  4 active torsions:
REMARK  status: ('A' for Active; 'I' for Inactive)
REMARK    1  A    between atoms: S_6  and  C_1 
REMARK    2  A    between atoms: C_14  and  N_2 
REMARK    3  A    between atoms: C_7  and  S_6 
REMARK    4  A    between atoms: O_18  and  C_16 
ROOT
ATOM      1  C   UNL d   1     -55.933 -99.551 -44.666  0.00  0.00     0.114 A 
ATOM      2  N   UNL d   1     -55.782 -99.800 -43.894  0.00  0.00    -0.239 NA
ATOM      3  C   UNL d   1     -55.427-100.530 -43.780  0.00  0.00     0.084 A 
ATOM      4  C   UNL d   1     -55.229-100.997 -44.410  0.00  0.00     0.018 A 
ATOM      5  C   UNL d   1     -55.378-100.752 -45.178  0.00  0.00     0.004 A 
ATOM      6  C   UNL d   1     -55.273-100.783 -43.006  0.00  0.00     0.043 A 
ATOM      7  C   UNL d   1     -55.735-100.018 -45.296  0.00  0.00     0.026 A 
ATOM      8  C   UNL d   1     -54.870-101.735 -44.290  0.00  0.00     0.004 A 
ATOM      9  C   UNL d   1     -54.918-101.514 -42.891  0.00  0.00     0.096 A 
ATOM     10  C   UNL d   1     -54.720-101.981 -43.521  0.00  0.00     0.024 A 
ATOM     11  C   UNL d   1     -55.178-101.225 -45.816  0.00  0.00     0.000 C 
ENDROOT
BRANCH   1  12
ATOM     12  S   UNL d   1     -56.295 -98.818 -44.903  0.00  0.00    -0.028 SA
BRANCH  12  13
ATOM     13  C   UNL d   1     -56.855 -98.853 -44.229  0.00  0.00     0.220 A 
ATOM     14  N   UNL d   1     -57.702 -98.855 -44.265  0.00  0.00    -0.186 N 
ATOM     15  N   UNL d   1     -57.973 -98.894 -43.491  0.00  0.00    -0.038 NA
ATOM     16  N   UNL d   1     -57.305 -98.916 -42.961  0.00  0.00    -0.022 NA
ATOM     17  N   UNL d   1     -56.627 -98.889 -43.433  0.00  0.00    -0.101 NA
BRANCH  14  18
ATOM     18  C   UNL d   1     -58.169 -98.825 -44.959  0.00  0.00     0.087 A 
ATOM     19  C   UNL d   1     -59.010 -98.788 -44.872  0.00  0.00     0.019 A 
ATOM     20  C   UNL d   1     -59.520 -98.755 -45.572  0.00  0.00     0.002 A 
ATOM     21  C   UNL d   1     -59.159 -98.761 -46.327  0.00  0.00     0.000 A 
ATOM     22  C   UNL d   1     -58.300 -98.799 -46.424  0.00  0.00     0.002 A 
ATOM     23  C   UNL d   1     -57.838 -98.829 -45.710  0.00  0.00     0.019 A 
ENDBRANCH  14  18
ENDBRANCH  12  13
ENDBRANCH   1  12
BRANCH   9  24
ATOM     24  O   UNL d   1     -54.769-101.759 -42.123  0.00  0.00    -0.328 OA
ATOM     25  C   UNL d   1     -54.841-102.542 -41.923  0.00  0.00     0.181 C 
ENDBRANCH   9  24
TORSDOF 4
ENDMDL
