MODEL 1
REMARK VINA RESULT:      -0.1      0.000      0.000
REMARK  9 active torsions:
REMARK  status: ('A' for Active; 'I' for Inactive)
REMARK    1  A    between atoms: C_8  and  N_1 
REMARK    2  A    between atoms: C_6  and  C_2 
REMARK    3  A    between atoms: O_12  and  C_11 
REMARK    4  A    between atoms: C_18  and  O_12 
REMARK    5  A    between atoms: C_14  and  C_18 
REMARK    6  A    between atoms: C_16  and  C_14 
REMARK    7  A    between atoms: N_15  and  C_16 
REMARK    8  A    between atoms: C_23  and  N_15 
REMARK    9  A    between atoms: C_24  and  N_15 
ROOT
ATOM      1  N   UNL d   1      32.861  21.215 -21.992  0.00  0.00    -0.306 N 
ATOM      2  C   UNL d   1      33.058  19.911 -21.526  0.00  0.00     0.057 A 
ATOM      3  C   UNL d   1      32.982  20.746 -21.267  0.00  0.00     0.067 A 
ATOM      4  C   UNL d   1      32.865  20.671 -22.664  0.00  0.00     0.064 A 
ATOM      5  C   UNL d   1      32.981  19.902 -22.390  0.00  0.00     0.023 A 
ATOM      6  C   UNL d   1      32.777  20.805 -23.455  0.00  0.00     0.020 A 
ATOM      7  C   UNL d   1      33.008  19.285 -22.912  0.00  0.00     0.026 A 
ATOM      8  C   UNL d   1      32.919  19.423 -23.706  0.00  0.00     0.100 A 
ATOM      9  C   UNL d   1      33.019  21.026 -20.500  0.00  0.00     0.019 C 
ATOM     10  C   UNL d   1      32.803  20.192 -23.980  0.00  0.00     0.026 A 
ENDROOT
BRANCH   8  11
ATOM     11  O   UNL d   1      32.943  18.785 -24.284  0.00  0.00    -0.302 OA
BRANCH  11  12
ATOM     12  C   UNL d   1      32.626  18.059 -24.130  0.00  0.00     0.166 C 
BRANCH  12  13
ATOM     13  C   UNL d   1      32.499  17.476 -24.754  0.00  0.00     0.238 C 
ATOM     14  O   UNL d   1      33.190  17.010 -25.028  0.00  0.00    -0.283 OA
BRANCH  13  15
ATOM     15  C   UNL d   1      31.771  17.352 -25.083  0.00  0.00     0.125 C 
BRANCH  15  16
ATOM     16  N   UNL d   1      31.217  16.781 -24.758  0.00  0.00    -0.300 N 
BRANCH  16  17
ATOM     17  C   UNL d   1      31.290  15.990 -24.451  0.00  0.00     0.080 C 
ATOM     18  C   UNL d   1      30.615  15.592 -24.682  0.00  0.00     0.021 C 
ENDBRANCH  16  17
BRANCH  16  19
ATOM     19  C   UNL d   1      30.423  16.942 -24.688  0.00  0.00     0.080 C 
ATOM     20  C   UNL d   1      30.087  17.273 -23.970  0.00  0.00     0.021 C 
ENDBRANCH  16  19
ENDBRANCH  15  16
ENDBRANCH  13  15
ENDBRANCH  12  13
ENDBRANCH  11  12
ENDBRANCH   8  11
BRANCH   2  21
ATOM     21  C   UNL d   1      33.179  19.303 -20.998  0.00  0.00     0.197 C 
ATOM     22  O   UNL d   1      33.241  19.364 -20.112  0.00  0.00    -0.286 OA
ATOM     23  C   UNL d   1      33.241  18.586 -21.385  0.00  0.00     0.045 C 
ENDBRANCH   2  21
BRANCH   1  24
ATOM     24  C   UNL d   1      32.767  22.020 -21.969  0.00  0.00     0.064 A 
ATOM     25  C   UNL d   1      33.232  22.606 -22.375  0.00  0.00     0.018 A 
ATOM     26  C   UNL d   1      33.074  23.438 -22.302  0.00  0.00     0.002 A 
ATOM     27  C   UNL d   1      32.451  23.691 -21.825  0.00  0.00     0.000 A 
ATOM     28  C   UNL d   1      31.963  23.159 -21.405  0.00  0.00     0.002 A 
ATOM     29  C   UNL d   1      32.118  22.324 -21.474  0.00  0.00     0.018 A 
ENDBRANCH   1  24
TORSDOF 9
ENDMDL
