MODEL 1
REMARK VINA RESULT:      -8.4      0.000      0.000
REMARK  3 active torsions:
REMARK  status: ('A' for Active; 'I' for Inactive)
REMARK    1  A    between atoms: C_6  and  N_1 
REMARK    2  A    between atoms: C_7  and  C_6 
REMARK    3  A    between atoms: C_8  and  C_7 
ROOT
ATOM      1  N   UNL d   1     -48.383  13.626  22.834  0.00  0.00    -0.305 N 
ATOM      2  C   UNL d   1     -48.845  12.763  23.120  0.00  0.00     0.064 A 
ATOM      3  C   UNL d   1     -48.074  12.501  23.227  0.00  0.00     0.018 A 
ATOM      4  C   UNL d   1     -47.575  13.780  22.798  0.00  0.00     0.064 A 
ATOM      5  C   UNL d   1     -47.441  13.017  23.062  0.00  0.00     0.018 A 
ATOM      6  C   UNL d   1     -49.471  12.251  23.283  0.00  0.00     0.018 A 
ATOM      7  C   UNL d   1     -47.919  11.746  23.488  0.00  0.00     0.002 A 
ATOM      8  C   UNL d   1     -46.943  14.296  22.634  0.00  0.00     0.018 A 
ATOM      9  C   UNL d   1     -46.668  12.752  23.170  0.00  0.00     0.002 A 
ATOM     10  C   UNL d   1     -48.555  11.227  23.653  0.00  0.00     0.000 A 
ATOM     11  C   UNL d   1     -49.323  11.480  23.550  0.00  0.00     0.002 A 
ATOM     12  C   UNL d   1     -46.028  13.249  23.013  0.00  0.00     0.000 A 
ATOM     13  C   UNL d   1     -46.168  14.011  22.748  0.00  0.00     0.002 A 
ENDROOT
BRANCH   1  14
ATOM     14  C   UNL d   1     -48.912  14.226  22.617  0.00  0.00     0.086 C 
BRANCH  14  15
ATOM     15  C   UNL d   1     -49.225  14.731  23.209  0.00  0.00     0.089 C 
BRANCH  15  16
ATOM     16  C   UNL d   1     -49.825  15.269  23.008  0.00  0.00     0.213 C 
ATOM     17  O   UNL d   1     -49.954  15.922  23.484  0.00  0.00    -0.644 OA
ATOM     18  O   UNL d   1     -50.454  15.670  22.640  0.00  0.00    -0.644 OA
ENDBRANCH  15  16
ENDBRANCH  14  15
ENDBRANCH   1  14
TORSDOF 3
ENDMDL
MODEL 2
REMARK VINA RESULT:      -8.3      1.866      2.906
REMARK  3 active torsions:
REMARK  status: ('A' for Active; 'I' for Inactive)
REMARK    1  A    between atoms: C_6  and  N_1 
REMARK    2  A    between atoms: C_7  and  C_6 
REMARK    3  A    between atoms: C_8  and  C_7 
ROOT
ATOM      1  N   UNL d   1     -48.436  13.486  22.778  0.00  0.00    -0.305 N 
ATOM      2  C   UNL d   1     -48.897  12.631  23.089  0.00  0.00     0.064 A 
ATOM      3  C   UNL d   1     -49.530  13.137  23.222  0.00  0.00     0.018 A 
ATOM      4  C   UNL d   1     -48.746  14.248  22.753  0.00  0.00     0.064 A 
ATOM      5  C   UNL d   1     -49.446  13.948  23.051  0.00  0.00     0.018 A 
ATOM      6  C   UNL d   1     -48.979  11.828  23.259  0.00  0.00     0.018 A 
ATOM      7  C   UNL d   1     -50.234  12.859  23.518  0.00  0.00     0.002 A 
ATOM      8  C   UNL d   1     -48.662  15.059  22.581  0.00  0.00     0.018 A 
ATOM      9  C   UNL d   1     -50.083  14.455  23.185  0.00  0.00     0.002 A 
ATOM     10  C   UNL d   1     -50.318  12.045  23.690  0.00  0.00     0.000 A 
ATOM     11  C   UNL d   1     -49.694  11.536  23.561  0.00  0.00     0.002 A 
ATOM     12  C   UNL d   1     -50.020  15.262  23.021  0.00  0.00     0.000 A 
ATOM     13  C   UNL d   1     -49.316  15.556  22.723  0.00  0.00     0.002 A 
ENDROOT
BRANCH   1  14
ATOM     14  C   UNL d   1     -47.655  13.365  22.526  0.00  0.00     0.086 C 
BRANCH  14  15
ATOM     15  C   UNL d   1     -47.037  13.359  23.093  0.00  0.00     0.089 C 
BRANCH  15  16
ATOM     16  C   UNL d   1     -46.249  13.329  22.833  0.00  0.00     0.213 C 
ATOM     17  O   UNL d   1     -45.670  13.050  23.340  0.00  0.00    -0.644 OA
ATOM     18  O   UNL d   1     -45.546  13.381  22.390  0.00  0.00    -0.644 OA
ENDBRANCH  15  16
ENDBRANCH  14  15
ENDBRANCH   1  14
TORSDOF 3
ENDMDL
MODEL 3
REMARK VINA RESULT:      -8.3      0.248      2.250
REMARK  3 active torsions:
REMARK  status: ('A' for Active; 'I' for Inactive)
REMARK    1  A    between atoms: C_6  and  N_1 
REMARK    2  A    between atoms: C_7  and  C_6 
REMARK    3  A    between atoms: C_8  and  C_7 
ROOT
ATOM      1  N   UNL d   1     -48.723  13.553  22.877  0.00  0.00    -0.305 N 
ATOM      2  C   UNL d   1     -47.745  13.829  22.786  0.00  0.00     0.064 A 
ATOM      3  C   UNL d   1     -47.607  13.069  23.066  0.00  0.00     0.018 A 
ATOM      4  C   UNL d   1     -49.024  12.832  23.137  0.00  0.00     0.064 A 
ATOM      5  C   UNL d   1     -48.254  12.574  23.240  0.00  0.00     0.018 A 
ATOM      6  C   UNL d   1     -47.104  14.319  22.614  0.00  0.00     0.018 A 
ATOM      7  C   UNL d   1     -46.850  12.793  23.174  0.00  0.00     0.002 A 
ATOM      8  C   UNL d   1     -49.671  12.338  23.311  0.00  0.00     0.018 A 
ATOM      9  C   UNL d   1     -48.113  11.812  23.520  0.00  0.00     0.002 A 
ATOM     10  C   UNL d   1     -46.199  13.290  23.000  0.00  0.00     0.000 A 
ATOM     11  C   UNL d   1     -46.329  14.046  22.722  0.00  0.00     0.002 A 
ATOM     12  C   UNL d   1     -48.741  11.306  23.698  0.00  0.00     0.000 A 
ATOM     13  C   UNL d   1     -49.509  11.570  23.593  0.00  0.00     0.002 A 
ENDROOT
BRANCH   1  14
ATOM     14  C   UNL d   1     -49.255  14.149  22.654  0.00  0.00     0.086 C 
BRANCH  14  15
ATOM     15  C   UNL d   1     -49.557  14.669  23.238  0.00  0.00     0.089 C 
BRANCH  15  16
ATOM     16  C   UNL d   1     -50.140  15.221  23.027  0.00  0.00     0.213 C 
ATOM     17  O   UNL d   1     -50.295  15.851  23.525  0.00  0.00    -0.644 OA
ATOM     18  O   UNL d   1     -50.743  15.645  22.640  0.00  0.00    -0.644 OA
ENDBRANCH  15  16
ENDBRANCH  14  15
ENDBRANCH   1  14
TORSDOF 3
ENDMDL
MODEL 4
REMARK VINA RESULT:      -8.2      1.850      3.465
REMARK  3 active torsions:
REMARK  status: ('A' for Active; 'I' for Inactive)
REMARK    1  A    between atoms: C_6  and  N_1 
REMARK    2  A    between atoms: C_7  and  C_6 
REMARK    3  A    between atoms: C_8  and  C_7 
ROOT
ATOM      1  N   UNL d   1     -48.574  13.306  22.948  0.00  0.00    -0.305 N 
ATOM      2  C   UNL d   1     -48.918  14.265  22.925  0.00  0.00     0.064 A 
ATOM      3  C   UNL d   1     -49.614  13.917  23.188  0.00  0.00     0.018 A 
ATOM      4  C   UNL d   1     -48.982  12.626  23.167  0.00  0.00     0.064 A 
ATOM      5  C   UNL d   1     -49.639  13.093  23.308  0.00  0.00     0.018 A 
ATOM      6  C   UNL d   1     -48.894  15.081  22.806  0.00  0.00     0.018 A 
ATOM      7  C   UNL d   1     -50.278  14.365  23.334  0.00  0.00     0.002 A 
ATOM      8  C   UNL d   1     -49.007  11.802  23.287  0.00  0.00     0.018 A 
ATOM      9  C   UNL d   1     -50.338  12.746  23.573  0.00  0.00     0.002 A 
ATOM     10  C   UNL d   1     -50.253  15.192  23.214  0.00  0.00     0.000 A 
ATOM     11  C   UNL d   1     -49.566  15.545  22.952  0.00  0.00     0.002 A 
ATOM     12  C   UNL d   1     -50.382  11.931  23.697  0.00  0.00     0.000 A 
ATOM     13  C   UNL d   1     -49.722  11.469  23.555  0.00  0.00     0.002 A 
ENDROOT
BRANCH   1  14
ATOM     14  C   UNL d   1     -47.782  13.235  22.711  0.00  0.00     0.086 C 
BRANCH  14  15
ATOM     15  C   UNL d   1     -47.175  13.297  23.286  0.00  0.00     0.089 C 
BRANCH  15  16
ATOM     16  C   UNL d   1     -46.381  13.257  23.044  0.00  0.00     0.213 C 
ATOM     17  O   UNL d   1     -45.814  12.989  23.570  0.00  0.00    -0.644 OA
ATOM     18  O   UNL d   1     -45.669  13.294  22.615  0.00  0.00    -0.644 OA
ENDBRANCH  15  16
ENDBRANCH  14  15
ENDBRANCH   1  14
TORSDOF 3
ENDMDL
MODEL 5
REMARK VINA RESULT:      -7.9      1.654      2.790
REMARK  3 active torsions:
REMARK  status: ('A' for Active; 'I' for Inactive)
REMARK    1  A    between atoms: C_6  and  N_1 
REMARK    2  A    between atoms: C_7  and  C_6 
REMARK    3  A    between atoms: C_8  and  C_7 
ROOT
ATOM      1  N   UNL d   1     -48.198  13.264  23.189  0.00  0.00    -0.305 N 
ATOM      2  C   UNL d   1     -48.720  14.116  22.982  0.00  0.00     0.064 A 
ATOM      3  C   UNL d   1     -47.982  14.396  22.757  0.00  0.00     0.018 A 
ATOM      4  C   UNL d   1     -47.392  13.130  23.097  0.00  0.00     0.064 A 
ATOM      5  C   UNL d   1     -47.319  13.895  22.817  0.00  0.00     0.018 A 
ATOM      6  C   UNL d   1     -49.376  14.612  22.922  0.00  0.00     0.018 A 
ATOM      7  C   UNL d   1     -47.888  15.154  22.476  0.00  0.00     0.002 A 
ATOM      8  C   UNL d   1     -46.729  12.628  23.158  0.00  0.00     0.018 A 
ATOM      9  C   UNL d   1     -46.579  14.178  22.591  0.00  0.00     0.002 A 
ATOM     10  C   UNL d   1     -48.554  15.657  22.415  0.00  0.00     0.000 A 
ATOM     11  C   UNL d   1     -49.290  15.386  22.637  0.00  0.00     0.002 A 
ATOM     12  C   UNL d   1     -45.910  13.697  22.643  0.00  0.00     0.000 A 
ATOM     13  C   UNL d   1     -45.989  12.932  22.924  0.00  0.00     0.002 A 
ENDROOT
BRANCH   1  14
ATOM     14  C   UNL d   1     -48.673  12.652  23.485  0.00  0.00     0.086 C 
BRANCH  14  15
ATOM     15  C   UNL d   1     -49.014  12.102  22.951  0.00  0.00     0.089 C 
BRANCH  15  16
ATOM     16  C   UNL d   1     -49.529  11.520  23.242  0.00  0.00     0.213 C 
ATOM     17  O   UNL d   1     -50.197  11.323  22.813  0.00  0.00    -0.644 OA
ATOM     18  O   UNL d   1     -49.900  10.930  23.698  0.00  0.00    -0.644 OA
ENDBRANCH  15  16
ENDBRANCH  14  15
ENDBRANCH   1  14
TORSDOF 3
ENDMDL
MODEL 6
REMARK VINA RESULT:      -7.8      0.896      2.430
REMARK  3 active torsions:
REMARK  status: ('A' for Active; 'I' for Inactive)
REMARK    1  A    between atoms: C_6  and  N_1 
REMARK    2  A    between atoms: C_7  and  C_6 
REMARK    3  A    between atoms: C_8  and  C_7 
ROOT
ATOM      1  N   UNL d   1     -48.627  13.349  22.978  0.00  0.00    -0.305 N 
ATOM      2  C   UNL d   1     -47.844  13.975  22.794  0.00  0.00     0.064 A 
ATOM      3  C   UNL d   1     -47.397  13.326  23.023  0.00  0.00     0.018 A 
ATOM      4  C   UNL d   1     -48.601  12.569  23.238  0.00  0.00     0.064 A 
ATOM      5  C   UNL d   1     -47.785  12.622  23.245  0.00  0.00     0.018 A 
ATOM      6  C   UNL d   1     -47.460  14.672  22.574  0.00  0.00     0.018 A 
ATOM      7  C   UNL d   1     -46.585  13.359  23.037  0.00  0.00     0.002 A 
ATOM      8  C   UNL d   1     -48.988  11.865  23.460  0.00  0.00     0.018 A 
ATOM      9  C   UNL d   1     -47.334  11.971  23.475  0.00  0.00     0.002 A 
ATOM     10  C   UNL d   1     -46.195  14.065  22.814  0.00  0.00     0.000 A 
ATOM     11  C   UNL d   1     -46.632  14.715  22.585  0.00  0.00     0.002 A 
ATOM     12  C   UNL d   1     -47.699  11.265  23.698  0.00  0.00     0.000 A 
ATOM     13  C   UNL d   1     -48.517  11.217  23.689  0.00  0.00     0.002 A 
ENDROOT
BRANCH   1  14
ATOM     14  C   UNL d   1     -49.367  13.698  22.840  0.00  0.00     0.086 C 
BRANCH  14  15
ATOM     15  C   UNL d   1     -49.697  13.668  22.070  0.00  0.00     0.089 C 
BRANCH  15  16
ATOM     16  C   UNL d   1     -50.400  14.081  21.914  0.00  0.00     0.213 C 
ATOM     17  O   UNL d   1     -50.974  13.734  21.446  0.00  0.00    -0.644 OA
ATOM     18  O   UNL d   1     -51.010  14.647  21.882  0.00  0.00    -0.644 OA
ENDBRANCH  15  16
ENDBRANCH  14  15
ENDBRANCH   1  14
TORSDOF 3
ENDMDL
MODEL 7
REMARK VINA RESULT:      -6.0      8.866      9.970
REMARK  3 active torsions:
REMARK  status: ('A' for Active; 'I' for Inactive)
REMARK    1  A    between atoms: C_6  and  N_1 
REMARK    2  A    between atoms: C_7  and  C_6 
REMARK    3  A    between atoms: C_8  and  C_7 
ROOT
ATOM      1  N   UNL d   1     -40.087  14.260  18.397  0.00  0.00    -0.305 N 
ATOM      2  C   UNL d   1     -39.359  13.701  17.955  0.00  0.00     0.064 A 
ATOM      3  C   UNL d   1     -39.038  13.697  18.711  0.00  0.00     0.018 A 
ATOM      4  C   UNL d   1     -40.138  14.493  19.185  0.00  0.00     0.064 A 
ATOM      5  C   UNL d   1     -39.436  14.098  19.324  0.00  0.00     0.018 A 
ATOM      6  C   UNL d   1     -38.965  13.304  17.348  0.00  0.00     0.018 A 
ATOM      7  C   UNL d   1     -38.341  13.310  18.870  0.00  0.00     0.002 A 
ATOM      8  C   UNL d   1     -40.536  14.893  19.798  0.00  0.00     0.018 A 
ATOM      9  C   UNL d   1     -39.113  14.093  20.083  0.00  0.00     0.002 A 
ATOM     10  C   UNL d   1     -37.942  12.908  18.254  0.00  0.00     0.000 A 
ATOM     11  C   UNL d   1     -38.253  12.907  17.501  0.00  0.00     0.002 A 
ATOM     12  C   UNL d   1     -39.492  14.484  20.703  0.00  0.00     0.000 A 
ATOM     13  C   UNL d   1     -40.195  14.878  20.558  0.00  0.00     0.002 A 
ENDROOT
BRANCH   1  14
ATOM     14  C   UNL d   1     -40.686  14.494  17.873  0.00  0.00     0.086 C 
BRANCH  14  15
ATOM     15  C   UNL d   1     -40.562  15.160  17.378  0.00  0.00     0.089 C 
BRANCH  15  16
ATOM     16  C   UNL d   1     -41.176  15.417  16.882  0.00  0.00     0.213 C 
ATOM     17  O   UNL d   1     -41.006  15.922  16.262  0.00  0.00    -0.644 OA
ATOM     18  O   UNL d   1     -41.912  15.550  16.518  0.00  0.00    -0.644 OA
ENDBRANCH  15  16
ENDBRANCH  14  15
ENDBRANCH   1  14
TORSDOF 3
ENDMDL
MODEL 8
REMARK VINA RESULT:      -5.8      8.355      9.947
REMARK  3 active torsions:
REMARK  status: ('A' for Active; 'I' for Inactive)
REMARK    1  A    between atoms: C_6  and  N_1 
REMARK    2  A    between atoms: C_7  and  C_6 
REMARK    3  A    between atoms: C_8  and  C_7 
ROOT
ATOM      1  N   UNL d   1     -39.928  14.713  18.589  0.00  0.00    -0.305 N 
ATOM      2  C   UNL d   1     -39.251  13.992  18.342  0.00  0.00     0.064 A 
ATOM      3  C   UNL d   1     -39.483  14.175  17.576  0.00  0.00     0.018 A 
ATOM      4  C   UNL d   1     -40.398  15.162  18.084  0.00  0.00     0.064 A 
ATOM      5  C   UNL d   1     -40.060  14.764  17.454  0.00  0.00     0.018 A 
ATOM      6  C   UNL d   1     -38.680  13.409  18.463  0.00  0.00     0.018 A 
ATOM      7  C   UNL d   1     -39.160  13.791  16.936  0.00  0.00     0.002 A 
ATOM      8  C   UNL d   1     -40.974  15.751  17.962  0.00  0.00     0.018 A 
ATOM      9  C   UNL d   1     -40.292  14.946  16.684  0.00  0.00     0.002 A 
ATOM     10  C   UNL d   1     -38.581  13.199  17.059  0.00  0.00     0.000 A 
ATOM     11  C   UNL d   1     -38.345  13.012  17.817  0.00  0.00     0.002 A 
ATOM     12  C   UNL d   1     -40.861  15.526  16.542  0.00  0.00     0.000 A 
ATOM     13  C   UNL d   1     -41.196  15.921  17.177  0.00  0.00     0.002 A 
ENDROOT
BRANCH   1  14
ATOM     14  C   UNL d   1     -39.991  14.840  19.406  0.00  0.00     0.086 C 
BRANCH  14  15
ATOM     15  C   UNL d   1     -40.578  14.429  19.842  0.00  0.00     0.089 C 
BRANCH  15  16
ATOM     16  C   UNL d   1     -40.633  14.548  20.662  0.00  0.00     0.213 C 
ATOM     17  O   UNL d   1     -41.213  14.157  21.086  0.00  0.00    -0.644 OA
ATOM     18  O   UNL d   1     -40.518  14.800  21.447  0.00  0.00    -0.644 OA
ENDBRANCH  15  16
ENDBRANCH  14  15
ENDBRANCH   1  14
TORSDOF 3
ENDMDL
MODEL 9
REMARK VINA RESULT:      -5.5      8.738      9.848
REMARK  3 active torsions:
REMARK  status: ('A' for Active; 'I' for Inactive)
REMARK    1  A    between atoms: C_6  and  N_1 
REMARK    2  A    between atoms: C_7  and  C_6 
REMARK    3  A    between atoms: C_8  and  C_7 
ROOT
ATOM      1  N   UNL d   1     -39.363  14.512  19.754  0.00  0.00    -0.305 N 
ATOM      2  C   UNL d   1     -38.852  14.017  20.484  0.00  0.00     0.064 A 
ATOM      3  C   UNL d   1     -39.379  14.405  20.980  0.00  0.00     0.018 A 
ATOM      4  C   UNL d   1     -39.997  15.029  19.841  0.00  0.00     0.064 A 
ATOM      5  C   UNL d   1     -39.952  14.913  20.649  0.00  0.00     0.018 A 
ATOM      6  C   UNL d   1     -38.286  13.514  20.812  0.00  0.00     0.018 A 
ATOM      7  C   UNL d   1     -39.351  14.303  21.786  0.00  0.00     0.002 A 
ATOM      8  C   UNL d   1     -40.569  15.537  19.511  0.00  0.00     0.018 A 
ATOM      9  C   UNL d   1     -40.480  15.302  21.149  0.00  0.00     0.002 A 
ATOM     10  C   UNL d   1     -38.776  13.793  22.118  0.00  0.00     0.000 A 
ATOM     11  C   UNL d   1     -38.249  13.404  21.633  0.00  0.00     0.002 A 
ATOM     12  C   UNL d   1     -41.054  15.809  20.840  0.00  0.00     0.000 A 
ATOM     13  C   UNL d   1     -41.094  15.922  20.031  0.00  0.00     0.002 A 
ENDROOT
BRANCH   1  14
ATOM     14  C   UNL d   1     -39.081  14.353  18.990  0.00  0.00     0.086 C 
BRANCH  14  15
ATOM     15  C   UNL d   1     -39.424  13.728  18.548  0.00  0.00     0.089 C 
BRANCH  15  16
ATOM     16  C   UNL d   1     -39.146  13.574  17.781  0.00  0.00     0.213 C 
ATOM     17  O   UNL d   1     -39.291  12.845  17.440  0.00  0.00    -0.644 OA
ATOM     18  O   UNL d   1     -38.793  13.625  17.029  0.00  0.00    -0.644 OA
ENDBRANCH  15  16
ENDBRANCH  14  15
ENDBRANCH   1  14
TORSDOF 3
ENDMDL
