MODEL 1
REMARK VINA RESULT:       2.0      0.000      0.000
REMARK  1 active torsions:
REMARK  status: ('A' for Active; 'I' for Inactive)
REMARK    1  A    between atoms: C_9  and  C_3 
ROOT
ATOM      1  N   UNL d   1      46.610 -18.281  42.386  0.00  0.00    -0.145 NA
ATOM      2  N   UNL d   1      46.647 -18.050  41.597  0.00  0.00    -0.106 NA
ATOM      3  C   UNL d   1      46.503 -19.079  42.578  0.00  0.00     0.103 A 
ATOM      4  C   UNL d   1      46.576 -18.613  40.997  0.00  0.00     0.297 A 
ATOM      5  C   UNL d   1      46.432 -19.647  41.984  0.00  0.00     0.026 A 
ATOM      6  C   UNL d   1      46.469 -19.409  41.190  0.00  0.00     0.066 A 
ATOM      7  O   UNL d   1      46.613 -18.380  40.208  0.00  0.00    -0.264 OA
ENDROOT
BRANCH   3   8
ATOM      8  C   UNL d   1      46.467 -19.311  43.368  0.00  0.00     0.022 A 
ATOM      9  C   UNL d   1      46.607 -18.758  43.971  0.00  0.00     0.022 A 
ATOM     10  C   UNL d   1      46.570 -18.989  44.761  0.00  0.00     0.099 A 
ATOM     11  N   UNL d   1      46.395 -19.772  44.955  0.00  0.00    -0.242 NA
ATOM     12  C   UNL d   1      46.255 -20.325  44.347  0.00  0.00     0.099 A 
ATOM     13  C   UNL d   1      46.291 -20.094  43.557  0.00  0.00     0.022 A 
ENDBRANCH   3   8
TORSDOF 1
ENDMDL
MODEL 2
REMARK VINA RESULT:       4.7      5.000      5.863
REMARK  1 active torsions:
REMARK  status: ('A' for Active; 'I' for Inactive)
REMARK    1  A    between atoms: C_9  and  C_3 
ROOT
ATOM      1  N   UNL d   1      46.204 -14.959  44.204  0.00  0.00    -0.145 NA
ATOM      2  N   UNL d   1      46.211 -15.763  44.382  0.00  0.00    -0.106 NA
ATOM      3  C   UNL d   1      45.546 -14.498  44.402  0.00  0.00     0.103 A 
ATOM      4  C   UNL d   1      45.564 -16.110  44.757  0.00  0.00     0.297 A 
ATOM      5  C   UNL d   1      44.895 -14.838  44.778  0.00  0.00     0.026 A 
ATOM      6  C   UNL d   1      44.907 -15.649  44.955  0.00  0.00     0.066 A 
ATOM      7  O   UNL d   1      45.573 -16.914  44.934  0.00  0.00    -0.264 OA
ENDROOT
BRANCH   3   8
ATOM      8  C   UNL d   1      45.538 -13.694  44.224  0.00  0.00     0.022 A 
ATOM      9  C   UNL d   1      45.160 -13.423  43.536  0.00  0.00     0.022 A 
ATOM     10  C   UNL d   1      45.152 -12.619  43.359  0.00  0.00     0.099 A 
ATOM     11  N   UNL d   1      45.519 -12.080  43.864  0.00  0.00    -0.242 NA
ATOM     12  C   UNL d   1      45.897 -12.355  44.555  0.00  0.00     0.099 A 
ATOM     13  C   UNL d   1      45.906 -13.159  44.733  0.00  0.00     0.022 A 
ENDBRANCH   3   8
TORSDOF 1
ENDMDL
MODEL 3
REMARK VINA RESULT:       4.9      1.700      3.240
REMARK  1 active torsions:
REMARK  status: ('A' for Active; 'I' for Inactive)
REMARK    1  A    between atoms: C_9  and  C_3 
ROOT
ATOM      1  N   UNL d   1      45.875 -19.992  42.802  0.00  0.00    -0.145 NA
ATOM      2  N   UNL d   1      45.775 -20.330  43.546  0.00  0.00    -0.106 NA
ATOM      3  C   UNL d   1      46.310 -19.293  42.721  0.00  0.00     0.103 A 
ATOM      4  C   UNL d   1      46.108 -19.973  44.211  0.00  0.00     0.297 A 
ATOM      5  C   UNL d   1      46.646 -18.930  43.381  0.00  0.00     0.026 A 
ATOM      6  C   UNL d   1      46.543 -19.275  44.130  0.00  0.00     0.066 A 
ATOM      7  O   UNL d   1      46.008 -20.312  44.954  0.00  0.00    -0.264 OA
ENDROOT
BRANCH   3   8
ATOM      8  C   UNL d   1      46.410 -18.954  41.977  0.00  0.00     0.022 A 
ATOM      9  C   UNL d   1      46.546 -19.436  41.315  0.00  0.00     0.022 A 
ATOM     10  C   UNL d   1      46.646 -19.097  40.571  0.00  0.00     0.099 A 
ATOM     11  N   UNL d   1      46.611 -18.278  40.481  0.00  0.00    -0.242 NA
ATOM     12  C   UNL d   1      46.475 -17.796  41.148  0.00  0.00     0.099 A 
ATOM     13  C   UNL d   1      46.374 -18.134  41.892  0.00  0.00     0.022 A 
ENDBRANCH   3   8
TORSDOF 1
ENDMDL
