MODEL 1
REMARK VINA RESULT:      -7.1      0.000      0.000
REMARK  4 active torsions:
REMARK  status: ('A' for Active; 'I' for Inactive)
REMARK       I    between atoms: C_2  and  N_1 
REMARK       I    between atoms: C_3  and  N_1 
REMARK    1  A    between atoms: C_4  and  C_2 
REMARK       I    between atoms: N_7  and  C_3 
REMARK    2  A    between atoms: C_15  and  N_7 
REMARK    3  A    between atoms: N_11  and  C_16 
REMARK    4  A    between atoms: C_16  and  C_15 
ROOT
ATOM      1  N   UNL d   1      51.587  33.971  53.264  0.00  0.00    -0.152 NA
ATOM      2  C   UNL d   1      52.367  33.774  53.063  0.00  0.00     0.283 C 
ATOM      3  C   UNL d   1      51.037  34.148  52.672  0.00  0.00     0.371 C 
ATOM      4  O   UNL d   1      52.596  33.755  52.266  0.00  0.00    -0.265 OA
ATOM      5  O   UNL d   1      51.255  34.131  51.881  0.00  0.00    -0.242 OA
ATOM      6  N   UNL d   1      50.254  34.345  52.874  0.00  0.00    -0.188 NA
ENDROOT
BRANCH   2   7
ATOM      7  C   UNL d   1      52.916  33.598  53.651  0.00  0.00     0.058 A 
ATOM      8  C   UNL d   1      53.181  34.197  54.160  0.00  0.00     0.006 A 
ATOM      9  C   UNL d   1      53.729  34.029  54.749  0.00  0.00     0.012 A 
ATOM     10  C   UNL d   1      54.021  33.254  54.837  0.00  0.00     0.058 A 
ATOM     11  C   UNL d   1      53.750  32.654  54.322  0.00  0.00     0.012 A 
ATOM     12 CL   UNL d   1      54.572  33.065  55.424  0.00  0.00    -0.082 Cl
ATOM     13  C   UNL d   1      53.198  32.830  53.731  0.00  0.00     0.006 A 
ENDBRANCH   2   7
BRANCH   6  14
ATOM     14  C   UNL d   1      49.865  34.486  52.171  0.00  0.00     0.123 C 
BRANCH  14  15
ATOM     15  C   UNL d   1      49.124  34.843  52.174  0.00  0.00     0.101 C 
BRANCH  15  16
ATOM     16  N   UNL d   1      48.666  34.844  51.495  0.00  0.00    -0.299 N 
ATOM     17  C   UNL d   1      47.943  35.226  51.495  0.00  0.00     0.100 C 
ATOM     18  C   UNL d   1      48.750  34.531  50.740  0.00  0.00     0.100 C 
ENDBRANCH  15  16
ENDBRANCH  14  15
ENDBRANCH   6  14
TORSDOF 4
ENDMDL
MODEL 2
REMARK VINA RESULT:      -6.7      1.614      2.043
REMARK  4 active torsions:
REMARK  status: ('A' for Active; 'I' for Inactive)
REMARK       I    between atoms: C_2  and  N_1 
REMARK       I    between atoms: C_3  and  N_1 
REMARK    1  A    between atoms: C_4  and  C_2 
REMARK       I    between atoms: N_7  and  C_3 
REMARK    2  A    between atoms: C_15  and  N_7 
REMARK    3  A    between atoms: N_11  and  C_16 
REMARK    4  A    between atoms: C_16  and  C_15 
ROOT
ATOM      1  N   UNL d   1      51.672  32.696  53.141  0.00  0.00    -0.152 NA
ATOM      2  C   UNL d   1      52.431  32.499  52.873  0.00  0.00     0.283 C 
ATOM      3  C   UNL d   1      51.311  33.397  52.893  0.00  0.00     0.371 C 
ATOM      4  O   UNL d   1      52.831  33.009  52.354  0.00  0.00    -0.265 OA
ATOM      5  O   UNL d   1      51.699  33.908  52.380  0.00  0.00    -0.242 OA
ATOM      6  N   UNL d   1      50.549  33.594  53.163  0.00  0.00    -0.188 NA
ENDROOT
BRANCH   2   7
ATOM      7  C   UNL d   1      52.792  31.801  53.118  0.00  0.00     0.058 A 
ATOM      8  C   UNL d   1      52.507  31.072  52.844  0.00  0.00     0.006 A 
ATOM      9  C   UNL d   1      52.861  30.371  53.084  0.00  0.00     0.012 A 
ATOM     10  C   UNL d   1      53.511  30.390  53.606  0.00  0.00     0.058 A 
ATOM     11  C   UNL d   1      53.794  31.128  53.878  0.00  0.00     0.012 A 
ATOM     12 CL   UNL d   1      53.881  29.695  53.858  0.00  0.00    -0.082 Cl
ATOM     13  C   UNL d   1      53.432  31.830  53.632  0.00  0.00     0.006 A 
ENDBRANCH   2   7
BRANCH   6  14
ATOM     14  C   UNL d   1      50.361  34.309  52.818  0.00  0.00     0.123 C 
BRANCH  14  15
ATOM     15  C   UNL d   1      49.812  34.807  53.174  0.00  0.00     0.101 C 
BRANCH  15  16
ATOM     16  N   UNL d   1      49.185  35.104  52.738  0.00  0.00    -0.299 N 
ATOM     17  C   UNL d   1      48.666  35.631  53.086  0.00  0.00     0.100 C 
ATOM     18  C   UNL d   1      48.915  35.003  51.969  0.00  0.00     0.100 C 
ENDBRANCH  15  16
ENDBRANCH  14  15
ENDBRANCH   6  14
TORSDOF 4
ENDMDL
MODEL 3
REMARK VINA RESULT:      -6.6      1.186      1.496
REMARK  4 active torsions:
REMARK  status: ('A' for Active; 'I' for Inactive)
REMARK       I    between atoms: C_2  and  N_1 
REMARK       I    between atoms: C_3  and  N_1 
REMARK    1  A    between atoms: C_4  and  C_2 
REMARK       I    between atoms: N_7  and  C_3 
REMARK    2  A    between atoms: C_15  and  N_7 
REMARK    3  A    between atoms: N_11  and  C_16 
REMARK    4  A    between atoms: C_16  and  C_15 
ROOT
ATOM      1  N   UNL d   1      51.283  33.554  53.147  0.00  0.00    -0.152 NA
ATOM      2  C   UNL d   1      52.102  33.640  53.234  0.00  0.00     0.283 C 
ATOM      3  C   UNL d   1      50.804  34.219  53.034  0.00  0.00     0.371 C 
ATOM      4  O   UNL d   1      52.444  34.396  53.209  0.00  0.00    -0.265 OA
ATOM      5  O   UNL d   1      51.133  34.971  53.007  0.00  0.00    -0.242 OA
ATOM      6  N   UNL d   1      49.981  34.131  52.945  0.00  0.00    -0.188 NA
ENDROOT
BRANCH   2   7
ATOM      7  C   UNL d   1      52.581  32.980  53.347  0.00  0.00     0.058 A 
ATOM      8  C   UNL d   1      53.182  33.000  53.918  0.00  0.00     0.006 A 
ATOM      9  C   UNL d   1      53.664  32.345  54.036  0.00  0.00     0.012 A 
ATOM     10  C   UNL d   1      53.550  31.656  53.582  0.00  0.00     0.058 A 
ATOM     11  C   UNL d   1      52.942  31.642  53.008  0.00  0.00     0.012 A 
ATOM     12 CL   UNL d   1      54.024  30.987  53.686  0.00  0.00    -0.082 Cl
ATOM     13  C   UNL d   1      52.461  32.305  52.894  0.00  0.00     0.006 A 
ENDBRANCH   2   7
BRANCH   6  14
ATOM     14  C   UNL d   1      49.680  34.883  52.846  0.00  0.00     0.123 C 
BRANCH  14  15
ATOM     15  C   UNL d   1      48.940  34.989  52.504  0.00  0.00     0.101 C 
BRANCH  15  16
ATOM     16  N   UNL d   1      48.448  35.589  52.767  0.00  0.00    -0.299 N 
ATOM     17  C   UNL d   1      47.982  35.994  52.231  0.00  0.00     0.100 C 
ATOM     18  C   UNL d   1      48.284  35.924  53.499  0.00  0.00     0.100 C 
ENDBRANCH  15  16
ENDBRANCH  14  15
ENDBRANCH   6  14
TORSDOF 4
ENDMDL
MODEL 4
REMARK VINA RESULT:      -6.0      2.210      4.896
REMARK  4 active torsions:
REMARK  status: ('A' for Active; 'I' for Inactive)
REMARK       I    between atoms: C_2  and  N_1 
REMARK       I    between atoms: C_3  and  N_1 
REMARK    1  A    between atoms: C_4  and  C_2 
REMARK       I    between atoms: N_7  and  C_3 
REMARK    2  A    between atoms: C_15  and  N_7 
REMARK    3  A    between atoms: N_11  and  C_16 
REMARK    4  A    between atoms: C_16  and  C_15 
ROOT
ATOM      1  N   UNL d   1      51.291  34.384  53.069  0.00  0.00    -0.152 NA
ATOM      2  C   UNL d   1      50.558  34.009  52.984  0.00  0.00     0.283 C 
ATOM      3  C   UNL d   1      51.924  33.987  53.424  0.00  0.00     0.371 C 
ATOM      4  O   UNL d   1      50.457  33.232  53.257  0.00  0.00    -0.265 OA
ATOM      5  O   UNL d   1      51.833  33.218  53.697  0.00  0.00    -0.242 OA
ATOM      6  N   UNL d   1      52.661  34.365  53.509  0.00  0.00    -0.188 NA
ENDROOT
BRANCH   2   7
ATOM      7  C   UNL d   1      49.927  34.403  52.630  0.00  0.00     0.058 A 
ATOM      8  C   UNL d   1      49.461  34.921  53.081  0.00  0.00     0.006 A 
ATOM      9  C   UNL d   1      48.830  35.318  52.735  0.00  0.00     0.012 A 
ATOM     10  C   UNL d   1      48.655  35.200  51.929  0.00  0.00     0.058 A 
ATOM     11  C   UNL d   1      49.128  34.677  51.481  0.00  0.00     0.012 A 
ATOM     12 CL   UNL d   1      48.024  35.590  51.564  0.00  0.00    -0.082 Cl
ATOM     13  C   UNL d   1      49.762  34.281  51.835  0.00  0.00     0.006 A 
ENDBRANCH   2   7
BRANCH   6  14
ATOM     14  C   UNL d   1      53.153  33.827  53.875  0.00  0.00     0.123 C 
BRANCH  14  15
ATOM     15  C   UNL d   1      53.825  34.087  54.272  0.00  0.00     0.101 C 
BRANCH  15  16
ATOM     16  N   UNL d   1      54.441  33.567  54.420  0.00  0.00    -0.299 N 
ATOM     17  C   UNL d   1      54.831  33.598  55.137  0.00  0.00     0.100 C 
ATOM     18  C   UNL d   1      54.804  32.965  53.996  0.00  0.00     0.100 C 
ENDBRANCH  15  16
ENDBRANCH  14  15
ENDBRANCH   6  14
TORSDOF 4
ENDMDL
MODEL 5
REMARK VINA RESULT:      -5.7      3.134      4.763
REMARK  4 active torsions:
REMARK  status: ('A' for Active; 'I' for Inactive)
REMARK       I    between atoms: C_2  and  N_1 
REMARK       I    between atoms: C_3  and  N_1 
REMARK    1  A    between atoms: C_4  and  C_2 
REMARK       I    between atoms: N_7  and  C_3 
REMARK    2  A    between atoms: C_15  and  N_7 
REMARK    3  A    between atoms: N_11  and  C_16 
REMARK    4  A    between atoms: C_16  and  C_15 
ROOT
ATOM      1  N   UNL d   1      53.311  32.362  54.064  0.00  0.00    -0.152 NA
ATOM      2  C   UNL d   1      53.782  33.016  53.869  0.00  0.00     0.283 C 
ATOM      3  C   UNL d   1      53.574  31.595  53.898  0.00  0.00     0.371 C 
ATOM      4  O   UNL d   1      54.519  32.901  53.506  0.00  0.00    -0.265 OA
ATOM      5  O   UNL d   1      54.302  31.472  53.539  0.00  0.00    -0.242 OA
ATOM      6  N   UNL d   1      53.101  30.940  54.094  0.00  0.00    -0.188 NA
ENDROOT
BRANCH   2   7
ATOM      7  C   UNL d   1      53.522  33.780  54.033  0.00  0.00     0.058 A 
ATOM      8  C   UNL d   1      53.062  34.187  53.475  0.00  0.00     0.006 A 
ATOM      9  C   UNL d   1      52.799  34.950  53.631  0.00  0.00     0.012 A 
ATOM     10  C   UNL d   1      52.993  35.317  54.353  0.00  0.00     0.058 A 
ATOM     11  C   UNL d   1      53.456  34.902  54.911  0.00  0.00     0.012 A 
ATOM     12 CL   UNL d   1      52.738  36.084  54.528  0.00  0.00    -0.082 Cl
ATOM     13  C   UNL d   1      53.718  34.134  54.747  0.00  0.00     0.006 A 
ENDBRANCH   2   7
BRANCH   6  14
ATOM     14  C   UNL d   1      53.518  30.279  53.859  0.00  0.00     0.123 C 
BRANCH  14  15
ATOM     15  C   UNL d   1      53.153  29.541  53.855  0.00  0.00     0.101 C 
BRANCH  15  16
ATOM     16  N   UNL d   1      53.352  28.983  54.420  0.00  0.00    -0.299 N 
ATOM     17  C   UNL d   1      53.824  28.348  54.212  0.00  0.00     0.100 C 
ATOM     18  C   UNL d   1      53.185  28.882  55.218  0.00  0.00     0.100 C 
ENDBRANCH  15  16
ENDBRANCH  14  15
ENDBRANCH   6  14
TORSDOF 4
ENDMDL
MODEL 6
REMARK VINA RESULT:      -5.6      2.186      4.875
REMARK  4 active torsions:
REMARK  status: ('A' for Active; 'I' for Inactive)
REMARK       I    between atoms: C_2  and  N_1 
REMARK       I    between atoms: C_3  and  N_1 
REMARK    1  A    between atoms: C_4  and  C_2 
REMARK       I    between atoms: N_7  and  C_3 
REMARK    2  A    between atoms: C_15  and  N_7 
REMARK    3  A    between atoms: N_11  and  C_16 
REMARK    4  A    between atoms: C_16  and  C_15 
ROOT
ATOM      1  N   UNL d   1      50.624  34.204  52.985  0.00  0.00    -0.152 NA
ATOM      2  C   UNL d   1      50.248  34.410  52.276  0.00  0.00     0.283 C 
ATOM      3  C   UNL d   1      51.364  33.834  52.972  0.00  0.00     0.371 C 
ATOM      4  O   UNL d   1      50.614  34.246  51.551  0.00  0.00    -0.265 OA
ATOM      5  O   UNL d   1      51.734  33.668  52.259  0.00  0.00    -0.242 OA
ATOM      6  N   UNL d   1      51.740  33.627  53.685  0.00  0.00    -0.188 NA
ENDROOT
BRANCH   2   7
ATOM      7  C   UNL d   1      49.511  34.778  52.288  0.00  0.00     0.058 A 
ATOM      8  C   UNL d   1      49.276  35.209  52.957  0.00  0.00     0.006 A 
ATOM      9  C   UNL d   1      48.543  35.579  52.976  0.00  0.00     0.012 A 
ATOM     10  C   UNL d   1      48.031  35.522  52.321  0.00  0.00     0.058 A 
ATOM     11  C   UNL d   1      48.273  35.087  51.650  0.00  0.00     0.012 A 
ATOM     12 CL   UNL d   1      47.289  35.888  52.321  0.00  0.00    -0.082 Cl
ATOM     13  C   UNL d   1      49.013  34.717  51.637  0.00  0.00     0.006 A 
ENDBRANCH   2   7
BRANCH   6  14
ATOM     14  C   UNL d   1      52.448  33.278  53.476  0.00  0.00     0.123 C 
BRANCH  14  15
ATOM     15  C   UNL d   1      53.042  33.183  54.037  0.00  0.00     0.101 C 
BRANCH  15  16
ATOM     16  N   UNL d   1      53.644  32.643  53.910  0.00  0.00    -0.299 N 
ATOM     17  C   UNL d   1      54.423  32.886  53.965  0.00  0.00     0.100 C 
ATOM     18  C   UNL d   1      53.675  31.843  53.723  0.00  0.00     0.100 C 
ENDBRANCH  15  16
ENDBRANCH  14  15
ENDBRANCH   6  14
TORSDOF 4
ENDMDL
MODEL 7
REMARK VINA RESULT:      -5.2      2.414      4.762
REMARK  4 active torsions:
REMARK  status: ('A' for Active; 'I' for Inactive)
REMARK       I    between atoms: C_2  and  N_1 
REMARK       I    between atoms: C_3  and  N_1 
REMARK    1  A    between atoms: C_4  and  C_2 
REMARK       I    between atoms: N_7  and  C_3 
REMARK    2  A    between atoms: C_15  and  N_7 
REMARK    3  A    between atoms: N_11  and  C_16 
REMARK    4  A    between atoms: C_16  and  C_15 
ROOT
ATOM      1  N   UNL d   1      51.009  33.251  52.825  0.00  0.00    -0.152 NA
ATOM      2  C   UNL d   1      50.975  34.068  52.695  0.00  0.00     0.283 C 
ATOM      3  C   UNL d   1      51.739  32.874  52.923  0.00  0.00     0.371 C 
ATOM      4  O   UNL d   1      51.675  34.511  52.662  0.00  0.00    -0.265 OA
ATOM      5  O   UNL d   1      52.437  33.304  52.892  0.00  0.00    -0.242 OA
ATOM      6  N   UNL d   1      51.772  32.053  53.053  0.00  0.00    -0.188 NA
ENDROOT
BRANCH   2   7
ATOM      7  C   UNL d   1      50.248  34.445  52.598  0.00  0.00     0.058 A 
ATOM      8  C   UNL d   1      49.857  34.402  51.868  0.00  0.00     0.006 A 
ATOM      9  C   UNL d   1      49.133  34.775  51.763  0.00  0.00     0.012 A 
ATOM     10  C   UNL d   1      48.788  35.199  52.392  0.00  0.00     0.058 A 
ATOM     11  C   UNL d   1      49.186  35.238  53.126  0.00  0.00     0.012 A 
ATOM     12 CL   UNL d   1      48.059  35.580  52.306  0.00  0.00    -0.082 Cl
ATOM     13  C   UNL d   1      49.916  34.860  53.224  0.00  0.00     0.006 A 
ENDBRANCH   2   7
BRANCH   6  14
ATOM     14  C   UNL d   1      52.563  31.864  53.124  0.00  0.00     0.123 C 
BRANCH  14  15
ATOM     15  C   UNL d   1      52.833  31.125  52.886  0.00  0.00     0.101 C 
BRANCH  15  16
ATOM     16  N   UNL d   1      53.282  30.668  53.396  0.00  0.00    -0.299 N 
ATOM     17  C   UNL d   1      53.983  30.965  53.693  0.00  0.00     0.100 C 
ATOM     18  C   UNL d   1      53.205  29.917  53.720  0.00  0.00     0.100 C 
ENDBRANCH  15  16
ENDBRANCH  14  15
ENDBRANCH   6  14
TORSDOF 4
ENDMDL
MODEL 8
REMARK VINA RESULT:      -5.0     10.009     10.591
REMARK  4 active torsions:
REMARK  status: ('A' for Active; 'I' for Inactive)
REMARK       I    between atoms: C_2  and  N_1 
REMARK       I    between atoms: C_3  and  N_1 
REMARK    1  A    between atoms: C_4  and  C_2 
REMARK       I    between atoms: N_7  and  C_3 
REMARK    2  A    between atoms: C_15  and  N_7 
REMARK    3  A    between atoms: N_11  and  C_16 
REMARK    4  A    between atoms: C_16  and  C_15 
ROOT
ATOM      1  N   UNL d   1      44.737  27.999  56.955  0.00  0.00    -0.152 NA
ATOM      2  C   UNL d   1      45.182  28.463  57.478  0.00  0.00     0.283 C 
ATOM      3  C   UNL d   1      44.906  27.194  56.865  0.00  0.00     0.371 C 
ATOM      4  O   UNL d   1      45.800  28.120  57.912  0.00  0.00    -0.265 OA
ATOM      5  O   UNL d   1      45.516  26.846  57.291  0.00  0.00    -0.242 OA
ATOM      6  N   UNL d   1      44.459  26.729  56.340  0.00  0.00    -0.188 NA
ENDROOT
BRANCH   2   7
ATOM      7  C   UNL d   1      45.015  29.265  57.569  0.00  0.00     0.058 A 
ATOM      8  C   UNL d   1      44.800  29.718  56.908  0.00  0.00     0.006 A 
ATOM      9  C   UNL d   1      44.632  30.518  56.990  0.00  0.00     0.012 A 
ATOM     10  C   UNL d   1      44.677  30.877  57.741  0.00  0.00     0.058 A 
ATOM     11  C   UNL d   1      44.894  30.416  58.403  0.00  0.00     0.012 A 
ATOM     12 CL   UNL d   1      44.512  31.681  57.844  0.00  0.00    -0.082 Cl
ATOM     13  C   UNL d   1      45.062  29.610  58.312  0.00  0.00     0.006 A 
ENDBRANCH   2   7
BRANCH   6  14
ATOM     14  C   UNL d   1      44.766  25.975  56.385  0.00  0.00     0.123 C 
BRANCH  14  15
ATOM     15  C   UNL d   1      44.564  25.413  55.818  0.00  0.00     0.101 C 
BRANCH  15  16
ATOM     16  N   UNL d   1      44.644  24.615  55.985  0.00  0.00    -0.299 N 
ATOM     17  C   UNL d   1      45.059  24.135  55.470  0.00  0.00     0.100 C 
ATOM     18  C   UNL d   1      44.392  24.123  56.592  0.00  0.00     0.100 C 
ENDBRANCH  15  16
ENDBRANCH  14  15
ENDBRANCH   6  14
TORSDOF 4
ENDMDL
MODEL 9
REMARK VINA RESULT:      -4.7     10.351     10.972
REMARK  4 active torsions:
REMARK  status: ('A' for Active; 'I' for Inactive)
REMARK       I    between atoms: C_2  and  N_1 
REMARK       I    between atoms: C_3  and  N_1 
REMARK    1  A    between atoms: C_4  and  C_2 
REMARK       I    between atoms: N_7  and  C_3 
REMARK    2  A    between atoms: C_15  and  N_7 
REMARK    3  A    between atoms: N_11  and  C_16 
REMARK    4  A    between atoms: C_16  and  C_15 
ROOT
ATOM      1  N   UNL d   1      44.713  29.618  59.453  0.00  0.00    -0.152 NA
ATOM      2  C   UNL d   1      44.911  29.801  58.669  0.00  0.00     0.283 C 
ATOM      3  C   UNL d   1      44.724  30.207  60.034  0.00  0.00     0.371 C 
ATOM      4  O   UNL d   1      45.121  30.578  58.467  0.00  0.00    -0.265 OA
ATOM      5  O   UNL d   1      44.930  30.978  59.842  0.00  0.00    -0.242 OA
ATOM      6  N   UNL d   1      44.524  30.022  60.820  0.00  0.00    -0.188 NA
ENDROOT
BRANCH   2   7
ATOM      7  C   UNL d   1      44.901  29.216  58.090  0.00  0.00     0.058 A 
ATOM      8  C   UNL d   1      45.208  28.464  58.259  0.00  0.00     0.006 A 
ATOM      9  C   UNL d   1      45.201  27.875  57.686  0.00  0.00     0.012 A 
ATOM     10  C   UNL d   1      44.886  28.032  56.931  0.00  0.00     0.058 A 
ATOM     11  C   UNL d   1      44.579  28.792  56.766  0.00  0.00     0.012 A 
ATOM     12 CL   UNL d   1      44.871  27.452  56.342  0.00  0.00    -0.082 Cl
ATOM     13  C   UNL d   1      44.588  29.380  57.348  0.00  0.00     0.006 A 
ENDBRANCH   2   7
BRANCH   6  14
ATOM     14  C   UNL d   1      44.590  30.717  61.242  0.00  0.00     0.123 C 
BRANCH  14  15
ATOM     15  C   UNL d   1      44.571  30.704  62.064  0.00  0.00     0.101 C 
BRANCH  15  16
ATOM     16  N   UNL d   1      44.417  31.391  62.482  0.00  0.00    -0.299 N 
ATOM     17  C   UNL d   1      44.321  31.358  63.294  0.00  0.00     0.100 C 
ATOM     18  C   UNL d   1      44.324  32.183  62.281  0.00  0.00     0.100 C 
ENDBRANCH  15  16
ENDBRANCH  14  15
ENDBRANCH   6  14
TORSDOF 4
ENDMDL
