MODEL 1
REMARK VINA RESULT:     108.4      0.000      0.000
REMARK  5 active torsions:
REMARK  status: ('A' for Active; 'I' for Inactive)
REMARK    1  A    between atoms: N_2  and  S_1 
REMARK    2  A    between atoms: C_4  and  S_1 
REMARK    3  A    between atoms: C_5  and  C_9 
REMARK       I    between atoms: N_8  and  C_5 
REMARK    4  A    between atoms: C_17  and  N_8 
REMARK    5  A    between atoms: C_18  and  C_17 
ROOT
ATOM      1  C   UNL d   1      61.194  46.762  50.334  0.00  0.00     0.104 A 
ATOM      2  C   UNL d   1      60.439  48.106  50.745  0.00  0.00     0.058 A 
ATOM      3  C   UNL d   1      61.295  47.423  49.892  0.00  0.00     0.013 A 
ATOM      4  C   UNL d   1      60.711  46.766  50.991  0.00  0.00     0.013 A 
ATOM      5  C   UNL d   1      60.916  48.097  50.099  0.00  0.00     0.005 A 
ATOM      6  C   UNL d   1      60.336  47.452  51.186  0.00  0.00     0.005 A 
ENDROOT
BRANCH   1   7
ATOM      7  S   UNL d   1      61.571  46.080  50.135  0.00  0.00     0.271 S 
ATOM      8  O   UNL d   1      61.687  45.904  50.899  0.00  0.00    -0.200 OA
ATOM      9  O   UNL d   1      61.399  46.349  49.247  0.00  0.00    -0.200 OA
BRANCH   7  10
ATOM     10  N   UNL d   1      61.966  45.359  49.831  0.00  0.00    -0.231 N 
ATOM     11  C   UNL d   1      61.830  44.596  50.242  0.00  0.00     0.075 A 
ATOM     12  C   UNL d   1      62.222  43.873  49.944  0.00  0.00     0.017 A 
ATOM     13  C   UNL d   1      61.317  44.539  50.935  0.00  0.00     0.018 A 
ATOM     14  C   UNL d   1      62.099  43.104  50.339  0.00  0.00     0.002 A 
ATOM     15  C   UNL d   1      62.749  43.911  49.238  0.00  0.00     0.003 A 
ATOM     16  C   UNL d   1      61.582  43.059  51.033  0.00  0.00     0.000 A 
ATOM     17  C   UNL d   1      61.186  43.781  51.337  0.00  0.00     0.002 A 
ATOM     18  C   UNL d   1      62.878  44.676  48.837  0.00  0.00     0.020 A 
ATOM     19  C   UNL d   1      62.483  45.404  49.137  0.00  0.00     0.092 A 
ENDBRANCH   7  10
ENDBRANCH   1   7
BRANCH   2  20
ATOM     20  C   UNL d   1      60.058  48.787  50.951  0.00  0.00     0.279 C 
ATOM     21  N   UNL d   1      59.289  48.900  50.732  0.00  0.00    -0.206 NA
ATOM     22  O   UNL d   1      60.434  49.353  51.370  0.00  0.00    -0.265 OA
BRANCH  21  23
ATOM     23  C   UNL d   1      58.908  49.574  50.935  0.00  0.00     0.102 C 
BRANCH  23  24
ATOM     24  C   UNL d   1      58.085  49.595  50.977  0.00  0.00     0.019 A 
ATOM     25  C   UNL d   1      57.646  49.600  50.282  0.00  0.00     0.002 A 
ATOM     26  C   UNL d   1      56.824  49.621  50.317  0.00  0.00     0.000 A 
ATOM     27  C   UNL d   1      56.436  49.638  51.058  0.00  0.00     0.000 A 
ATOM     28  C   UNL d   1      56.886  49.633  51.749  0.00  0.00     0.000 A 
ATOM     29  C   UNL d   1      57.713  49.611  51.710  0.00  0.00     0.002 A 
ENDBRANCH  23  24
ENDBRANCH  21  23
ENDBRANCH   2  20
TORSDOF 5
ENDMDL
MODEL 2
REMARK VINA RESULT:     109.3      1.319      5.990
REMARK  5 active torsions:
REMARK  status: ('A' for Active; 'I' for Inactive)
REMARK    1  A    between atoms: N_2  and  S_1 
REMARK    2  A    between atoms: C_4  and  S_1 
REMARK    3  A    between atoms: C_5  and  C_9 
REMARK       I    between atoms: N_8  and  C_5 
REMARK    4  A    between atoms: C_17  and  N_8 
REMARK    5  A    between atoms: C_18  and  C_17 
ROOT
ATOM      1  C   UNL d   1      61.308  46.752  50.470  0.00  0.00     0.104 A 
ATOM      2  C   UNL d   1      61.618  45.329  49.818  0.00  0.00     0.058 A 
ATOM      3  C   UNL d   1      61.104  46.084  50.863  0.00  0.00     0.013 A 
ATOM      4  C   UNL d   1      61.673  46.715  49.741  0.00  0.00     0.013 A 
ATOM      5  C   UNL d   1      61.259  45.371  50.535  0.00  0.00     0.005 A 
ATOM      6  C   UNL d   1      61.823  45.989  49.424  0.00  0.00     0.005 A 
ENDROOT
BRANCH   1   7
ATOM      7  S   UNL d   1      61.157  47.474  50.790  0.00  0.00     0.271 S 
ATOM      8  O   UNL d   1      61.689  47.814  50.311  0.00  0.00    -0.200 OA
ATOM      9  O   UNL d   1      60.539  47.006  51.329  0.00  0.00    -0.200 OA
BRANCH   7  10
ATOM     10  N   UNL d   1      60.931  48.219  51.192  0.00  0.00    -0.231 N 
ATOM     11  C   UNL d   1      60.156  48.585  51.004  0.00  0.00     0.075 A 
ATOM     12  C   UNL d   1      59.926  49.329  51.403  0.00  0.00     0.017 A 
ATOM     13  C   UNL d   1      59.613  48.229  50.434  0.00  0.00     0.018 A 
ATOM     14  C   UNL d   1      59.159  49.708  51.229  0.00  0.00     0.002 A 
ATOM     15  C   UNL d   1      60.467  49.707  51.987  0.00  0.00     0.003 A 
ATOM     16  C   UNL d   1      58.622  49.342  50.655  0.00  0.00     0.000 A 
ATOM     17  C   UNL d   1      58.848  48.596  50.252  0.00  0.00     0.002 A 
ATOM     18  C   UNL d   1      61.235  49.334  52.167  0.00  0.00     0.020 A 
ATOM     19  C   UNL d   1      61.468  48.585  51.766  0.00  0.00     0.092 A 
ENDBRANCH   7  10
ENDBRANCH   1   7
BRANCH   2  20
ATOM     20  C   UNL d   1      61.773  44.607  49.490  0.00  0.00     0.279 C 
ATOM     21  N   UNL d   1      62.335  44.129  49.818  0.00  0.00    -0.206 NA
ATOM     22  O   UNL d   1      61.376  44.361  48.843  0.00  0.00    -0.265 OA
BRANCH  21  23
ATOM     23  C   UNL d   1      62.491  43.414  49.496  0.00  0.00     0.102 C 
BRANCH  23  24
ATOM     24  C   UNL d   1      62.713  42.778  49.971  0.00  0.00     0.019 A 
ATOM     25  C   UNL d   1      62.908  42.913  50.758  0.00  0.00     0.002 A 
ATOM     26  C   UNL d   1      63.130  42.283  51.239  0.00  0.00     0.000 A 
ATOM     27  C   UNL d   1      63.157  41.506  50.927  0.00  0.00     0.000 A 
ATOM     28  C   UNL d   1      62.959  41.383  50.137  0.00  0.00     0.000 A 
ATOM     29  C   UNL d   1      62.736  42.019  49.655  0.00  0.00     0.002 A 
ENDBRANCH  23  24
ENDBRANCH  21  23
ENDBRANCH   2  20
TORSDOF 5
ENDMDL
