MODEL 1
REMARK VINA RESULT:      16.7      0.000      0.000
REMARK  3 active torsions:
REMARK  status: ('A' for Active; 'I' for Inactive)
REMARK    1  A    between atoms: C_7  and  N_1 
REMARK    2  A    between atoms: C_6  and  C_3 
REMARK    3  A    between atoms: O_16  and  C_13 
ROOT
ATOM      1  N   UNL d   1      46.259 -18.178  43.643  0.00  0.00    -0.273 N 
ATOM      2  C   UNL d   1      46.437 -18.817  44.134  0.00  0.00     0.265 A 
ATOM      3  C   UNL d   1      46.496 -18.994  42.493  0.00  0.00     0.087 A 
ATOM      4  C   UNL d   1      46.289 -18.266  42.823  0.00  0.00     0.089 A 
ATOM      5  C   UNL d   1      46.644 -19.545  43.805  0.00  0.00     0.069 A 
ATOM      6  O   UNL d   1      46.407 -18.729  44.954  0.00  0.00    -0.267 OA
ENDROOT
BRANCH   1   7
ATOM      7  C   UNL d   1      46.052 -17.450  43.972  0.00  0.00     0.067 A 
ATOM      8  C   UNL d   1      46.468 -16.773  43.759  0.00  0.00     0.020 A 
ATOM      9  C   UNL d   1      46.264 -16.054  44.084  0.00  0.00     0.026 A 
ATOM     10  C   UNL d   1      45.639 -15.999  44.628  0.00  0.00     0.094 A 
ATOM     11  C   UNL d   1      45.224 -16.681  44.839  0.00  0.00     0.026 A 
ATOM     12  C   UNL d   1      45.431 -17.408  44.510  0.00  0.00     0.020 A 
BRANCH  10  13
ATOM     13  O   UNL d   1      45.435 -15.269  44.954  0.00  0.00    -0.328 OA
ATOM     14  C   UNL d   1      45.344 -14.607  44.470  0.00  0.00     0.181 C 
ENDBRANCH  10  13
ENDBRANCH   1   7
BRANCH   3  15
ATOM     15  C   UNL d   1      46.590 -19.309  41.652  0.00  0.00     0.212 C 
ATOM     16  O   UNL d   1      46.642 -20.206  41.505  0.00  0.00    -0.644 OA
ATOM     17  O   UNL d   1      46.633 -18.733  40.948  0.00  0.00    -0.644 OA
ENDBRANCH   3  15
TORSDOF 3
ENDMDL
MODEL 2
REMARK VINA RESULT:      18.6      1.487      2.865
REMARK  3 active torsions:
REMARK  status: ('A' for Active; 'I' for Inactive)
REMARK    1  A    between atoms: C_7  and  N_1 
REMARK    2  A    between atoms: C_6  and  C_3 
REMARK    3  A    between atoms: O_16  and  C_13 
ROOT
ATOM      1  N   UNL d   1      45.474 -15.819  44.342  0.00  0.00    -0.273 N 
ATOM      2  C   UNL d   1      44.773 -16.120  44.658  0.00  0.00     0.265 A 
ATOM      3  C   UNL d   1      45.923 -17.148  44.067  0.00  0.00     0.087 A 
ATOM      4  C   UNL d   1      46.048 -16.333  44.046  0.00  0.00     0.089 A 
ATOM      5  C   UNL d   1      44.647 -16.935  44.679  0.00  0.00     0.069 A 
ATOM      6  O   UNL d   1      44.198 -15.606  44.953  0.00  0.00    -0.267 OA
ENDROOT
BRANCH   1   7
ATOM      7  C   UNL d   1      45.599 -15.003  44.321  0.00  0.00     0.067 A 
ATOM      8  C   UNL d   1      45.129 -14.530  43.839  0.00  0.00     0.020 A 
ATOM      9  C   UNL d   1      45.253 -13.725  43.818  0.00  0.00     0.026 A 
ATOM     10  C   UNL d   1      45.850 -13.378  44.279  0.00  0.00     0.094 A 
ATOM     11  C   UNL d   1      46.320 -13.856  44.761  0.00  0.00     0.026 A 
ATOM     12  C   UNL d   1      46.194 -14.670  44.782  0.00  0.00     0.020 A 
BRANCH  10  13
ATOM     13  O   UNL d   1      45.972 -12.563  44.255  0.00  0.00    -0.328 OA
ATOM     14  C   UNL d   1      45.998 -12.124  44.954  0.00  0.00     0.181 C 
ENDBRANCH  10  13
ENDBRANCH   1   7
BRANCH   3  15
ATOM     15  C   UNL d   1      46.397 -17.872  43.810  0.00  0.00     0.212 C 
ATOM     16  O   UNL d   1      46.647 -17.966  42.939  0.00  0.00    -0.644 OA
ATOM     17  O   UNL d   1      46.627 -18.510  44.417  0.00  0.00    -0.644 OA
ENDBRANCH   3  15
TORSDOF 3
ENDMDL
MODEL 3
REMARK VINA RESULT:      19.2      1.447      4.086
REMARK  3 active torsions:
REMARK  status: ('A' for Active; 'I' for Inactive)
REMARK    1  A    between atoms: C_7  and  N_1 
REMARK    2  A    between atoms: C_6  and  C_3 
REMARK    3  A    between atoms: O_16  and  C_13 
ROOT
ATOM      1  N   UNL d   1      45.535 -15.895  44.329  0.00  0.00    -0.273 N 
ATOM      2  C   UNL d   1      44.825 -15.821  44.743  0.00  0.00     0.265 A 
ATOM      3  C   UNL d   1      45.689 -14.474  44.337  0.00  0.00     0.087 A 
ATOM      4  C   UNL d   1      45.967 -15.222  44.126  0.00  0.00     0.089 A 
ATOM      5  C   UNL d   1      44.547 -15.073  44.955  0.00  0.00     0.069 A 
ATOM      6  O   UNL d   1      44.393 -16.495  44.947  0.00  0.00    -0.267 OA
ENDROOT
BRANCH   1   7
ATOM      7  C   UNL d   1      45.812 -16.643  44.117  0.00  0.00     0.067 A 
ATOM      8  C   UNL d   1      45.894 -16.838  43.322  0.00  0.00     0.020 A 
ATOM      9  C   UNL d   1      46.168 -17.576  43.113  0.00  0.00     0.026 A 
ATOM     10  C   UNL d   1      46.366 -18.133  43.696  0.00  0.00     0.094 A 
ATOM     11  C   UNL d   1      46.283 -17.934  44.493  0.00  0.00     0.026 A 
ATOM     12  C   UNL d   1      46.006 -17.187  44.704  0.00  0.00     0.020 A 
BRANCH  10  13
ATOM     13  O   UNL d   1      46.644 -18.880  43.479  0.00  0.00    -0.328 OA
ATOM     14  C   UNL d   1      46.480 -19.538  43.949  0.00  0.00     0.181 C 
ENDBRANCH  10  13
ENDBRANCH   1   7
BRANCH   3  15
ATOM     15  C   UNL d   1      45.986 -13.628  44.223  0.00  0.00     0.212 C 
ATOM     16  O   UNL d   1      45.629 -13.105  43.570  0.00  0.00    -0.644 OA
ATOM     17  O   UNL d   1      46.643 -13.297  44.760  0.00  0.00    -0.644 OA
ENDBRANCH   3  15
TORSDOF 3
ENDMDL
