MODEL 1
REMARK VINA RESULT:      -1.0      0.000      0.000
REMARK  4 active torsions:
REMARK  status: ('A' for Active; 'I' for Inactive)
REMARK       I    between atoms: N_2  and  C_1 
REMARK    1  A    between atoms: C_5  and  C_1 
REMARK    2  A    between atoms: C_8  and  N_2 
REMARK    3  A    between atoms: O_9  and  C_5 
REMARK    4  A    between atoms: C_11  and  O_9 
ROOT
ATOM      1  C   UNL d   1     -41.454-123.154 -53.328  0.00  0.00     0.290 C 
ATOM      2  N   UNL d   1     -41.535-123.151 -54.149  0.00  0.00    -0.270 N 
ATOM      3  O   UNL d   1     -41.128-123.815 -52.947  0.00  0.00    -0.264 OA
ATOM      4  C   UNL d   1     -41.288-123.817 -54.591  0.00  0.00     0.102 C 
ENDROOT
BRANCH   1   5
ATOM      5  C   UNL d   1     -41.694-122.504 -52.889  0.00  0.00     0.184 C 
BRANCH   5   6
ATOM      6  O   UNL d   1     -41.277-122.286 -52.207  0.00  0.00    -0.300 OA
BRANCH   6   7
ATOM      7  C   UNL d   1     -41.632-122.348 -51.455  0.00  0.00     0.100 A 
ATOM      8  C   UNL d   1     -41.321-122.861 -50.885  0.00  0.00     0.025 A 
ATOM      9  C   UNL d   1     -41.674-122.919 -50.146  0.00  0.00     0.013 A 
ATOM     10  C   UNL d   1     -41.367-123.425 -49.582  0.00  0.00     0.001 C 
ATOM     11  C   UNL d   1     -42.339-122.464 -49.974  0.00  0.00     0.058 A 
ATOM     12  C   UNL d   1     -42.648-121.953 -50.542  0.00  0.00     0.013 A 
ATOM     13 CL   UNL d   1     -42.692-122.522 -49.236  0.00  0.00    -0.082 Cl
ATOM     14  C   UNL d   1     -42.294-121.894 -51.286  0.00  0.00     0.026 A 
ENDBRANCH   6   7
ENDBRANCH   5   6
ENDBRANCH   1   5
BRANCH   2  15
ATOM     15  C   UNL d   1     -41.855-122.501 -54.523  0.00  0.00     0.067 A 
ATOM     16  C   UNL d   1     -41.400-122.098 -55.094  0.00  0.00     0.018 A 
ATOM     17  C   UNL d   1     -41.721-121.445 -55.470  0.00  0.00     0.002 A 
ATOM     18  C   UNL d   1     -42.492-121.187 -55.285  0.00  0.00     0.000 A 
ATOM     19  C   UNL d   1     -42.949-121.581 -54.721  0.00  0.00     0.002 A 
ATOM     20  C   UNL d   1     -42.620-122.249 -54.336  0.00  0.00     0.018 A 
ENDBRANCH   2  15
TORSDOF 4
ENDMDL
MODEL 2
REMARK VINA RESULT:       0.5      2.215      4.931
REMARK  4 active torsions:
REMARK  status: ('A' for Active; 'I' for Inactive)
REMARK       I    between atoms: N_2  and  C_1 
REMARK    1  A    between atoms: C_5  and  C_1 
REMARK    2  A    between atoms: C_8  and  N_2 
REMARK    3  A    between atoms: O_9  and  C_5 
REMARK    4  A    between atoms: C_11  and  O_9 
ROOT
ATOM      1  C   UNL d   1     -43.124-123.160 -49.737  0.00  0.00     0.290 C 
ATOM      2  N   UNL d   1     -43.210-123.385 -48.948  0.00  0.00    -0.270 N 
ATOM      3  O   UNL d   1     -43.742-123.290 -50.273  0.00  0.00    -0.264 OA
ATOM      4  C   UNL d   1     -43.924-123.743 -48.696  0.00  0.00     0.102 C 
ENDROOT
BRANCH   1   5
ATOM      5  C   UNL d   1     -42.427-122.809 -49.990  0.00  0.00     0.184 C 
BRANCH   5   6
ATOM      6  O   UNL d   1     -42.008-123.130 -50.629  0.00  0.00    -0.300 OA
BRANCH   6   7
ATOM      7  C   UNL d   1     -41.785-122.650 -51.273  0.00  0.00     0.100 A 
ATOM      8  C   UNL d   1     -41.667-122.980 -52.023  0.00  0.00     0.025 A 
ATOM      9  C   UNL d   1     -41.447-122.504 -52.654  0.00  0.00     0.013 A 
ATOM     10  C   UNL d   1     -41.330-122.831 -53.395  0.00  0.00     0.001 C 
ATOM     11  C   UNL d   1     -41.343-121.695 -52.538  0.00  0.00     0.058 A 
ATOM     12  C   UNL d   1     -41.460-121.366 -51.791  0.00  0.00     0.013 A 
ATOM     13 CL   UNL d   1     -41.123-121.219 -53.169  0.00  0.00    -0.082 Cl
ATOM     14  C   UNL d   1     -41.682-121.845 -51.156  0.00  0.00     0.026 A 
ENDBRANCH   6   7
ENDBRANCH   5   6
ENDBRANCH   1   5
BRANCH   2  15
ATOM     15  C   UNL d   1     -42.602-123.257 -48.420  0.00  0.00     0.067 A 
ATOM     16  C   UNL d   1     -42.599-122.557 -47.968  0.00  0.00     0.018 A 
ATOM     17  C   UNL d   1     -41.988-122.428 -47.438  0.00  0.00     0.002 A 
ATOM     18  C   UNL d   1     -41.377-122.990 -47.351  0.00  0.00     0.000 A 
ATOM     19  C   UNL d   1     -41.374-123.686 -47.795  0.00  0.00     0.002 A 
ATOM     20  C   UNL d   1     -41.999-123.817 -48.338  0.00  0.00     0.018 A 
ENDBRANCH   2  15
TORSDOF 4
ENDMDL
MODEL 3
REMARK VINA RESULT:       1.2      1.900      4.140
REMARK  4 active torsions:
REMARK  status: ('A' for Active; 'I' for Inactive)
REMARK       I    between atoms: N_2  and  C_1 
REMARK    1  A    between atoms: C_5  and  C_1 
REMARK    2  A    between atoms: C_8  and  N_2 
REMARK    3  A    between atoms: O_9  and  C_5 
REMARK    4  A    between atoms: C_11  and  O_9 
ROOT
ATOM      1  C   UNL d   1     -41.380-123.124 -52.450  0.00  0.00     0.290 C 
ATOM      2  N   UNL d   1     -41.429-123.099 -51.627  0.00  0.00    -0.270 N 
ATOM      3  O   UNL d   1     -41.125-123.816 -52.828  0.00  0.00    -0.264 OA
ATOM      4  C   UNL d   1     -41.219-123.774 -51.180  0.00  0.00     0.102 C 
ENDROOT
BRANCH   1   5
ATOM      5  C   UNL d   1     -41.585-122.465 -52.894  0.00  0.00     0.184 C 
BRANCH   5   6
ATOM      6  O   UNL d   1     -41.163-122.282 -53.584  0.00  0.00    -0.300 OA
BRANCH   6   7
ATOM      7  C   UNL d   1     -41.563-122.161 -54.306  0.00  0.00     0.100 A 
ATOM      8  C   UNL d   1     -42.368-121.970 -54.313  0.00  0.00     0.025 A 
ATOM      9  C   UNL d   1     -42.758-121.852 -55.026  0.00  0.00     0.013 A 
ATOM     10  C   UNL d   1     -43.554-121.663 -55.033  0.00  0.00     0.001 C 
ATOM     11  C   UNL d   1     -42.343-121.923 -55.734  0.00  0.00     0.058 A 
ATOM     12  C   UNL d   1     -41.542-122.113 -55.727  0.00  0.00     0.013 A 
ATOM     13 CL   UNL d   1     -42.733-121.805 -56.447  0.00  0.00    -0.082 Cl
ATOM     14  C   UNL d   1     -41.149-122.232 -55.010  0.00  0.00     0.026 A 
ENDBRANCH   6   7
ENDBRANCH   5   6
ENDBRANCH   1   5
BRANCH   2  15
ATOM     15  C   UNL d   1     -41.681-122.418 -51.256  0.00  0.00     0.067 A 
ATOM     16  C   UNL d   1     -42.477-122.359 -51.014  0.00  0.00     0.018 A 
ATOM     17  C   UNL d   1     -42.730-121.675 -50.641  0.00  0.00     0.002 A 
ATOM     18  C   UNL d   1     -42.200-121.046 -50.504  0.00  0.00     0.000 A 
ATOM     19  C   UNL d   1     -41.410-121.097 -50.741  0.00  0.00     0.002 A 
ATOM     20  C   UNL d   1     -41.151-121.797 -51.122  0.00  0.00     0.018 A 
ENDBRANCH   2  15
TORSDOF 4
ENDMDL
