MODEL 1
REMARK VINA RESULT:      -1.3      0.000      0.000
REMARK  6 active torsions:
REMARK  status: ('A' for Active; 'I' for Inactive)
REMARK    1  A    between atoms: N_8  and  C_1 
REMARK    2  A    between atoms: C_6  and  N_2 
REMARK       I    between atoms: C_12  and  N_8 
REMARK    3  A    between atoms: C_20  and  C_12 
REMARK    4  A    between atoms: O_24  and  C_13 
REMARK    5  A    between atoms: O_25  and  C_15 
REMARK    6  A    between atoms: C_19  and  C_20 
ROOT
ATOM      1  C   UNL d   1      58.631  -1.671  29.120  0.00  0.00     0.169 A 
ATOM      2  N   UNL d   1      59.434  -1.513  28.993  0.00  0.00    -0.212 N 
ATOM      3  C   UNL d   1      58.501  -2.484  28.997  0.00  0.00     0.065 A 
ATOM      4  N   UNL d   1      59.800  -2.228  28.790  0.00  0.00    -0.163 NA
ATOM      5  C   UNL d   1      59.225  -2.825  28.793  0.00  0.00     0.114 A 
ATOM      6  S   UNL d   1      58.304  -3.794  28.795  0.00  0.00     0.091 S 
ATOM      7  C   UNL d   1      59.107  -3.635  28.668  0.00  0.00     0.090 A 
ATOM      8  C   UNL d   1      57.932  -3.080  28.998  0.00  0.00     0.073 A 
ATOM      9  O   UNL d   1      57.935  -4.533  28.732  0.00  0.00    -0.247 OA
ENDROOT
BRANCH   1  10
ATOM     10  N   UNL d   1      58.051  -1.119  29.334  0.00  0.00    -0.189 NA
ATOM     11  C   UNL d   1      57.736  -1.118  30.090  0.00  0.00     0.281 C 
ATOM     12  O   UNL d   1      57.997  -1.677  30.654  0.00  0.00    -0.265 OA
BRANCH  11  13
ATOM     13  C   UNL d   1      57.159  -0.569  30.305  0.00  0.00     0.063 C 
BRANCH  13  14
ATOM     14  C   UNL d   1      57.043  -0.410  31.090  0.00  0.00     0.007 A 
ATOM     15  C   UNL d   1      56.853  -1.018  31.625  0.00  0.00     0.026 A 
ATOM     16  C   UNL d   1      56.736  -0.849  32.424  0.00  0.00     0.116 A 
ATOM     17  C   UNL d   1      56.811  -0.070  32.688  0.00  0.00     0.116 A 
ATOM     18  C   UNL d   1      56.998   0.536  32.170  0.00  0.00     0.026 A 
ATOM     19  C   UNL d   1      57.114   0.364  31.368  0.00  0.00     0.002 A 
BRANCH  16  20
ATOM     20  O   UNL d   1      56.549  -1.450  32.948  0.00  0.00    -0.326 OA
ATOM     21  C   UNL d   1      55.760  -1.618  33.119  0.00  0.00     0.181 C 
ENDBRANCH  16  20
BRANCH  17  22
ATOM     22  O   UNL d   1      56.695   0.099  33.487  0.00  0.00    -0.326 OA
ATOM     23  C   UNL d   1      57.164   0.659  33.868  0.00  0.00     0.181 C 
ENDBRANCH  17  22
ENDBRANCH  13  14
ENDBRANCH  11  13
ENDBRANCH   1  10
BRANCH   2  24
ATOM     24  C   UNL d   1      59.803  -0.778  29.055  0.00  0.00     0.085 A 
ATOM     25  C   UNL d   1      60.284  -0.620  29.701  0.00  0.00     0.018 A 
ATOM     26  C   UNL d   1      60.654   0.116  29.763  0.00  0.00     0.002 A 
ATOM     27  C   UNL d   1      60.397  -1.188  30.280  0.00  0.00     0.002 C 
ATOM     28  C   UNL d   1      61.133   0.277  30.403  0.00  0.00     0.000 C 
ATOM     29  C   UNL d   1      60.533   0.681  29.174  0.00  0.00     0.000 A 
ATOM     30  C   UNL d   1      60.050   0.508  28.536  0.00  0.00     0.002 A 
ATOM     31  C   UNL d   1      59.682  -0.213  28.466  0.00  0.00     0.019 A 
ENDBRANCH   2  24
TORSDOF 6
ENDMDL
MODEL 2
REMARK VINA RESULT:       0.1      1.373      2.789
REMARK  6 active torsions:
REMARK  status: ('A' for Active; 'I' for Inactive)
REMARK    1  A    between atoms: N_8  and  C_1 
REMARK    2  A    between atoms: C_6  and  N_2 
REMARK       I    between atoms: C_12  and  N_8 
REMARK    3  A    between atoms: C_20  and  C_12 
REMARK    4  A    between atoms: O_24  and  C_13 
REMARK    5  A    between atoms: O_25  and  C_15 
REMARK    6  A    between atoms: C_19  and  C_20 
ROOT
ATOM      1  C   UNL d   1      59.273  -1.617  29.421  0.00  0.00     0.169 A 
ATOM      2  N   UNL d   1      59.627  -2.256  29.032  0.00  0.00    -0.212 N 
ATOM      3  C   UNL d   1      59.839  -1.011  29.501  0.00  0.00     0.065 A 
ATOM      4  N   UNL d   1      60.412  -2.047  28.871  0.00  0.00    -0.163 NA
ATOM      5  C   UNL d   1      60.541  -1.280  29.161  0.00  0.00     0.114 A 
ATOM      6  S   UNL d   1      60.759  -0.046  29.623  0.00  0.00     0.091 S 
ATOM      7  C   UNL d   1      61.113  -0.685  29.235  0.00  0.00     0.090 A 
ATOM      8  C   UNL d   1      59.971  -0.251  29.786  0.00  0.00     0.073 A 
ATOM      9  O   UNL d   1      61.124   0.673  29.816  0.00  0.00    -0.247 OA
ENDROOT
BRANCH   1  10
ATOM     10  N   UNL d   1      58.489  -1.579  29.687  0.00  0.00    -0.189 NA
ATOM     11  C   UNL d   1      58.163  -0.867  29.925  0.00  0.00     0.281 C 
ATOM     12  O   UNL d   1      58.621  -0.167  29.901  0.00  0.00    -0.265 OA
BRANCH  11  13
ATOM     13  C   UNL d   1      57.383  -0.827  30.190  0.00  0.00     0.063 C 
BRANCH  13  14
ATOM     14  C   UNL d   1      57.237  -0.552  30.937  0.00  0.00     0.007 A 
ATOM     15  C   UNL d   1      56.981  -1.067  31.539  0.00  0.00     0.026 A 
ATOM     16  C   UNL d   1      56.834  -0.780  32.298  0.00  0.00     0.116 A 
ATOM     17  C   UNL d   1      56.943   0.023  32.456  0.00  0.00     0.116 A 
ATOM     18  C   UNL d   1      57.195   0.539  31.871  0.00  0.00     0.026 A 
ATOM     19  C   UNL d   1      57.342   0.248  31.109  0.00  0.00     0.002 A 
BRANCH  16  20
ATOM     20  O   UNL d   1      56.583  -1.289  32.889  0.00  0.00    -0.326 OA
ATOM     21  C   UNL d   1      55.879  -1.708  32.800  0.00  0.00     0.181 C 
ENDBRANCH  16  20
BRANCH  17  22
ATOM     22  O   UNL d   1      56.797   0.311  33.215  0.00  0.00    -0.326 OA
ATOM     23  C   UNL d   1      57.394   0.682  33.644  0.00  0.00     0.181 C 
ENDBRANCH  17  22
ENDBRANCH  13  14
ENDBRANCH  11  13
ENDBRANCH   1  10
BRANCH   2  24
ATOM     24  C   UNL d   1      59.266  -2.972  28.839  0.00  0.00     0.085 A 
ATOM     25  C   UNL d   1      59.720  -3.653  28.779  0.00  0.00     0.018 A 
ATOM     26  C   UNL d   1      59.358  -4.369  28.586  0.00  0.00     0.002 A 
ATOM     27  C   UNL d   1      60.528  -3.621  28.911  0.00  0.00     0.002 C 
ATOM     28  C   UNL d   1      59.807  -5.048  28.526  0.00  0.00     0.000 C 
ATOM     29  C   UNL d   1      58.544  -4.389  28.455  0.00  0.00     0.000 A 
ATOM     30  C   UNL d   1      58.104  -3.701  28.518  0.00  0.00     0.002 A 
ATOM     31  C   UNL d   1      58.451  -2.992  28.708  0.00  0.00     0.019 A 
ENDBRANCH   2  24
TORSDOF 6
ENDMDL
