MODEL 1
REMARK VINA RESULT:      69.7      0.000      0.000
REMARK  7 active torsions:
REMARK  status: ('A' for Active; 'I' for Inactive)
REMARK    1  A    between atoms: C_4  and  S_1 
REMARK    2  A    between atoms: N_6  and  S_1 
REMARK    3  A    between atoms: S_2  and  N_3 
REMARK    4  A    between atoms: C_8  and  S_2 
REMARK    5  A    between atoms: N_3  and  C_7 
REMARK    6  A    between atoms: C_20  and  N_13 
REMARK    7  A    between atoms: C_18  and  C_20 
ROOT
ATOM      1  C   UNL d   1      15.343  14.174  -0.600  0.00  0.00     0.105 A 
ATOM      2  C   UNL d   1      14.742  13.643  -0.788  0.00  0.00     0.029 A 
ATOM      3  C   UNL d   1      14.817  12.845  -0.593  0.00  0.00     0.076 A 
ATOM      4  C   UNL d   1      16.029  13.900  -0.210  0.00  0.00     0.013 A 
ATOM      5  C   UNL d   1      15.491  12.578  -0.210  0.00  0.00     0.017 A 
ATOM      6  C   UNL d   1      16.097  13.101  -0.018  0.00  0.00     0.002 A 
ATOM      7  C   UNL d   1      14.066  13.915  -1.173  0.00  0.00     0.002 C 
ATOM      8  C   UNL d   1      15.563  11.779  -0.016  0.00  0.00     0.002 C 
ENDROOT
BRANCH   1   9
ATOM      9  S   UNL d   1      15.268  14.972  -0.795  0.00  0.00     0.272 S 
ATOM     10  O   UNL d   1      15.134  15.529  -0.205  0.00  0.00    -0.200 OA
ATOM     11  O   UNL d   1      15.327  15.209  -1.584  0.00  0.00    -0.200 OA
BRANCH   9  12
ATOM     12  N   UNL d   1      15.194  15.769  -0.998  0.00  0.00    -0.226 N 
ATOM     13  C   UNL d   1      14.643  15.992  -1.563  0.00  0.00     0.111 A 
ATOM     14  C   UNL d   1      14.569  16.788  -1.766  0.00  0.00     0.100 A 
ATOM     15  N   UNL d   1      15.046  17.353  -1.402  0.00  0.00    -0.300 N 
ATOM     16  C   UNL d   1      15.596  17.121  -0.836  0.00  0.00     0.100 A 
ATOM     17  C   UNL d   1      15.671  16.325  -0.633  0.00  0.00     0.111 A 
BRANCH  15  18
ATOM     18  C   UNL d   1      14.966  18.147  -1.611  0.00  0.00     0.080 C 
BRANCH  18  19
ATOM     19  C   UNL d   1      14.693  18.358  -2.362  0.00  0.00     0.018 C 
ATOM     20  C   UNL d   1      15.188  18.277  -3.017  0.00  0.00     0.002 C 
ATOM     21  C   UNL d   1      13.928  18.648  -2.458  0.00  0.00     0.002 C 
ENDBRANCH  18  19
ENDBRANCH  15  18
ENDBRANCH   9  12
ENDBRANCH   1   9
BRANCH   3  22
ATOM     22  N   UNL d   1      14.212  12.322  -0.785  0.00  0.00    -0.229 N 
ATOM     23  C   UNL d   1      13.819  11.901  -0.187  0.00  0.00     0.111 C 
BRANCH  22  24
ATOM     24  S   UNL d   1      13.994  12.215  -1.573  0.00  0.00     0.271 S 
ATOM     25  O   UNL d   1      13.529  11.894  -0.969  0.00  0.00    -0.200 OA
ATOM     26  O   UNL d   1      14.676  12.642  -1.380  0.00  0.00    -0.200 OA
BRANCH  24  27
ATOM     27  C   UNL d   1      13.775  12.108  -2.361  0.00  0.00     0.104 A 
ATOM     28  C   UNL d   1      14.343  11.907  -2.924  0.00  0.00     0.013 A 
ATOM     29  C   UNL d   1      14.128  11.801  -3.700  0.00  0.00     0.001 A 
ATOM     30  C   UNL d   1      13.349  11.893  -3.928  0.00  0.00     0.000 A 
ATOM     31  C   UNL d   1      12.771  12.093  -3.377  0.00  0.00     0.001 A 
ATOM     32  C   UNL d   1      13.131  11.785  -4.717  0.00  0.00     0.000 C 
ATOM     33  C   UNL d   1      12.985  12.202  -2.587  0.00  0.00     0.013 A 
ENDBRANCH  24  27
ENDBRANCH  22  24
ENDBRANCH   3  22
TORSDOF 7
ENDMDL
