MODEL 1
REMARK VINA RESULT:      15.8      0.000      0.000
REMARK  1 active torsions:
REMARK  status: ('A' for Active; 'I' for Inactive)
REMARK    1  A    between atoms: N_4  and  C_1 
ROOT
ATOM      1  C   UNL d   1     -57.180 -98.786 -44.492  0.00  0.00     0.735 A 
ATOM      2  N   UNL d   1     -57.722 -98.786 -45.115  0.00  0.00    -0.059 NA
ATOM      3  N   UNL d   1     -57.607 -98.780 -43.782  0.00  0.00    -0.059 NA
ATOM      4  C   UNL d   1     -58.485 -98.781 -44.793  0.00  0.00     0.118 A 
ATOM      5  C   UNL d   1     -58.414 -98.777 -43.971  0.00  0.00     0.118 A 
ATOM      6  C   UNL d   1     -59.230 -98.779 -45.143  0.00  0.00     0.021 A 
ATOM      7  C   UNL d   1     -59.088 -98.772 -43.491  0.00  0.00     0.021 A 
ATOM      8  C   UNL d   1     -59.833 -98.770 -43.840  0.00  0.00     0.002 A 
ATOM      9  C   UNL d   1     -59.904 -98.773 -44.662  0.00  0.00     0.002 A 
ENDROOT
BRANCH   1  10
ATOM     10  N   UNL d   1     -56.357 -98.790 -44.554  0.00  0.00    -0.134 N 
ATOM     11  C   UNL d   1     -55.884 -98.828 -43.877  0.00  0.00     0.119 A 
ATOM     12  C   UNL d   1     -55.066 -98.831 -43.948  0.00  0.00     0.119 A 
ATOM     13  N   UNL d   1     -54.713 -98.797 -44.692  0.00  0.00    -0.239 NA
ATOM     14  C   UNL d   1     -55.185 -98.760 -45.370  0.00  0.00     0.119 A 
ATOM     15  C   UNL d   1     -56.011 -98.755 -45.307  0.00  0.00     0.119 A 
ENDBRANCH   1  10
TORSDOF 1
ENDMDL
MODEL 2
REMARK VINA RESULT:      16.2      0.793      3.539
REMARK  1 active torsions:
REMARK  status: ('A' for Active; 'I' for Inactive)
REMARK    1  A    between atoms: N_4  and  C_1 
ROOT
ATOM      1  C   UNL d   1     -57.441 -98.782 -44.285  0.00  0.00     0.735 A 
ATOM      2  N   UNL d   1     -56.848 -98.806 -43.711  0.00  0.00    -0.059 NA
ATOM      3  N   UNL d   1     -57.075 -98.759 -45.029  0.00  0.00    -0.059 NA
ATOM      4  C   UNL d   1     -56.115 -98.799 -44.096  0.00  0.00     0.118 A 
ATOM      5  C   UNL d   1     -56.255 -98.770 -44.909  0.00  0.00     0.118 A 
ATOM      6  C   UNL d   1     -55.343 -98.816 -43.810  0.00  0.00     0.021 A 
ATOM      7  C   UNL d   1     -55.624 -98.757 -45.443  0.00  0.00     0.021 A 
ATOM      8  C   UNL d   1     -54.852 -98.773 -45.159  0.00  0.00     0.002 A 
ATOM      9  C   UNL d   1     -54.712 -98.802 -44.346  0.00  0.00     0.002 A 
ENDROOT
BRANCH   1  10
ATOM     10  N   UNL d   1     -58.256 -98.779 -44.154  0.00  0.00    -0.134 N 
ATOM     11  C   UNL d   1     -58.558 -98.758 -43.385  0.00  0.00     0.119 A 
ATOM     12  C   UNL d   1     -59.370 -98.756 -43.263  0.00  0.00     0.119 A 
ATOM     13  N   UNL d   1     -59.887 -98.775 -43.905  0.00  0.00    -0.239 NA
ATOM     14  C   UNL d   1     -59.586 -98.796 -44.675  0.00  0.00     0.119 A 
ATOM     15  C   UNL d   1     -58.767 -98.799 -44.806  0.00  0.00     0.119 A 
ENDBRANCH   1  10
TORSDOF 1
ENDMDL
