MODEL 1
REMARK VINA RESULT:      11.9      0.000      0.000
REMARK  2 active torsions:
REMARK  status: ('A' for Active; 'I' for Inactive)
REMARK    1  A    between atoms: N_2  and  S_1 
REMARK    2  A    between atoms: C_3  and  S_1 
ROOT
ATOM      1  S   UNL d   1      14.006  12.435  -2.458  0.00  0.00     0.272 S 
ATOM      2  O   UNL d   1      14.484  13.090  -2.608  0.00  0.00    -0.200 OA
ATOM      3  O   UNL d   1      13.530  11.780  -2.304  0.00  0.00    -0.200 OA
ENDROOT
BRANCH   1   4
ATOM      4  N   UNL d   1      14.313  12.385  -1.694  0.00  0.00    -0.225 N 
ATOM      5  C   UNL d   1      15.034  12.880  -1.463  0.00  0.00     0.118 A 
ATOM      6  C   UNL d   1      15.372  12.825  -0.623  0.00  0.00     0.142 A 
ATOM      7  O   UNL d   1      14.988  12.275  -0.014  0.00  0.00    -0.300 OA
ATOM      8  C   UNL d   1      14.266  11.780  -0.246  0.00  0.00     0.142 A 
ATOM      9  C   UNL d   1      13.928  11.835  -1.086  0.00  0.00     0.118 A 
ENDBRANCH   1   4
BRANCH   1  10
ATOM     10  C   UNL d   1      13.696  12.481  -3.221  0.00  0.00     0.104 A 
ATOM     11  C   UNL d   1      13.500  13.214  -3.541  0.00  0.00     0.015 A 
ATOM     12  C   UNL d   1      13.188  13.266  -4.307  0.00  0.00     0.028 A 
ATOM     13  C   UNL d   1      12.990  13.998  -4.631  0.00  0.00     0.002 C 
ATOM     14  C   UNL d   1      13.078  12.576  -4.746  0.00  0.00     0.140 A 
ATOM     15  C   UNL d   1      13.276  11.844  -4.422  0.00  0.00     0.030 A 
ATOM     16  F   UNL d   1      12.769  12.618  -5.510  0.00  0.00    -0.204 F 
ATOM     17  C   UNL d   1      13.585  11.792  -3.660  0.00  0.00     0.015 A 
ENDBRANCH   1  10
TORSDOF 2
ENDMDL
MODEL 2
REMARK VINA RESULT:      14.3     10.064     10.553
REMARK  2 active torsions:
REMARK  status: ('A' for Active; 'I' for Inactive)
REMARK    1  A    between atoms: N_2  and  S_1 
REMARK    2  A    between atoms: C_3  and  S_1 
ROOT
ATOM      1  S   UNL d   1      24.311  12.535  -2.684  0.00  0.00     0.272 S 
ATOM      2  O   UNL d   1      23.853  11.850  -2.728  0.00  0.00    -0.200 OA
ATOM      3  O   UNL d   1      24.768  13.219  -2.634  0.00  0.00    -0.200 OA
ENDROOT
BRANCH   1   4
ATOM      4  N   UNL d   1      24.199  12.556  -1.867  0.00  0.00    -0.225 N 
ATOM      5  C   UNL d   1      24.731  12.066  -1.323  0.00  0.00     0.118 A 
ATOM      6  C   UNL d   1      24.608  12.090  -0.425  0.00  0.00     0.142 A 
ATOM      7  O   UNL d   1      23.954  12.604  -0.070  0.00  0.00    -0.300 OA
ATOM      8  C   UNL d   1      23.421  13.095  -0.614  0.00  0.00     0.142 A 
ATOM      9  C   UNL d   1      23.544  13.072  -1.513  0.00  0.00     0.118 A 
ENDBRANCH   1   4
BRANCH   1  10
ATOM     10  C   UNL d   1      24.425  12.516  -3.500  0.00  0.00     0.104 A 
ATOM     11  C   UNL d   1      24.532  13.218  -3.916  0.00  0.00     0.015 A 
ATOM     12  C   UNL d   1      24.647  13.205  -4.737  0.00  0.00     0.028 A 
ATOM     13  C   UNL d   1      24.755  13.907  -5.157  0.00  0.00     0.002 C 
ATOM     14  C   UNL d   1      24.653  12.481  -5.132  0.00  0.00     0.140 A 
ATOM     15  C   UNL d   1      24.545  11.780  -4.712  0.00  0.00     0.030 A 
ATOM     16  F   UNL d   1      24.767  12.458  -5.949  0.00  0.00    -0.204 F 
ATOM     17  C   UNL d   1      24.431  11.793  -3.896  0.00  0.00     0.015 A 
ENDBRANCH   1  10
TORSDOF 2
ENDMDL
