MODEL 1
REMARK VINA RESULT:      15.1      0.000      0.000
REMARK  5 active torsions:
REMARK  status: ('A' for Active; 'I' for Inactive)
REMARK    1  A    between atoms: C_6  and  C_1 
REMARK    2  A    between atoms: C_7  and  C_6 
REMARK    3  A    between atoms: C_9  and  C_19 
REMARK       I    between atoms: N_17  and  C_9 
REMARK    4  A    between atoms: O_20  and  C_18 
REMARK    5  A    between atoms: C_19  and  O_20 
ROOT
ATOM      1  C   UNL d   1      45.411 -14.104  44.693  0.00  0.00     0.141 A 
ATOM      2  C   UNL d   1      45.045 -15.385  44.753  0.00  0.00     0.064 A 
ATOM      3  C   UNL d   1      44.768 -14.606  44.808  0.00  0.00     0.220 A 
ATOM      4  C   UNL d   1      45.861 -15.356  44.603  0.00  0.00     0.105 A 
ATOM      5  O   UNL d   1      46.086 -14.559  44.566  0.00  0.00    -0.304 OA
ATOM      6  C   UNL d   1      46.283 -16.059  44.521  0.00  0.00     0.050 A 
ATOM      7  C   UNL d   1      44.661 -16.117  44.819  0.00  0.00     0.007 A 
ATOM      8  O   UNL d   1      43.990 -14.379  44.953  0.00  0.00    -0.284 OA
ATOM      9  C   UNL d   1      45.899 -16.786  44.587  0.00  0.00     0.102 A 
ATOM     10  C   UNL d   1      45.093 -16.815  44.736  0.00  0.00     0.025 A 
ENDROOT
BRANCH   1  11
ATOM     11  C   UNL d   1      45.383 -13.275  44.703  0.00  0.00     0.053 C 
BRANCH  11  12
ATOM     12  C   UNL d   1      45.449 -12.849  43.994  0.00  0.00     0.102 A 
ATOM     13  O   UNL d   1      44.863 -12.787  43.416  0.00  0.00    -0.307 OA
ATOM     14  C   UNL d   1      45.162 -12.316  42.813  0.00  0.00     0.100 A 
ATOM     15  C   UNL d   1      44.764 -12.104  42.117  0.00  0.00     0.027 C 
ATOM     16  C   UNL d   1      45.929 -12.085  43.012  0.00  0.00     0.027 A 
ATOM     17  C   UNL d   1      46.103 -12.422  43.753  0.00  0.00     0.027 A 
ENDBRANCH  11  12
ENDBRANCH   1  11
BRANCH   9  18
ATOM     18  O   UNL d   1      46.331 -17.489  44.504  0.00  0.00    -0.300 OA
BRANCH  18  19
ATOM     19  C   UNL d   1      46.202 -17.976  43.862  0.00  0.00     0.187 C 
BRANCH  19  20
ATOM     20  C   UNL d   1      46.422 -18.771  43.896  0.00  0.00     0.323 C 
ATOM     21  O   UNL d   1      46.647 -19.107  44.609  0.00  0.00    -0.261 OA
ATOM     22  N   UNL d   1      46.416 -19.229  43.205  0.00  0.00    -0.083 NA
ATOM     23  N   UNL d   1      46.638 -20.029  43.235  0.00  0.00    -0.019 N 
ENDBRANCH  19  20
ENDBRANCH  18  19
ENDBRANCH   9  18
TORSDOF 5
ENDMDL
