MODEL 1
REMARK VINA RESULT:      45.7      0.000      0.000
REMARK  3 active torsions:
REMARK  status: ('A' for Active; 'I' for Inactive)
REMARK    1  A    between atoms: C_7  and  N_1 
REMARK    2  A    between atoms: C_13  and  C_7 
REMARK    3  A    between atoms: O_18  and  C_10 
ROOT
ATOM      1  N   UNL d   1     -50.787  25.922  33.308  0.00  0.00    -0.226 N 
ATOM      2  C   UNL d   1     -51.416  26.396  33.308  0.00  0.00     0.343 A 
ATOM      3  N   UNL d   1     -52.189  25.937  33.308  0.00  0.00    -0.241 N 
ATOM      4  C   UNL d   1     -50.919  25.176  33.309  0.00  0.00     0.273 A 
ATOM      5  C   UNL d   1     -52.120  25.205  33.308  0.00  0.00     0.158 A 
ATOM      6  C   UNL d   1     -51.437  24.735  33.309  0.00  0.00     0.113 A 
ATOM      7  N   UNL d   1     -52.867  24.850  33.309  0.00  0.00    -0.226 NA
ATOM      8  O   UNL d   1     -51.537  26.937  33.307  0.00  0.00    -0.245 OA
ATOM      9  C   UNL d   1     -51.502  23.910  33.309  0.00  0.00     0.103 A 
ATOM     10  O   UNL d   1     -50.463  24.902  33.309  0.00  0.00    -0.266 OA
ATOM     11  C   UNL d   1     -52.848  26.316  33.308  0.00  0.00     0.105 C 
ATOM     12  C   UNL d   1     -52.931  24.026  33.309  0.00  0.00     0.103 A 
ATOM     13  C   UNL d   1     -52.248  23.556  33.310  0.00  0.00     0.045 A 
ENDROOT
BRANCH   1  14
ATOM     14  C   UNL d   1     -50.022  26.229  33.308  0.00  0.00     0.087 C 
BRANCH  14  15
ATOM     15  C   UNL d   1     -49.771  26.730  33.908  0.00  0.00     0.018 A 
ATOM     16  C   UNL d   1     -49.202  27.326  33.747  0.00  0.00     0.002 A 
ATOM     17  C   UNL d   1     -48.947  27.827  34.335  0.00  0.00     0.011 A 
ATOM     18  C   UNL d   1     -49.250  27.745  35.088  0.00  0.00     0.058 A 
ATOM     19  C   UNL d   1     -49.812  27.160  35.258  0.00  0.00     0.011 A 
ATOM     20 CL   UNL d   1     -48.994  28.252  35.686  0.00  0.00    -0.082 Cl
ATOM     21  C   UNL d   1     -50.069  26.659  34.675  0.00  0.00     0.002 A 
ENDBRANCH  14  15
ENDBRANCH   1  14
BRANCH   9  22
ATOM     22  O   UNL d   1     -50.730  23.409  33.310  0.00  0.00    -0.328 OA
ATOM     23  C   UNL d   1     -50.293  23.310  34.002  0.00  0.00     0.181 C 
ENDBRANCH   9  22
TORSDOF 3
ENDMDL
