MODEL 1
REMARK VINA RESULT:      32.6      0.000      0.000
REMARK  3 active torsions:
REMARK  status: ('A' for Active; 'I' for Inactive)
REMARK    1  A    between atoms: C_2  and  S_1 
REMARK    2  A    between atoms: N_3  and  S_1 
REMARK    3  A    between atoms: C_12  and  N_3 
ROOT
ATOM      1  S   UNL d   1     -56.665 -98.831 -44.588  0.00  0.00     0.285 S 
ATOM      2  O   UNL d   1     -56.683 -98.906 -45.335  0.00  0.00    -0.198 OA
ATOM      3  O   UNL d   1     -56.440 -98.758 -43.850  0.00  0.00    -0.198 OA
ENDROOT
BRANCH   1   4
ATOM      4  C   UNL d   1     -57.483 -98.807 -44.422  0.00  0.00     0.105 A 
ATOM      5  C   UNL d   1     -57.747 -98.797 -43.636  0.00  0.00     0.012 A 
ATOM      6  C   UNL d   1     -58.557 -98.774 -43.472  0.00  0.00     0.001 A 
ATOM      7  C   UNL d   1     -57.180 -98.812 -43.015  0.00  0.00     0.001 C 
ATOM      8  C   UNL d   1     -59.098 -98.760 -44.093  0.00  0.00     0.000 A 
ATOM      9  C   UNL d   1     -58.844 -98.770 -44.886  0.00  0.00     0.001 A 
ATOM     10  C   UNL d   1     -58.034 -98.793 -45.050  0.00  0.00     0.013 A 
ATOM     11  C   UNL d   1     -59.400 -98.756 -45.510  0.00  0.00     0.000 C 
ENDBRANCH   1   4
BRANCH   1  12
ATOM     12  N   UNL d   1     -55.952 -98.859 -44.805  0.00  0.00    -0.158 NA
BRANCH  12  13
ATOM     13  C   UNL d   1     -55.652 -99.434 -44.563  0.00  0.00     0.095 A 
ATOM     14  C   UNL d   1     -55.631-100.003 -44.959  0.00  0.00     0.040 A 
ATOM     15  C   UNL d   1     -55.334-100.563 -44.709  0.00  0.00     0.089 A 
ATOM     16  N   UNL d   1     -55.242-101.187 -44.984  0.00  0.00    -0.236 NA
ATOM     17  C   UNL d   1     -55.059-100.575 -44.083  0.00  0.00     0.049 A 
ATOM     18  C   UNL d   1     -54.909-101.576 -44.517  0.00  0.00     0.135 A 
ATOM     19  S   UNL d   1     -54.801-101.196 -43.971  0.00  0.00    -0.064 SA
ATOM     20  C   UNL d   1     -55.086 -99.998 -43.695  0.00  0.00     0.010 A 
ATOM     21  C   UNL d   1     -55.384 -99.425 -43.935  0.00  0.00     0.021 A 
ENDBRANCH  12  13
ENDBRANCH   1  12
TORSDOF 3
ENDMDL
