MODEL 1
REMARK VINA RESULT:      20.7      0.000      0.000
REMARK  3 active torsions:
REMARK  status: ('A' for Active; 'I' for Inactive)
REMARK    1  A    between atoms: C_3  and  C_1 
REMARK       I    between atoms: N_4  and  C_1 
REMARK    2  A    between atoms: N_2  and  C_7 
REMARK    3  A    between atoms: C_16  and  N_4 
ROOT
ATOM      1  C   UNL d   1      45.895 -16.633  44.462  0.00  0.00     0.064 A 
ATOM      2  C   UNL d   1      45.447 -17.136  44.944  0.00  0.00     0.019 A 
ATOM      3  C   UNL d   1      46.494 -16.961  43.986  0.00  0.00     0.019 A 
ATOM      4  C   UNL d   1      46.185 -18.268  44.479  0.00  0.00     0.085 A 
ATOM      5  C   UNL d   1      45.591 -17.950  44.953  0.00  0.00     0.021 A 
ATOM      6  C   UNL d   1      46.638 -17.775  43.995  0.00  0.00     0.021 A 
ENDROOT
BRANCH   4   7
ATOM      7  N   UNL d   1      46.328 -19.081  44.488  0.00  0.00    -0.208 NA
ATOM      8  C   UNL d   1      46.275 -19.516  43.799  0.00  0.00     0.285 C 
ATOM      9  O   UNL d   1      46.419 -20.329  43.808  0.00  0.00    -0.265 OA
BRANCH   8  10
ATOM     10  C   UNL d   1      46.078 -19.140  43.094  0.00  0.00     0.087 A 
ATOM     11  S   UNL d   1      45.387 -18.786  42.829  0.00  0.00    -0.082 SA
ATOM     12  C   UNL d   1      45.511 -18.500  42.075  0.00  0.00     0.036 A 
ATOM     13  C   UNL d   1      46.291 -18.674  41.857  0.00  0.00     0.008 A 
ATOM     14  C   UNL d   1      46.638 -19.071  42.492  0.00  0.00     0.012 A 
ENDBRANCH   8  10
ENDBRANCH   4   7
BRANCH   1  15
ATOM     15  N   UNL d   1      45.752 -15.819  44.453  0.00  0.00    -0.301 N 
ATOM     16  C   UNL d   1      45.184 -15.496  44.944  0.00  0.00     0.100 A 
ATOM     17  C   UNL d   1      45.041 -14.684  44.935  0.00  0.00     0.100 A 
ATOM     18  N   UNL d   1      45.464 -14.195  44.436  0.00  0.00    -0.299 N 
ATOM     19  C   UNL d   1      46.037 -14.518  43.940  0.00  0.00     0.100 A 
ATOM     20  C   UNL d   1      45.321 -13.383  44.428  0.00  0.00     0.100 C 
ATOM     21  C   UNL d   1      46.181 -15.330  43.949  0.00  0.00     0.100 A 
ENDBRANCH   1  15
TORSDOF 3
ENDMDL
MODEL 2
REMARK VINA RESULT:      23.5      2.370      4.605
REMARK  3 active torsions:
REMARK  status: ('A' for Active; 'I' for Inactive)
REMARK    1  A    between atoms: C_3  and  C_1 
REMARK       I    between atoms: N_4  and  C_1 
REMARK    2  A    between atoms: N_2  and  C_7 
REMARK    3  A    between atoms: C_16  and  N_4 
ROOT
ATOM      1  C   UNL d   1      46.000 -15.809  44.178  0.00  0.00     0.064 A 
ATOM      2  C   UNL d   1      45.409 -15.512  44.678  0.00  0.00     0.019 A 
ATOM      3  C   UNL d   1      46.616 -15.302  43.940  0.00  0.00     0.019 A 
ATOM      4  C   UNL d   1      46.043 -14.232  44.697  0.00  0.00     0.085 A 
ATOM      5  C   UNL d   1      45.430 -14.728  44.936  0.00  0.00     0.021 A 
ATOM      6  C   UNL d   1      46.637 -14.518  44.198  0.00  0.00     0.021 A 
ENDROOT
BRANCH   4   7
ATOM      7  N   UNL d   1      46.065 -13.449  44.955  0.00  0.00    -0.208 NA
ATOM      8  C   UNL d   1      45.682 -12.865  44.531  0.00  0.00     0.285 C 
ATOM      9  O   UNL d   1      45.704 -12.080  44.789  0.00  0.00    -0.265 OA
BRANCH   8  10
ATOM     10  C   UNL d   1      45.273 -13.061  43.844  0.00  0.00     0.087 A 
ATOM     11  S   UNL d   1      44.601 -13.510  43.708  0.00  0.00    -0.082 SA
ATOM     12  C   UNL d   1      44.447 -13.516  42.907  0.00  0.00     0.036 A 
ATOM     13  C   UNL d   1      45.029 -13.064  42.528  0.00  0.00     0.008 A 
ATOM     14  C   UNL d   1      45.538 -12.784  43.113  0.00  0.00     0.012 A 
ENDBRANCH   8  10
ENDBRANCH   4   7
BRANCH   1  15
ATOM     15  N   UNL d   1      45.978 -16.593  43.920  0.00  0.00    -0.301 N 
ATOM     16  C   UNL d   1      46.128 -16.774  43.138  0.00  0.00     0.100 A 
ATOM     17  C   UNL d   1      46.107 -17.557  42.880  0.00  0.00     0.100 A 
ATOM     18  N   UNL d   1      45.935 -18.160  43.404  0.00  0.00    -0.299 N 
ATOM     19  C   UNL d   1      45.783 -17.981  44.194  0.00  0.00     0.100 A 
ATOM     20  C   UNL d   1      45.913 -18.943  43.146  0.00  0.00     0.100 C 
ATOM     21  C   UNL d   1      45.804 -17.198  44.452  0.00  0.00     0.100 A 
ENDBRANCH   1  15
TORSDOF 3
ENDMDL
