MODEL 1
REMARK VINA RESULT:      31.3      0.000      0.000
REMARK  3 active torsions:
REMARK  status: ('A' for Active; 'I' for Inactive)
REMARK    1  A    between atoms: C_10  and  C_3 
REMARK    2  A    between atoms: O_13  and  C_10 
REMARK    3  A    between atoms: C_12  and  O_13 
ROOT
ATOM      1  C   UNL d   1     -53.085  24.563  33.389  0.00  0.00     0.002 A 
ATOM      2  C   UNL d   1     -52.483  25.123  33.325  0.00  0.00     0.025 A 
ATOM      3  C   UNL d   1     -52.892  23.758  33.501  0.00  0.00     0.000 A 
ATOM      4  C   UNL d   1     -52.100  23.525  33.547  0.00  0.00     0.002 A 
ATOM      5  C   UNL d   1     -51.696  24.894  33.371  0.00  0.00     0.100 A 
ATOM      6  C   UNL d   1     -51.503  24.088  33.483  0.00  0.00     0.025 A 
ATOM      7  C   UNL d   1     -53.870  24.788  33.345  0.00  0.00     0.000 A 
ATOM      8  C   UNL d   1     -53.488  23.195  33.566  0.00  0.00     0.000 A 
ATOM      9  C   UNL d   1     -54.474  24.233  33.408  0.00  0.00     0.000 A 
ATOM     10  C   UNL d   1     -54.280  23.427  33.520  0.00  0.00     0.000 A 
ENDROOT
BRANCH   5  11
ATOM     11  O   UNL d   1     -51.090  25.454  33.307  0.00  0.00    -0.304 OA
BRANCH  11  12
ATOM     12  C   UNL d   1     -51.280  26.263  33.334  0.00  0.00     0.142 C 
BRANCH  12  13
ATOM     13  C   UNL d   1     -50.695  26.820  33.502  0.00  0.00     0.115 A 
ATOM     14  N   UNL d   1     -49.974  26.677  33.879  0.00  0.00    -0.217 NA
ATOM     15  C   UNL d   1     -49.565  27.393  33.930  0.00  0.00     0.215 A 
ATOM     16  S   UNL d   1     -50.038  27.980  33.581  0.00  0.00    -0.045 SA
ATOM     17  N   UNL d   1     -48.821  27.499  34.268  0.00  0.00    -0.120 N 
ATOM     18  C   UNL d   1     -50.735  27.630  33.316  0.00  0.00     0.060 A 
ENDBRANCH  12  13
ENDBRANCH  11  12
ENDBRANCH   5  11
TORSDOF 3
ENDMDL
