MODEL 1
REMARK VINA RESULT:      -8.9      0.000      0.000
REMARK  7 active torsions:
REMARK  status: ('A' for Active; 'I' for Inactive)
REMARK    1  A    between atoms: N_2  and  S_1 
REMARK    2  A    between atoms: C_6  and  S_1 
REMARK    3  A    between atoms: C_16  and  C_3 
REMARK       I    between atoms: C_4  and  N_10 
REMARK    4  A    between atoms: C_5  and  C_4 
REMARK       I    between atoms: N_11  and  C_5 
REMARK    5  A    between atoms: N_10  and  C_16 
REMARK    6  A    between atoms: C_26  and  N_11 
REMARK    7  A    between atoms: C_25  and  C_26 
ROOT
ATOM      1  C   UNL d   1      50.271  34.249  52.875  0.00  0.00     0.337 C 
ATOM      2  N   UNL d   1      51.041  34.517  52.932  0.00  0.00    -0.199 NA
ATOM      3  O   UNL d   1      50.072  33.488  53.120  0.00  0.00    -0.260 OA
ENDROOT
BRANCH   2   4
ATOM      4  C   UNL d   1      51.624  34.024  53.237  0.00  0.00     0.146 C 
BRANCH   4   5
ATOM      5  C   UNL d   1      52.353  34.330  53.467  0.00  0.00     0.197 A 
ATOM      6  N   UNL d   1      53.025  33.894  53.628  0.00  0.00    -0.207 N 
ATOM      7  C   UNL d   1      53.622  34.428  53.837  0.00  0.00     0.120 A 
ATOM      8  C   UNL d   1      53.312  35.197  53.803  0.00  0.00     0.144 A 
ATOM      9  O   UNL d   1      52.514  35.130  53.570  0.00  0.00    -0.285 OA
BRANCH   6  10
ATOM     10  S   UNL d   1      53.099  33.079  53.591  0.00  0.00     0.273 S 
ATOM     11  O   UNL d   1      53.263  33.129  52.790  0.00  0.00    -0.200 OA
ATOM     12  O   UNL d   1      52.936  33.028  54.392  0.00  0.00    -0.200 OA
BRANCH  10  13
ATOM     13  C   UNL d   1      53.174  32.263  53.555  0.00  0.00     0.104 A 
ATOM     14  C   UNL d   1      53.560  31.853  54.172  0.00  0.00     0.013 A 
ATOM     15  C   UNL d   1      53.635  31.037  54.136  0.00  0.00     0.007 A 
ATOM     16  C   UNL d   1      53.325  30.618  53.486  0.00  0.00     0.035 A 
ATOM     17  C   UNL d   1      52.944  31.029  52.880  0.00  0.00     0.007 A 
ATOM     18 BR   UNL d   1      53.398  29.800  53.447  0.00  0.00    -0.049 Br
ATOM     19  C   UNL d   1      52.870  31.845  52.916  0.00  0.00     0.013 A 
ENDBRANCH  10  13
ENDBRANCH   6  10
ENDBRANCH   4   5
ENDBRANCH   2   4
BRANCH   1  20
ATOM     20  C   UNL d   1      49.688  34.742  52.571  0.00  0.00     0.337 C 
ATOM     21  N   UNL d   1      49.189  35.135  53.089  0.00  0.00    -0.202 NA
ATOM     22  O   UNL d   1      49.612  34.835  51.759  0.00  0.00    -0.260 OA
BRANCH  21  23
ATOM     23  C   UNL d   1      48.596  35.637  52.785  0.00  0.00     0.102 C 
BRANCH  23  24
ATOM     24  C   UNL d   1      48.003  35.928  53.281  0.00  0.00     0.021 A 
ATOM     25  C   UNL d   1      47.219  35.748  53.118  0.00  0.00     0.028 A 
ATOM     26  C   UNL d   1      46.624  36.042  53.618  0.00  0.00     0.119 A 
ATOM     27  O   UNL d   1      45.804  35.955  53.594  0.00  0.00    -0.300 OA
ATOM     28  C   UNL d   1      46.819  36.509  54.273  0.00  0.00     0.119 A 
ATOM     29  C   UNL d   1      45.489  36.377  54.246  0.00  0.00     0.304 A 
ATOM     30  O   UNL d   1      46.127  36.709  54.650  0.00  0.00    -0.300 OA
ATOM     31  C   UNL d   1      47.612  36.680  54.424  0.00  0.00     0.026 A 
ATOM     32  C   UNL d   1      48.202  36.393  53.934  0.00  0.00     0.004 A 
ENDBRANCH  23  24
ENDBRANCH  21  23
ENDBRANCH   1  20
TORSDOF 7
ENDMDL
MODEL 2
REMARK VINA RESULT:      -8.7      1.563      2.290
REMARK  7 active torsions:
REMARK  status: ('A' for Active; 'I' for Inactive)
REMARK    1  A    between atoms: N_2  and  S_1 
REMARK    2  A    between atoms: C_6  and  S_1 
REMARK    3  A    between atoms: C_16  and  C_3 
REMARK       I    between atoms: C_4  and  N_10 
REMARK    4  A    between atoms: C_5  and  C_4 
REMARK       I    between atoms: N_11  and  C_5 
REMARK    5  A    between atoms: N_10  and  C_16 
REMARK    6  A    between atoms: C_26  and  N_11 
REMARK    7  A    between atoms: C_25  and  C_26 
ROOT
ATOM      1  C   UNL d   1      51.213  34.034  52.604  0.00  0.00     0.337 C 
ATOM      2  N   UNL d   1      51.491  33.266  52.556  0.00  0.00    -0.199 NA
ATOM      3  O   UNL d   1      51.571  34.581  53.106  0.00  0.00    -0.260 OA
ENDROOT
BRANCH   2   4
ATOM      4  C   UNL d   1      52.134  33.036  53.013  0.00  0.00     0.146 C 
BRANCH   4   5
ATOM      5  C   UNL d   1      52.405  32.259  52.995  0.00  0.00     0.197 A 
ATOM      6  N   UNL d   1      53.080  31.978  53.359  0.00  0.00    -0.207 N 
ATOM      7  C   UNL d   1      53.133  31.169  53.192  0.00  0.00     0.120 A 
ATOM      8  C   UNL d   1      52.484  30.954  52.722  0.00  0.00     0.144 A 
ATOM      9  O   UNL d   1      52.029  31.642  52.600  0.00  0.00    -0.285 OA
BRANCH   6  10
ATOM     10  S   UNL d   1      53.610  32.413  53.807  0.00  0.00     0.273 S 
ATOM     11  O   UNL d   1      54.032  32.599  53.130  0.00  0.00    -0.200 OA
ATOM     12  O   UNL d   1      53.189  32.228  54.485  0.00  0.00    -0.200 OA
BRANCH  10  13
ATOM     13  C   UNL d   1      54.140  32.848  54.256  0.00  0.00     0.104 A 
ATOM     14  C   UNL d   1      54.030  32.915  55.082  0.00  0.00     0.013 A 
ATOM     15  C   UNL d   1      54.560  33.350  55.531  0.00  0.00     0.007 A 
ATOM     16  C   UNL d   1      55.207  33.726  55.166  0.00  0.00     0.035 A 
ATOM     17  C   UNL d   1      55.311  33.657  54.349  0.00  0.00     0.007 A 
ATOM     18 BR   UNL d   1      55.741  34.163  55.613  0.00  0.00    -0.049 Br
ATOM     19  C   UNL d   1      54.781  33.221  53.900  0.00  0.00     0.013 A 
ENDBRANCH  10  13
ENDBRANCH   6  10
ENDBRANCH   4   5
ENDBRANCH   2   4
BRANCH   1  20
ATOM     20  C   UNL d   1      50.569  34.264  52.147  0.00  0.00     0.337 C 
ATOM     21  N   UNL d   1      49.925  34.613  52.515  0.00  0.00    -0.202 NA
ATOM     22  O   UNL d   1      50.578  34.144  51.336  0.00  0.00    -0.260 OA
BRANCH  21  23
ATOM     23  C   UNL d   1      49.269  34.848  52.056  0.00  0.00     0.102 C 
BRANCH  23  24
ATOM     24  C   UNL d   1      48.669  35.305  52.392  0.00  0.00     0.021 A 
ATOM     25  C   UNL d   1      48.022  35.519  51.933  0.00  0.00     0.028 A 
ATOM     26  C   UNL d   1      47.420  35.978  52.274  0.00  0.00     0.119 A 
ATOM     27  O   UNL d   1      46.718  36.272  51.955  0.00  0.00    -0.300 OA
ATOM     28  C   UNL d   1      47.469  36.218  53.064  0.00  0.00     0.119 A 
ATOM     29  C   UNL d   1      46.328  36.700  52.562  0.00  0.00     0.304 A 
ATOM     30  O   UNL d   1      46.804  36.655  53.234  0.00  0.00    -0.300 OA
ATOM     31  C   UNL d   1      48.125  35.994  53.512  0.00  0.00     0.026 A 
ATOM     32  C   UNL d   1      48.723  35.541  53.182  0.00  0.00     0.004 A 
ENDBRANCH  23  24
ENDBRANCH  21  23
ENDBRANCH   1  20
TORSDOF 7
ENDMDL
MODEL 3
REMARK VINA RESULT:      -7.6      2.878      6.894
REMARK  7 active torsions:
REMARK  status: ('A' for Active; 'I' for Inactive)
REMARK    1  A    between atoms: N_2  and  S_1 
REMARK    2  A    between atoms: C_6  and  S_1 
REMARK    3  A    between atoms: C_16  and  C_3 
REMARK       I    between atoms: C_4  and  N_10 
REMARK    4  A    between atoms: C_5  and  C_4 
REMARK       I    between atoms: N_11  and  C_5 
REMARK    5  A    between atoms: N_10  and  C_16 
REMARK    6  A    between atoms: C_26  and  N_11 
REMARK    7  A    between atoms: C_25  and  C_26 
ROOT
ATOM      1  C   UNL d   1      48.625  35.161  52.376  0.00  0.00     0.337 C 
ATOM      2  N   UNL d   1      47.947  35.175  51.919  0.00  0.00    -0.199 NA
ATOM      3  O   UNL d   1      48.637  35.515  53.120  0.00  0.00    -0.260 OA
ENDROOT
BRANCH   2   4
ATOM      4  C   UNL d   1      47.270  35.544  52.203  0.00  0.00     0.146 C 
BRANCH   4   5
ATOM      5  C   UNL d   1      46.590  35.586  51.741  0.00  0.00     0.197 A 
ATOM      6  N   UNL d   1      45.830  35.699  52.017  0.00  0.00    -0.207 N 
ATOM      7  C   UNL d   1      45.326  35.704  51.361  0.00  0.00     0.120 A 
ATOM      8  C   UNL d   1      45.783  35.593  50.677  0.00  0.00     0.144 A 
ATOM      9  O   UNL d   1      46.577  35.519  50.921  0.00  0.00    -0.285 OA
BRANCH   6  10
ATOM     10  S   UNL d   1      45.603  35.791  52.799  0.00  0.00     0.273 S 
ATOM     11  O   UNL d   1      45.734  36.598  52.743  0.00  0.00    -0.200 OA
ATOM     12  O   UNL d   1      45.471  34.984  52.856  0.00  0.00    -0.200 OA
BRANCH  10  13
ATOM     13  C   UNL d   1      45.376  35.882  53.581  0.00  0.00     0.104 A 
ATOM     14  C   UNL d   1      45.481  36.618  53.963  0.00  0.00     0.013 A 
ATOM     15  C   UNL d   1      45.253  36.709  54.745  0.00  0.00     0.007 A 
ATOM     16  C   UNL d   1      44.918  36.070  55.160  0.00  0.00     0.035 A 
ATOM     17  C   UNL d   1      44.816  35.345  54.778  0.00  0.00     0.007 A 
ATOM     18 BR   UNL d   1      44.689  36.158  55.945  0.00  0.00    -0.049 Br
ATOM     19  C   UNL d   1      45.044  35.254  53.995  0.00  0.00     0.013 A 
ENDBRANCH  10  13
ENDBRANCH   6  10
ENDBRANCH   4   5
ENDBRANCH   2   4
BRANCH   1  20
ATOM     20  C   UNL d   1      49.302  34.792  52.092  0.00  0.00     0.337 C 
ATOM     21  N   UNL d   1      49.930  34.665  52.603  0.00  0.00    -0.202 NA
ATOM     22  O   UNL d   1      49.343  34.556  51.307  0.00  0.00    -0.260 OA
BRANCH  21  23
ATOM     23  C   UNL d   1      50.619  34.290  52.319  0.00  0.00     0.102 C 
BRANCH  23  24
ATOM     24  C   UNL d   1      51.231  34.096  52.840  0.00  0.00     0.021 A 
ATOM     25  C   UNL d   1      51.787  34.667  53.037  0.00  0.00     0.028 A 
ATOM     26  C   UNL d   1      52.401  34.470  53.560  0.00  0.00     0.119 A 
ATOM     27  O   UNL d   1      53.027  34.920  53.854  0.00  0.00    -0.300 OA
ATOM     28  C   UNL d   1      52.453  33.708  53.879  0.00  0.00     0.119 A 
ATOM     29  C   UNL d   1      53.472  34.424  54.363  0.00  0.00     0.304 A 
ATOM     30  O   UNL d   1      53.105  33.686  54.366  0.00  0.00    -0.300 OA
ATOM     31  C   UNL d   1      51.887  33.146  53.671  0.00  0.00     0.026 A 
ATOM     32  C   UNL d   1      51.279  33.334  53.156  0.00  0.00     0.004 A 
ENDBRANCH  23  24
ENDBRANCH  21  23
ENDBRANCH   1  20
TORSDOF 7
ENDMDL
