MODEL 1
REMARK VINA RESULT:      63.5      0.000      0.000
REMARK  4 active torsions:
REMARK  status: ('A' for Active; 'I' for Inactive)
REMARK    1  A    between atoms: N_2  and  S_1 
REMARK    2  A    between atoms: C_4  and  S_1 
REMARK    3  A    between atoms: C_5  and  N_3 
REMARK    4  A    between atoms: C_12  and  C_13 
ROOT
ATOM      1  N   UNL d   1      13.746  16.518  -5.325  0.00  0.00    -0.226 N 
ATOM      2  N   UNL d   1      14.012  18.097  -5.726  0.00  0.00    -0.299 N 
ATOM      3  C   UNL d   1      13.531  16.796  -6.069  0.00  0.00     0.111 A 
ATOM      4  C   UNL d   1      14.097  17.030  -4.773  0.00  0.00     0.111 A 
ATOM      5  C   UNL d   1      13.664  17.585  -6.269  0.00  0.00     0.100 A 
ATOM      6  C   UNL d   1      14.230  17.819  -4.974  0.00  0.00     0.100 A 
ENDROOT
BRANCH   1   7
ATOM      7  S   UNL d   1      13.612  15.725  -5.124  0.00  0.00     0.271 S 
ATOM      8  O   UNL d   1      13.205  15.614  -5.832  0.00  0.00    -0.200 OA
ATOM      9  O   UNL d   1      14.020  15.837  -4.415  0.00  0.00    -0.200 OA
BRANCH   7  10
ATOM     10  C   UNL d   1      13.480  14.940  -4.924  0.00  0.00     0.104 A 
ATOM     11  C   UNL d   1      12.963  14.751  -4.312  0.00  0.00     0.013 A 
ATOM     12  C   UNL d   1      12.830  13.961  -4.112  0.00  0.00    -0.004 A 
ATOM     13  C   UNL d   1      13.214  13.362  -4.523  0.00  0.00    -0.023 A 
ATOM     14  C   UNL d   1      13.730  13.551  -5.132  0.00  0.00    -0.004 A 
ATOM     15  C   UNL d   1      13.863  14.340  -5.333  0.00  0.00     0.013 A 
BRANCH  13  16
ATOM     16  C   UNL d   1      13.081  12.569  -4.322  0.00  0.00     0.019 C 
ATOM     17  C   UNL d   1      12.943  12.390  -5.115  0.00  0.00     0.004 C 
ATOM     18  C   UNL d   1      13.219  12.747  -3.528  0.00  0.00     0.004 C 
ATOM     19  C   UNL d   1      12.949  11.783  -4.122  0.00  0.00     0.004 C 
ENDBRANCH  13  16
ENDBRANCH   7  10
ENDBRANCH   1   7
BRANCH   2  20
ATOM     20  C   UNL d   1      14.146  18.893  -5.928  0.00  0.00     0.092 A 
ATOM     21  C   UNL d   1      13.514  19.370  -6.188  0.00  0.00     0.156 A 
ATOM     22  F   UNL d   1      12.805  19.070  -6.240  0.00  0.00    -0.203 F 
ATOM     23  C   UNL d   1      13.646  20.155  -6.387  0.00  0.00     0.031 A 
ATOM     24  C   UNL d   1      14.412  20.475  -6.330  0.00  0.00     0.002 A 
ATOM     25  C   UNL d   1      15.036  20.001  -6.073  0.00  0.00     0.002 A 
ATOM     26  C   UNL d   1      14.903  19.216  -5.874  0.00  0.00     0.020 A 
ENDBRANCH   2  20
TORSDOF 4
ENDMDL
