MODEL 1
REMARK VINA RESULT:      48.2      0.000      0.000
REMARK  4 active torsions:
REMARK  status: ('A' for Active; 'I' for Inactive)
REMARK    1  A    between atoms: C_4  and  N_1 
REMARK    2  A    between atoms: S_8  and  C_5 
REMARK    3  A    between atoms: C_10  and  C_7 
REMARK    4  A    between atoms: C_9  and  S_8 
ROOT
ATOM      1  N   UNL d   1      13.640  13.452  -3.449  0.00  0.00    -0.241 N 
ATOM      2  C   UNL d   1      13.979  13.926  -2.870  0.00  0.00     0.268 A 
ATOM      3  C   UNL d   1      13.504  12.703  -3.125  0.00  0.00     0.273 A 
ATOM      4  C   UNL d   1      13.761  12.718  -2.345  0.00  0.00     0.091 A 
ATOM      5  C   UNL d   1      14.056  13.472  -2.184  0.00  0.00     0.072 A 
ATOM      6  O   UNL d   1      14.205  14.716  -2.957  0.00  0.00    -0.267 OA
ATOM      7  O   UNL d   1      13.171  12.059  -3.516  0.00  0.00    -0.266 OA
ENDROOT
BRANCH   1   8
ATOM      8  C   UNL d   1      13.467  13.685  -4.217  0.00  0.00     0.070 A 
ATOM      9  C   UNL d   1      13.440  13.126  -4.829  0.00  0.00     0.016 A 
ATOM     10  C   UNL d   1      13.264  13.365  -5.601  0.00  0.00     0.001 A 
ATOM     11  C   UNL d   1      13.588  12.337  -4.660  0.00  0.00     0.001 A 
ATOM     12  C   UNL d   1      13.238  12.813  -6.204  0.00  0.00     0.000 A 
ATOM     13  C   UNL d   1      13.117  14.154  -5.764  0.00  0.00     0.000 A 
ATOM     14  C   UNL d   1      13.386  12.015  -6.045  0.00  0.00     0.000 A 
ATOM     15  C   UNL d   1      13.561  11.779  -5.269  0.00  0.00     0.000 A 
ATOM     16  C   UNL d   1      13.142  14.719  -5.157  0.00  0.00     0.002 A 
ATOM     17  C   UNL d   1      13.317  14.482  -4.386  0.00  0.00     0.018 A 
ENDBRANCH   1   8
BRANCH   4  18
ATOM     18  S   UNL d   1      13.731  12.086  -1.808  0.00  0.00    -0.082 SA
BRANCH  18  19
ATOM     19  C   UNL d   1      14.386  12.032  -1.317  0.00  0.00     0.035 A 
ATOM     20  C   UNL d   1      14.303  12.178  -0.511  0.00  0.00     0.070 A 
ATOM     21  C   UNL d   1      14.963  12.123  -0.020  0.00  0.00     0.007 A 
ATOM     22  C   UNL d   1      15.697  11.925  -0.331  0.00  0.00     0.000 A 
ATOM     23  C   UNL d   1      15.774  11.780  -1.136  0.00  0.00     0.001 A 
ATOM     24  C   UNL d   1      15.130  11.832  -1.628  0.00  0.00     0.007 A 
BRANCH  20  25
ATOM     25  C   UNL d   1      13.567  12.376  -0.201  0.00  0.00     0.211 C 
ATOM     26  O   UNL d   1      13.002  11.788  -0.076  0.00  0.00    -0.644 OA
ATOM     27  O   UNL d   1      13.397  13.163  -0.016  0.00  0.00    -0.644 OA
ENDBRANCH  20  25
ENDBRANCH  18  19
ENDBRANCH   4  18
TORSDOF 4
ENDMDL
