MODEL 1
REMARK VINA RESULT:      51.4      0.000      0.000
REMARK  7 active torsions:
REMARK  status: ('A' for Active; 'I' for Inactive)
REMARK    1  A    between atoms: C_4  and  N_1 
REMARK       I    between atoms: C_2  and  N_6 
REMARK    2  A    between atoms: C_3  and  C_2 
REMARK    3  A    between atoms: C_5  and  C_3 
REMARK    4  A    between atoms: C_12  and  C_5 
REMARK    5  A    between atoms: N_6  and  C_11 
REMARK    6  A    between atoms: O_22  and  C_13 
REMARK    7  A    between atoms: C_25  and  O_22 
ROOT
ATOM      1  C   UNL d   1     -55.124-101.258 -43.701  0.00  0.00     0.328 C 
ATOM      2  N   UNL d   1     -55.099-101.401 -42.893  0.00  0.00    -0.365 NA
ATOM      3  O   UNL d   1     -55.127-101.889 -44.233  0.00  0.00    -0.251 OA
ENDROOT
BRANCH   1   4
ATOM      4  C   UNL d   1     -55.146-100.485 -43.984  0.00  0.00     0.076 C 
BRANCH   4   5
ATOM      5  C   UNL d   1     -55.599-100.301 -44.650  0.00  0.00     0.006 C 
BRANCH   5   6
ATOM      6  C   UNL d   1     -56.324 -99.913 -44.555  0.00  0.00     0.000 A 
ATOM      7  C   UNL d   1     -56.704 -99.927 -43.816  0.00  0.00     0.002 A 
ATOM      8  C   UNL d   1     -57.425 -99.543 -43.715  0.00  0.00     0.025 A 
ATOM      9  C   UNL d   1     -57.774 -99.140 -44.350  0.00  0.00     0.100 A 
ATOM     10  C   UNL d   1     -57.401 -99.123 -45.084  0.00  0.00     0.025 A 
ATOM     11  C   UNL d   1     -56.673 -99.510 -45.190  0.00  0.00     0.002 A 
BRANCH   9  12
ATOM     12  O   UNL d   1     -58.496 -98.755 -44.249  0.00  0.00    -0.305 OA
BRANCH  12  13
ATOM     13  C   UNL d   1     -58.876 -98.786 -43.520  0.00  0.00     0.123 C 
ATOM     14  C   UNL d   1     -59.664 -99.026 -43.474  0.00  0.00     0.029 C 
ENDBRANCH  12  13
ENDBRANCH   9  12
ENDBRANCH   5   6
ENDBRANCH   4   5
ENDBRANCH   1   4
BRANCH   2  15
ATOM     15  C   UNL d   1     -55.074-101.551 -42.080  0.00  0.00     0.135 A 
ATOM     16  C   UNL d   1     -55.377-102.260 -41.774  0.00  0.00     0.034 A 
ATOM     17  C   UNL d   1     -55.346-102.397 -40.961  0.00  0.00     0.020 A 
ATOM     18  C   UNL d   1     -55.016-101.834 -40.456  0.00  0.00     0.064 A 
ATOM     19  C   UNL d   1     -54.715-101.132 -40.761  0.00  0.00     0.020 A 
ATOM     20  C   UNL d   1     -54.745-100.991 -41.572  0.00  0.00     0.034 A 
BRANCH  18  21
ATOM     21  N   UNL d   1     -54.986-101.975 -39.645  0.00  0.00    -0.300 N 
ATOM     22  C   UNL d   1     -55.086-101.352 -39.114  0.00  0.00     0.107 A 
ATOM     23  C   UNL d   1     -55.057-101.489 -38.306  0.00  0.00     0.142 A 
ATOM     24  O   UNL d   1     -54.928-102.256 -38.024  0.00  0.00    -0.300 OA
ATOM     25  C   UNL d   1     -54.828-102.879 -38.555  0.00  0.00     0.142 A 
ATOM     26  C   UNL d   1     -54.857-102.742 -39.369  0.00  0.00     0.107 A 
ENDBRANCH  18  21
ENDBRANCH   2  15
TORSDOF 7
ENDMDL
