MODEL 1
REMARK VINA RESULT:      -6.2      0.000      0.000
REMARK  5 active torsions:
REMARK  status: ('A' for Active; 'I' for Inactive)
REMARK    1  A    between atoms: C_2  and  S_1 
REMARK    2  A    between atoms: N_3  and  S_1 
REMARK    3  A    between atoms: C_21  and  N_8 
REMARK    4  A    between atoms: O_26  and  C_16 
REMARK    5  A    between atoms: C_19  and  C_21 
ROOT
ATOM      1  N   UNL d   1     -39.466  15.181  18.870  0.00  0.00    -0.226 N 
ATOM      2  N   UNL d   1     -39.982  15.340  20.430  0.00  0.00    -0.300 N 
ATOM      3  C   UNL d   1     -39.179  15.801  19.347  0.00  0.00     0.111 A 
ATOM      4  C   UNL d   1     -40.010  14.648  19.183  0.00  0.00     0.111 A 
ATOM      5  C   UNL d   1     -39.442  15.872  20.125  0.00  0.00     0.100 A 
ATOM      6  C   UNL d   1     -40.269  14.721  19.953  0.00  0.00     0.100 A 
ENDROOT
BRANCH   1   7
ATOM      7  S   UNL d   1     -39.204  15.111  18.096  0.00  0.00     0.271 S 
ATOM      8  O   UNL d   1     -38.483  15.457  18.300  0.00  0.00    -0.200 OA
ATOM      9  O   UNL d   1     -39.928  14.763  17.890  0.00  0.00    -0.200 OA
BRANCH   7  10
ATOM     10  C   UNL d   1     -38.945  15.038  17.322  0.00  0.00     0.104 A 
ATOM     11  C   UNL d   1     -38.610  14.332  17.056  0.00  0.00     0.014 A 
ATOM     12  C   UNL d   1     -38.350  14.262  16.275  0.00  0.00     0.023 A 
ATOM     13  C   UNL d   1     -38.536  13.694  17.575  0.00  0.00     0.001 A 
ATOM     14  C   UNL d   1     -38.020  13.568  16.013  0.00  0.00     0.002 A 
ATOM     15  C   UNL d   1     -38.424  14.901  15.755  0.00  0.00     0.094 A 
ATOM     16  C   UNL d   1     -37.942  12.924  16.524  0.00  0.00     0.000 A 
ATOM     17  C   UNL d   1     -38.202  12.991  17.308  0.00  0.00     0.000 A 
ATOM     18  C   UNL d   1     -38.758  15.607  16.018  0.00  0.00     0.025 A 
ATOM     19  C   UNL d   1     -39.019  15.682  16.798  0.00  0.00     0.015 A 
BRANCH  15  20
ATOM     20  O   UNL d   1     -38.167  14.832  14.983  0.00  0.00    -0.328 OA
ATOM     21  C   UNL d   1     -37.940  15.500  14.567  0.00  0.00     0.181 C 
ENDBRANCH  15  20
ENDBRANCH   7  10
ENDBRANCH   1   7
BRANCH   2  22
ATOM     22  C   UNL d   1     -40.246  15.411  21.209  0.00  0.00     0.080 C 
BRANCH  22  23
ATOM     23  C   UNL d   1     -39.753  15.221  21.842  0.00  0.00     0.020 A 
ATOM     24  C   UNL d   1     -39.616  14.442  22.039  0.00  0.00     0.028 A 
ATOM     25  C   UNL d   1     -39.124  14.254  22.671  0.00  0.00     0.119 A 
ATOM     26  O   UNL d   1     -38.888  13.532  22.994  0.00  0.00    -0.300 OA
ATOM     27  C   UNL d   1     -38.765  14.864  23.110  0.00  0.00     0.119 A 
ATOM     28  C   UNL d   1     -38.385  13.692  23.628  0.00  0.00     0.304 A 
ATOM     29  O   UNL d   1     -38.312  14.509  23.697  0.00  0.00    -0.300 OA
ATOM     30  C   UNL d   1     -38.907  15.647  22.906  0.00  0.00     0.026 A 
ATOM     31  C   UNL d   1     -39.394  15.831  22.281  0.00  0.00     0.004 A 
ENDBRANCH  22  23
ENDBRANCH   2  22
TORSDOF 5
ENDMDL
MODEL 2
REMARK VINA RESULT:      -5.4      8.214     10.178
REMARK  5 active torsions:
REMARK  status: ('A' for Active; 'I' for Inactive)
REMARK    1  A    between atoms: C_2  and  S_1 
REMARK    2  A    between atoms: N_3  and  S_1 
REMARK    3  A    between atoms: C_21  and  N_8 
REMARK    4  A    between atoms: O_26  and  C_16 
REMARK    5  A    between atoms: C_19  and  C_21 
ROOT
ATOM      1  N   UNL d   1     -47.104  13.591  22.603  0.00  0.00    -0.226 N 
ATOM      2  N   UNL d   1     -45.592  13.078  22.186  0.00  0.00    -0.300 N 
ATOM      3  C   UNL d   1     -46.466  13.693  23.128  0.00  0.00     0.111 A 
ATOM      4  C   UNL d   1     -46.975  13.231  21.873  0.00  0.00     0.111 A 
ATOM      5  C   UNL d   1     -45.714  13.434  22.911  0.00  0.00     0.100 A 
ATOM      6  C   UNL d   1     -46.230  12.975  21.661  0.00  0.00     0.100 A 
ENDROOT
BRANCH   1   7
ATOM      7  S   UNL d   1     -47.852  13.848  22.819  0.00  0.00     0.271 S 
ATOM      8  O   UNL d   1     -48.118  13.754  22.043  0.00  0.00    -0.200 OA
ATOM      9  O   UNL d   1     -47.586  13.944  23.599  0.00  0.00    -0.200 OA
BRANCH   7  10
ATOM     10  C   UNL d   1     -48.599  14.107  23.038  0.00  0.00     0.104 A 
ATOM     11  C   UNL d   1     -49.194  13.564  23.220  0.00  0.00     0.014 A 
ATOM     12  C   UNL d   1     -49.945  13.827  23.440  0.00  0.00     0.023 A 
ATOM     13  C   UNL d   1     -49.034  12.755  23.180  0.00  0.00     0.001 A 
ATOM     14  C   UNL d   1     -50.531  13.294  23.619  0.00  0.00     0.002 A 
ATOM     15  C   UNL d   1     -50.105  14.638  23.480  0.00  0.00     0.094 A 
ATOM     16  C   UNL d   1     -50.381  12.482  23.582  0.00  0.00     0.000 A 
ATOM     17  C   UNL d   1     -49.629  12.215  23.361  0.00  0.00     0.000 A 
ATOM     18  C   UNL d   1     -49.513  15.181  23.299  0.00  0.00     0.025 A 
ATOM     19  C   UNL d   1     -48.760  14.923  23.078  0.00  0.00     0.015 A 
BRANCH  15  20
ATOM     20  O   UNL d   1     -50.847  14.898  23.698  0.00  0.00    -0.328 OA
ATOM     21  C   UNL d   1     -51.061  15.678  23.569  0.00  0.00     0.181 C 
ENDBRANCH  15  20
ENDBRANCH   7  10
ENDBRANCH   1   7
BRANCH   2  22
ATOM     22  C   UNL d   1     -44.839  12.818  21.968  0.00  0.00     0.080 C 
BRANCH  22  23
ATOM     23  C   UNL d   1     -44.486  12.178  22.349  0.00  0.00     0.020 A 
ATOM     24  C   UNL d   1     -44.943  11.582  22.666  0.00  0.00     0.028 A 
ATOM     25  C   UNL d   1     -44.590  10.944  23.046  0.00  0.00     0.119 A 
ATOM     26  O   UNL d   1     -44.902  10.274  23.411  0.00  0.00    -0.300 OA
ATOM     27  C   UNL d   1     -43.760  10.908  23.106  0.00  0.00     0.119 A 
ATOM     28  C   UNL d   1     -44.272   9.824  23.697  0.00  0.00     0.304 A 
ATOM     29  O   UNL d   1     -43.573  10.216  23.508  0.00  0.00    -0.300 OA
ATOM     30  C   UNL d   1     -43.304  11.511  22.784  0.00  0.00     0.026 A 
ATOM     31  C   UNL d   1     -43.656  12.142  22.409  0.00  0.00     0.004 A 
ENDBRANCH  22  23
ENDBRANCH   2  22
TORSDOF 5
ENDMDL
MODEL 3
REMARK VINA RESULT:      -5.0      8.086      9.657
REMARK  5 active torsions:
REMARK  status: ('A' for Active; 'I' for Inactive)
REMARK    1  A    between atoms: C_2  and  S_1 
REMARK    2  A    between atoms: N_3  and  S_1 
REMARK    3  A    between atoms: C_21  and  N_8 
REMARK    4  A    between atoms: O_26  and  C_16 
REMARK    5  A    between atoms: C_19  and  C_21 
ROOT
ATOM      1  N   UNL d   1     -46.834  12.686  22.846  0.00  0.00    -0.226 N 
ATOM      2  N   UNL d   1     -48.415  12.743  23.317  0.00  0.00    -0.300 N 
ATOM      3  C   UNL d   1     -47.395  12.180  22.496  0.00  0.00     0.111 A 
ATOM      4  C   UNL d   1     -47.074  13.216  23.429  0.00  0.00     0.111 A 
ATOM      5  C   UNL d   1     -48.183  12.216  22.738  0.00  0.00     0.100 A 
ATOM      6  C   UNL d   1     -47.854  13.249  23.667  0.00  0.00     0.100 A 
ENDROOT
BRANCH   1   7
ATOM      7  S   UNL d   1     -46.051  12.651  22.605  0.00  0.00     0.271 S 
ATOM      8  O   UNL d   1     -46.287  12.532  21.824  0.00  0.00    -0.200 OA
ATOM      9  O   UNL d   1     -45.812  12.770  23.391  0.00  0.00    -0.200 OA
BRANCH   7  10
ATOM     10  C   UNL d   1     -45.267  12.616  22.368  0.00  0.00     0.104 A 
ATOM     11  C   UNL d   1     -44.777  12.005  22.629  0.00  0.00     0.014 A 
ATOM     12  C   UNL d   1     -43.987  11.972  22.389  0.00  0.00     0.023 A 
ATOM     13  C   UNL d   1     -45.080  11.425  23.134  0.00  0.00     0.001 A 
ATOM     14  C   UNL d   1     -43.504  11.372  22.645  0.00  0.00     0.002 A 
ATOM     15  C   UNL d   1     -43.683  12.553  21.884  0.00  0.00     0.094 A 
ATOM     16  C   UNL d   1     -43.798  10.787  23.150  0.00  0.00     0.000 A 
ATOM     17  C   UNL d   1     -44.589  10.817  23.393  0.00  0.00     0.000 A 
ATOM     18  C   UNL d   1     -44.171  13.163  21.622  0.00  0.00     0.025 A 
ATOM     19  C   UNL d   1     -44.961  13.201  21.860  0.00  0.00     0.015 A 
BRANCH  15  20
ATOM     20  O   UNL d   1     -42.903  12.521  21.646  0.00  0.00    -0.328 OA
ATOM     21  C   UNL d   1     -42.570  13.157  21.253  0.00  0.00     0.181 C 
ENDBRANCH  15  20
ENDBRANCH   7  10
ENDBRANCH   1   7
BRANCH   2  22
ATOM     22  C   UNL d   1     -49.203  12.779  23.559  0.00  0.00     0.080 C 
BRANCH  22  23
ATOM     23  C   UNL d   1     -49.692  13.399  23.320  0.00  0.00     0.020 A 
ATOM     24  C   UNL d   1     -49.570  14.153  23.603  0.00  0.00     0.028 A 
ATOM     25  C   UNL d   1     -50.058  14.771  23.363  0.00  0.00     0.119 A 
ATOM     26  O   UNL d   1     -50.069  15.574  23.551  0.00  0.00    -0.300 OA
ATOM     27  C   UNL d   1     -50.679  14.622  22.828  0.00  0.00     0.119 A 
ATOM     28  C   UNL d   1     -50.692  15.922  23.137  0.00  0.00     0.304 A 
ATOM     29  O   UNL d   1     -51.064  15.335  22.695  0.00  0.00    -0.300 OA
ATOM     30  C   UNL d   1     -50.796  13.859  22.546  0.00  0.00     0.026 A 
ATOM     31  C   UNL d   1     -50.312  13.250  22.785  0.00  0.00     0.004 A 
ENDBRANCH  22  23
ENDBRANCH   2  22
TORSDOF 5
ENDMDL
MODEL 4
REMARK VINA RESULT:      -4.1      1.552      2.018
REMARK  5 active torsions:
REMARK  status: ('A' for Active; 'I' for Inactive)
REMARK    1  A    between atoms: C_2  and  S_1 
REMARK    2  A    between atoms: N_3  and  S_1 
REMARK    3  A    between atoms: C_21  and  N_8 
REMARK    4  A    between atoms: O_26  and  C_16 
REMARK    5  A    between atoms: C_19  and  C_21 
ROOT
ATOM      1  N   UNL d   1     -39.534  15.294  18.359  0.00  0.00    -0.226 N 
ATOM      2  N   UNL d   1     -40.199  15.353  19.869  0.00  0.00    -0.300 N 
ATOM      3  C   UNL d   1     -40.359  15.358  18.453  0.00  0.00     0.111 A 
ATOM      4  C   UNL d   1     -39.052  15.260  19.026  0.00  0.00     0.111 A 
ATOM      5  C   UNL d   1     -40.682  15.387  19.212  0.00  0.00     0.100 A 
ATOM      6  C   UNL d   1     -39.373  15.289  19.775  0.00  0.00     0.100 A 
ENDROOT
BRANCH   1   7
ATOM      7  S   UNL d   1     -39.214  15.265  17.605  0.00  0.00     0.271 S 
ATOM      8  O   UNL d   1     -38.480  15.502  17.899  0.00  0.00    -0.200 OA
ATOM      9  O   UNL d   1     -39.951  15.026  17.308  0.00  0.00    -0.200 OA
BRANCH   7  10
ATOM     10  C   UNL d   1     -38.896  15.235  16.850  0.00  0.00     0.104 A 
ATOM     11  C   UNL d   1     -38.589  14.529  16.551  0.00  0.00     0.014 A 
ATOM     12  C   UNL d   1     -38.270  14.502  15.790  0.00  0.00     0.023 A 
ATOM     13  C   UNL d   1     -38.603  13.848  17.019  0.00  0.00     0.001 A 
ATOM     14  C   UNL d   1     -37.969  13.807  15.496  0.00  0.00     0.002 A 
ATOM     15  C   UNL d   1     -38.256  15.183  15.322  0.00  0.00     0.094 A 
ATOM     16  C   UNL d   1     -37.978  13.121  15.955  0.00  0.00     0.000 A 
ATOM     17  C   UNL d   1     -38.297  13.144  16.719  0.00  0.00     0.000 A 
ATOM     18  C   UNL d   1     -38.562  15.889  15.618  0.00  0.00     0.025 A 
ATOM     19  C   UNL d   1     -38.882  15.921  16.379  0.00  0.00     0.015 A 
BRANCH  15  20
ATOM     20  O   UNL d   1     -37.941  15.157  14.570  0.00  0.00    -0.328 OA
ATOM     21  C   UNL d   1     -37.971  15.820  14.091  0.00  0.00     0.181 C 
ENDBRANCH  15  20
ENDBRANCH   7  10
ENDBRANCH   1   7
BRANCH   2  22
ATOM     22  C   UNL d   1     -40.521  15.382  20.628  0.00  0.00     0.080 C 
BRANCH  22  23
ATOM     23  C   UNL d   1     -40.909  14.729  20.948  0.00  0.00     0.020 A 
ATOM     24  C   UNL d   1     -41.689  14.581  20.763  0.00  0.00     0.028 A 
ATOM     25  C   UNL d   1     -42.076  13.929  21.083  0.00  0.00     0.119 A 
ATOM     26  O   UNL d   1     -42.845  13.644  20.999  0.00  0.00    -0.300 OA
ATOM     27  C   UNL d   1     -41.666  13.419  21.599  0.00  0.00     0.119 A 
ATOM     28  C   UNL d   1     -42.914  12.963  21.458  0.00  0.00     0.304 A 
ATOM     29  O   UNL d   1     -42.190  12.828  21.825  0.00  0.00    -0.300 OA
ATOM     30  C   UNL d   1     -40.880  13.574  21.782  0.00  0.00     0.026 A 
ATOM     31  C   UNL d   1     -40.500  14.219  21.464  0.00  0.00     0.004 A 
ENDBRANCH  22  23
ENDBRANCH   2  22
TORSDOF 5
ENDMDL
MODEL 5
REMARK VINA RESULT:      -3.5      1.246      5.749
REMARK  5 active torsions:
REMARK  status: ('A' for Active; 'I' for Inactive)
REMARK    1  A    between atoms: C_2  and  S_1 
REMARK    2  A    between atoms: N_3  and  S_1 
REMARK    3  A    between atoms: C_21  and  N_8 
REMARK    4  A    between atoms: O_26  and  C_16 
REMARK    5  A    between atoms: C_19  and  C_21 
ROOT
ATOM      1  N   UNL d   1     -38.768  15.384  19.061  0.00  0.00    -0.226 N 
ATOM      2  N   UNL d   1     -38.637  15.514  17.420  0.00  0.00    -0.300 N 
ATOM      3  C   UNL d   1     -38.018  15.439  18.702  0.00  0.00     0.111 A 
ATOM      4  C   UNL d   1     -39.444  15.395  18.591  0.00  0.00     0.111 A 
ATOM      5  C   UNL d   1     -37.963  15.504  17.882  0.00  0.00     0.100 A 
ATOM      6  C   UNL d   1     -39.386  15.459  17.779  0.00  0.00     0.100 A 
ENDROOT
BRANCH   1   7
ATOM      7  S   UNL d   1     -38.822  15.320  19.876  0.00  0.00     0.271 S 
ATOM      8  O   UNL d   1     -39.420  14.756  19.801  0.00  0.00    -0.200 OA
ATOM      9  O   UNL d   1     -38.222  15.887  19.954  0.00  0.00    -0.200 OA
BRANCH   7  10
ATOM     10  C   UNL d   1     -38.875  15.258  20.692  0.00  0.00     0.104 A 
ATOM     11  C   UNL d   1     -38.709  14.543  21.070  0.00  0.00     0.014 A 
ATOM     12  C   UNL d   1     -38.762  14.484  21.893  0.00  0.00     0.023 A 
ATOM     13  C   UNL d   1     -38.488  13.886  20.622  0.00  0.00     0.001 A 
ATOM     14  C   UNL d   1     -38.599  13.781  22.265  0.00  0.00     0.002 A 
ATOM     15  C   UNL d   1     -38.983  15.142  22.342  0.00  0.00     0.094 A 
ATOM     16  C   UNL d   1     -38.378  13.118  21.825  0.00  0.00     0.000 A 
ATOM     17  C   UNL d   1     -38.323  13.173  21.001  0.00  0.00     0.000 A 
ATOM     18  C   UNL d   1     -39.149  15.857  21.967  0.00  0.00     0.025 A 
ATOM     19  C   UNL d   1     -39.097  15.921  21.145  0.00  0.00     0.015 A 
BRANCH  15  20
ATOM     20  O   UNL d   1     -39.036  15.084  23.154  0.00  0.00    -0.328 OA
ATOM     21  C   UNL d   1     -39.034  15.762  23.613  0.00  0.00     0.181 C 
ENDBRANCH  15  20
ENDBRANCH   7  10
ENDBRANCH   1   7
BRANCH   2  22
ATOM     22  C   UNL d   1     -38.582  15.579  16.600  0.00  0.00     0.080 C 
BRANCH  22  23
ATOM     23  C   UNL d   1     -38.417  14.919  16.133  0.00  0.00     0.020 A 
ATOM     24  C   UNL d   1     -38.404  14.980  15.321  0.00  0.00     0.028 A 
ATOM     25  C   UNL d   1     -38.239  14.322  14.856  0.00  0.00     0.119 A 
ATOM     26  O   UNL d   1     -38.188  14.217  14.040  0.00  0.00    -0.300 OA
ATOM     27  C   UNL d   1     -38.083  13.589  15.221  0.00  0.00     0.119 A 
ATOM     28  C   UNL d   1     -38.003  13.426  13.897  0.00  0.00     0.304 A 
ATOM     29  O   UNL d   1     -37.940  13.044  14.624  0.00  0.00    -0.300 OA
ATOM     30  C   UNL d   1     -38.097  13.533  16.041  0.00  0.00     0.026 A 
ATOM     31  C   UNL d   1     -38.261  14.187  16.498  0.00  0.00     0.004 A 
ENDBRANCH  22  23
ENDBRANCH   2  22
TORSDOF 5
ENDMDL
MODEL 6
REMARK VINA RESULT:      -3.4      6.159      8.342
REMARK  5 active torsions:
REMARK  status: ('A' for Active; 'I' for Inactive)
REMARK    1  A    between atoms: C_2  and  S_1 
REMARK    2  A    between atoms: N_3  and  S_1 
REMARK    3  A    between atoms: C_21  and  N_8 
REMARK    4  A    between atoms: O_26  and  C_16 
REMARK    5  A    between atoms: C_19  and  C_21 
ROOT
ATOM      1  N   UNL d   1     -45.042  13.006  22.116  0.00  0.00    -0.226 N 
ATOM      2  N   UNL d   1     -43.520  12.661  21.579  0.00  0.00    -0.300 N 
ATOM      3  C   UNL d   1     -44.754  13.355  21.416  0.00  0.00     0.111 A 
ATOM      4  C   UNL d   1     -44.561  12.488  22.538  0.00  0.00     0.111 A 
ATOM      5  C   UNL d   1     -43.993  13.176  21.156  0.00  0.00     0.100 A 
ATOM      6  C   UNL d   1     -43.808  12.313  22.278  0.00  0.00     0.100 A 
ENDROOT
BRANCH   1   7
ATOM      7  S   UNL d   1     -45.800  13.184  22.375  0.00  0.00     0.271 S 
ATOM      8  O   UNL d   1     -45.503  13.420  23.108  0.00  0.00    -0.200 OA
ATOM      9  O   UNL d   1     -46.099  12.947  21.638  0.00  0.00    -0.200 OA
BRANCH   7  10
ATOM     10  C   UNL d   1     -46.558  13.361  22.630  0.00  0.00     0.104 A 
ATOM     11  C   UNL d   1     -47.027  12.781  22.987  0.00  0.00     0.014 A 
ATOM     12  C   UNL d   1     -47.791  12.962  23.243  0.00  0.00     0.023 A 
ATOM     13  C   UNL d   1     -46.727  12.018  23.086  0.00  0.00     0.001 A 
ATOM     14  C   UNL d   1     -48.251  12.393  23.594  0.00  0.00     0.002 A 
ATOM     15  C   UNL d   1     -48.091  13.726  23.144  0.00  0.00     0.094 A 
ATOM     16  C   UNL d   1     -47.961  11.626  23.697  0.00  0.00     0.000 A 
ATOM     17  C   UNL d   1     -47.195  11.442  23.441  0.00  0.00     0.000 A 
ATOM     18  C   UNL d   1     -47.626  14.306  22.789  0.00  0.00     0.025 A 
ATOM     19  C   UNL d   1     -46.861  14.130  22.530  0.00  0.00     0.015 A 
BRANCH  15  20
ATOM     20  O   UNL d   1     -48.846  13.905  23.398  0.00  0.00    -0.328 OA
ATOM     21  C   UNL d   1     -49.177  14.631  23.214  0.00  0.00     0.181 C 
ENDBRANCH  15  20
ENDBRANCH   7  10
ENDBRANCH   1   7
BRANCH   2  22
ATOM     22  C   UNL d   1     -42.758  12.482  21.319  0.00  0.00     0.080 C 
BRANCH  22  23
ATOM     23  C   UNL d   1     -42.188  13.073  21.240  0.00  0.00     0.020 A 
ATOM     24  C   UNL d   1     -42.099  13.469  20.534  0.00  0.00     0.028 A 
ATOM     25  C   UNL d   1     -41.530  14.059  20.456  0.00  0.00     0.119 A 
ATOM     26  O   UNL d   1     -41.316  14.544  19.824  0.00  0.00    -0.300 OA
ATOM     27  C   UNL d   1     -41.043  14.249  21.104  0.00  0.00     0.119 A 
ATOM     28  C   UNL d   1     -40.702  15.033  20.077  0.00  0.00     0.304 A 
ATOM     29  O   UNL d   1     -40.537  14.849  20.863  0.00  0.00    -0.300 OA
ATOM     30  C   UNL d   1     -41.137  13.846  21.814  0.00  0.00     0.026 A 
ATOM     31  C   UNL d   1     -41.701  13.264  21.888  0.00  0.00     0.004 A 
ENDBRANCH  22  23
ENDBRANCH   2  22
TORSDOF 5
ENDMDL
MODEL 7
REMARK VINA RESULT:      -3.3      1.605      5.982
REMARK  5 active torsions:
REMARK  status: ('A' for Active; 'I' for Inactive)
REMARK    1  A    between atoms: C_2  and  S_1 
REMARK    2  A    between atoms: N_3  and  S_1 
REMARK    3  A    between atoms: C_21  and  N_8 
REMARK    4  A    between atoms: O_26  and  C_16 
REMARK    5  A    between atoms: C_19  and  C_21 
ROOT
ATOM      1  N   UNL d   1     -39.497  14.555  18.306  0.00  0.00    -0.226 N 
ATOM      2  N   UNL d   1     -38.478  14.777  17.027  0.00  0.00    -0.300 N 
ATOM      3  C   UNL d   1     -38.716  14.266  18.336  0.00  0.00     0.111 A 
ATOM      4  C   UNL d   1     -39.757  14.952  17.633  0.00  0.00     0.111 A 
ATOM      5  C   UNL d   1     -38.215  14.382  17.692  0.00  0.00     0.100 A 
ATOM      6  C   UNL d   1     -39.259  15.065  16.997  0.00  0.00     0.100 A 
ENDROOT
BRANCH   1   7
ATOM      7  S   UNL d   1     -39.996  14.439  18.946  0.00  0.00     0.271 S 
ATOM      8  O   UNL d   1     -39.491  13.860  19.247  0.00  0.00    -0.200 OA
ATOM      9  O   UNL d   1     -40.505  15.021  18.645  0.00  0.00    -0.200 OA
BRANCH   7  10
ATOM     10  C   UNL d   1     -40.497  14.327  19.585  0.00  0.00     0.104 A 
ATOM     11  C   UNL d   1     -40.356  14.711  20.302  0.00  0.00     0.014 A 
ATOM     12  C   UNL d   1     -40.863  14.596  20.944  0.00  0.00     0.023 A 
ATOM     13  C   UNL d   1     -39.704  15.213  20.375  0.00  0.00     0.001 A 
ATOM     14  C   UNL d   1     -40.724  14.974  21.649  0.00  0.00     0.002 A 
ATOM     15  C   UNL d   1     -41.516  14.093  20.872  0.00  0.00     0.094 A 
ATOM     16  C   UNL d   1     -40.075  15.478  21.732  0.00  0.00     0.000 A 
ATOM     17  C   UNL d   1     -39.565  15.596  21.090  0.00  0.00     0.000 A 
ATOM     18  C   UNL d   1     -41.658  13.709  20.158  0.00  0.00     0.025 A 
ATOM     19  C   UNL d   1     -41.155  13.821  19.512  0.00  0.00     0.015 A 
BRANCH  15  20
ATOM     20  O   UNL d   1     -42.016  13.979  21.506  0.00  0.00    -0.328 OA
ATOM     21  C   UNL d   1     -42.551  13.359  21.498  0.00  0.00     0.181 C 
ENDBRANCH  15  20
ENDBRANCH   7  10
ENDBRANCH   1   7
BRANCH   2  22
ATOM     22  C   UNL d   1     -37.976  14.893  16.382  0.00  0.00     0.080 C 
BRANCH  22  23
ATOM     23  C   UNL d   1     -37.967  14.361  15.752  0.00  0.00     0.020 A 
ATOM     24  C   UNL d   1     -37.965  14.632  14.983  0.00  0.00     0.028 A 
ATOM     25  C   UNL d   1     -37.956  14.101  14.355  0.00  0.00     0.119 A 
ATOM     26  O   UNL d   1     -37.952  14.208  13.537  0.00  0.00    -0.300 OA
ATOM     27  C   UNL d   1     -37.949  13.282  14.508  0.00  0.00     0.119 A 
ATOM     28  C   UNL d   1     -37.943  13.463  13.184  0.00  0.00     0.304 A 
ATOM     29  O   UNL d   1     -37.940  12.897  13.782  0.00  0.00    -0.300 OA
ATOM     30  C   UNL d   1     -37.950  13.015  15.285  0.00  0.00     0.026 A 
ATOM     31  C   UNL d   1     -37.960  13.543  15.905  0.00  0.00     0.004 A 
ENDBRANCH  22  23
ENDBRANCH   2  22
TORSDOF 5
ENDMDL
MODEL 8
REMARK VINA RESULT:      -3.3      5.794      8.106
REMARK  5 active torsions:
REMARK  status: ('A' for Active; 'I' for Inactive)
REMARK    1  A    between atoms: C_2  and  S_1 
REMARK    2  A    between atoms: N_3  and  S_1 
REMARK    3  A    between atoms: C_21  and  N_8 
REMARK    4  A    between atoms: O_26  and  C_16 
REMARK    5  A    between atoms: C_19  and  C_21 
ROOT
ATOM      1  N   UNL d   1     -44.617  12.705  22.020  0.00  0.00    -0.226 N 
ATOM      2  N   UNL d   1     -43.107  12.754  21.356  0.00  0.00    -0.300 N 
ATOM      3  C   UNL d   1     -44.471  13.165  21.342  0.00  0.00     0.111 A 
ATOM      4  C   UNL d   1     -44.002  12.274  22.357  0.00  0.00     0.111 A 
ATOM      5  C   UNL d   1     -43.714  13.183  21.017  0.00  0.00     0.100 A 
ATOM      6  C   UNL d   1     -43.253  12.293  22.034  0.00  0.00     0.100 A 
ENDROOT
BRANCH   1   7
ATOM      7  S   UNL d   1     -45.371  12.687  22.343  0.00  0.00     0.271 S 
ATOM      8  O   UNL d   1     -45.053  12.639  23.103  0.00  0.00    -0.200 OA
ATOM      9  O   UNL d   1     -45.691  12.734  21.579  0.00  0.00    -0.200 OA
BRANCH   7  10
ATOM     10  C   UNL d   1     -46.125  12.669  22.663  0.00  0.00     0.104 A 
ATOM     11  C   UNL d   1     -46.565  13.364  22.740  0.00  0.00     0.014 A 
ATOM     12  C   UNL d   1     -47.325  13.343  23.062  0.00  0.00     0.023 A 
ATOM     13  C   UNL d   1     -46.240  14.082  22.492  0.00  0.00     0.001 A 
ATOM     14  C   UNL d   1     -47.758  14.026  23.137  0.00  0.00     0.002 A 
ATOM     15  C   UNL d   1     -47.651  12.624  23.310  0.00  0.00     0.094 A 
ATOM     16  C   UNL d   1     -47.442  14.749  22.893  0.00  0.00     0.000 A 
ATOM     17  C   UNL d   1     -46.681  14.773  22.569  0.00  0.00     0.000 A 
ATOM     18  C   UNL d   1     -47.214  11.930  23.235  0.00  0.00     0.025 A 
ATOM     19  C   UNL d   1     -46.453  11.945  22.913  0.00  0.00     0.015 A 
BRANCH  15  20
ATOM     20  O   UNL d   1     -48.401  12.603  23.629  0.00  0.00    -0.328 OA
ATOM     21  C   UNL d   1     -48.796  11.889  23.697  0.00  0.00     0.181 C 
ENDBRANCH  15  20
ENDBRANCH   7  10
ENDBRANCH   1   7
BRANCH   2  22
ATOM     22  C   UNL d   1     -42.348  12.771  21.031  0.00  0.00     0.080 C 
BRANCH  22  23
ATOM     23  C   UNL d   1     -41.858  13.426  21.136  0.00  0.00     0.020 A 
ATOM     24  C   UNL d   1     -41.968  14.100  20.691  0.00  0.00     0.028 A 
ATOM     25  C   UNL d   1     -41.478  14.752  20.797  0.00  0.00     0.119 A 
ATOM     26  O   UNL d   1     -41.456  15.493  20.436  0.00  0.00    -0.300 OA
ATOM     27  C   UNL d   1     -40.868  14.722  21.363  0.00  0.00     0.119 A 
ATOM     28  C   UNL d   1     -40.837  15.921  20.774  0.00  0.00     0.304 A 
ATOM     29  O   UNL d   1     -40.478  15.445  21.342  0.00  0.00    -0.300 OA
ATOM     30  C   UNL d   1     -40.762  14.040  21.809  0.00  0.00     0.026 A 
ATOM     31  C   UNL d   1     -41.248  13.396  21.702  0.00  0.00     0.004 A 
ENDBRANCH  22  23
ENDBRANCH   2  22
TORSDOF 5
ENDMDL
