MODEL 1
REMARK VINA RESULT:      60.2      0.000      0.000
REMARK  6 active torsions:
REMARK  status: ('A' for Active; 'I' for Inactive)
REMARK    1  A    between atoms: N_7  and  C_1 
REMARK    2  A    between atoms: C_10  and  C_3 
REMARK    3  A    between atoms: C_17  and  C_5 
REMARK    4  A    between atoms: C_12  and  N_7 
REMARK    5  A    between atoms: C_8  and  C_9 
REMARK    6  A    between atoms: C_13  and  C_17 
ROOT
ATOM      1  C   UNL d   1     -57.492 -98.785 -43.880  0.00  0.00     0.165 A 
ATOM      2  N   UNL d   1     -57.780 -98.815 -43.099  0.00  0.00    -0.208 NA
ATOM      3  C   UNL d   1     -58.595 -98.845 -42.954  0.00  0.00     0.164 A 
ATOM      4  N   UNL d   1     -59.127 -98.845 -43.587  0.00  0.00    -0.227 NA
ATOM      5  C   UNL d   1     -58.031 -98.786 -44.508  0.00  0.00     0.054 A 
ATOM      6  C   UNL d   1     -58.835 -98.815 -44.355  0.00  0.00     0.086 A 
ATOM      7  C   UNL d   1     -59.370 -98.815 -44.992  0.00  0.00     0.021 C 
ENDROOT
BRANCH   1   8
ATOM      8  N   UNL d   1     -56.681 -98.756 -44.022  0.00  0.00    -0.227 NA
BRANCH   8   9
ATOM      9  C   UNL d   1     -56.265 -99.454 -44.216  0.00  0.00     0.083 A 
ATOM     10  C   UNL d   1     -56.553-100.173 -43.974  0.00  0.00     0.019 A 
ATOM     11  C   UNL d   1     -56.139-100.867 -44.167  0.00  0.00     0.008 A 
ATOM     12  C   UNL d   1     -55.438-100.818 -44.603  0.00  0.00     0.065 A 
ATOM     13  C   UNL d   1     -55.152-100.090 -44.845  0.00  0.00     0.008 A 
ATOM     14  C   UNL d   1     -55.564 -99.399 -44.653  0.00  0.00     0.019 A 
BRANCH  12  15
ATOM     15  C   UNL d   1     -55.025-101.512 -44.796  0.00  0.00     0.211 C 
ATOM     16  O   UNL d   1     -54.868-102.075 -44.214  0.00  0.00    -0.644 OA
ATOM     17  O   UNL d   1     -54.770-101.641 -45.565  0.00  0.00    -0.644 OA
ENDBRANCH  12  15
ENDBRANCH   8   9
ENDBRANCH   1   8
BRANCH   5  18
ATOM     18  C   UNL d   1     -57.754 -98.757 -45.280  0.00  0.00     0.005 C 
BRANCH  18  19
ATOM     19  C   UNL d   1     -58.217 -99.006 -45.905  0.00  0.00     0.000 C 
ATOM     20  C   UNL d   1     -58.079 -98.757 -46.675  0.00  0.00     0.000 C 
ENDBRANCH  18  19
ENDBRANCH   5  18
BRANCH   3  21
ATOM     21  C   UNL d   1     -58.875 -98.874 -42.178  0.00  0.00     0.036 A 
ATOM     22  C   UNL d   1     -59.671 -99.021 -42.034  0.00  0.00     0.003 A 
ATOM     23  C   UNL d   1     -59.957 -99.052 -41.262  0.00  0.00     0.000 A 
ATOM     24  C   UNL d   1     -59.431 -98.931 -40.621  0.00  0.00     0.000 A 
ATOM     25  C   UNL d   1     -58.636 -98.784 -40.765  0.00  0.00     0.000 A 
ATOM     26  C   UNL d   1     -58.357 -98.755 -41.552  0.00  0.00     0.003 A 
ENDBRANCH   3  21
TORSDOF 6
ENDMDL
