MODEL 1
REMARK VINA RESULT:      -0.1      0.000      0.000
REMARK  1 active torsions:
REMARK  status: ('A' for Active; 'I' for Inactive)
REMARK       I    between atoms: N_2  and  C_1 
REMARK    1  A    between atoms: C_4  and  N_2 
ROOT
ATOM      1  C   UNL d   1      46.646 -19.510  42.842  0.00  0.00     0.101 A 
ATOM      2  C   UNL d   1      46.645 -18.735  42.562  0.00  0.00     0.031 A 
ATOM      3  C   UNL d   1      46.644 -18.591  41.743  0.00  0.00     0.059 A 
ATOM      4 CL   UNL d   1      46.643 -17.815  41.463  0.00  0.00    -0.082 Cl
ATOM      5  C   UNL d   1      46.645 -19.998  41.494  0.00  0.00     0.002 A 
ATOM      6  C   UNL d   1      46.646 -20.143  42.304  0.00  0.00     0.020 A 
ATOM      7  C   UNL d   1      46.644 -19.222  41.213  0.00  0.00     0.011 A 
ENDROOT
BRANCH   1   8
ATOM      8  N   UNL d   1      46.647 -19.660  43.653  0.00  0.00    -0.056 NA
ATOM      9  C   UNL d   1      46.022 -20.067  44.001  0.00  0.00     0.787 C 
ATOM     10  N   UNL d   1      46.021 -20.217  44.811  0.00  0.00     0.064 N 
ATOM     11  N   UNL d   1      45.395 -20.325  43.531  0.00  0.00     0.064 N 
ENDBRANCH   1   8
TORSDOF 1
ENDMDL
MODEL 2
REMARK VINA RESULT:       0.6      6.026      6.735
REMARK  1 active torsions:
REMARK  status: ('A' for Active; 'I' for Inactive)
REMARK       I    between atoms: N_2  and  C_1 
REMARK    1  A    between atoms: C_4  and  N_2 
ROOT
ATOM      1  C   UNL d   1      45.177 -13.335  43.985  0.00  0.00     0.101 A 
ATOM      2  C   UNL d   1      44.950 -14.121  44.091  0.00  0.00     0.031 A 
ATOM      3  C   UNL d   1      45.402 -14.619  44.579  0.00  0.00     0.059 A 
ATOM      4 CL   UNL d   1      45.175 -15.405  44.686  0.00  0.00    -0.082 Cl
ATOM      5  C   UNL d   1      46.303 -13.544  44.848  0.00  0.00     0.002 A 
ATOM      6  C   UNL d   1      45.856 -13.048  44.365  0.00  0.00     0.020 A 
ATOM      7  C   UNL d   1      46.076 -14.329  44.954  0.00  0.00     0.011 A 
ENDROOT
BRANCH   1   8
ATOM      8  N   UNL d   1      44.732 -12.836  43.502  0.00  0.00    -0.056 NA
ATOM      9  C   UNL d   1      45.033 -12.579  42.781  0.00  0.00     0.787 C 
ATOM     10  N   UNL d   1      44.591 -12.080  42.298  0.00  0.00     0.064 N 
ATOM     11  N   UNL d   1      45.783 -12.826  42.544  0.00  0.00     0.064 N 
ENDBRANCH   1   8
TORSDOF 1
ENDMDL
MODEL 3
REMARK VINA RESULT:       0.8      1.755      2.540
REMARK  1 active torsions:
REMARK  status: ('A' for Active; 'I' for Inactive)
REMARK       I    between atoms: N_2  and  C_1 
REMARK    1  A    between atoms: C_4  and  N_2 
ROOT
ATOM      1  C   UNL d   1      46.643 -19.169  42.820  0.00  0.00     0.101 A 
ATOM      2  C   UNL d   1      46.638 -18.682  43.485  0.00  0.00     0.031 A 
ATOM      3  C   UNL d   1      46.635 -19.020  44.244  0.00  0.00     0.059 A 
ATOM      4 CL   UNL d   1      46.630 -18.533  44.910  0.00  0.00    -0.082 Cl
ATOM      5  C   UNL d   1      46.641 -20.326  43.666  0.00  0.00     0.002 A 
ATOM      6  C   UNL d   1      46.644 -19.994  42.913  0.00  0.00     0.020 A 
ATOM      7  C   UNL d   1      46.636 -19.839  44.332  0.00  0.00     0.011 A 
ENDROOT
BRANCH   1   8
ATOM      8  N   UNL d   1      46.647 -18.839  42.063  0.00  0.00    -0.056 NA
ATOM      9  C   UNL d   1      46.641 -19.325  41.399  0.00  0.00     0.787 C 
ATOM     10  N   UNL d   1      46.645 -18.999  40.643  0.00  0.00     0.064 N 
ATOM     11  N   UNL d   1      46.632 -20.144  41.496  0.00  0.00     0.064 N 
ENDBRANCH   1   8
TORSDOF 1
ENDMDL
MODEL 4
REMARK VINA RESULT:       2.7      7.244      7.621
REMARK  1 active torsions:
REMARK  status: ('A' for Active; 'I' for Inactive)
REMARK       I    between atoms: N_2  and  C_1 
REMARK    1  A    between atoms: C_4  and  N_2 
ROOT
ATOM      1  C   UNL d   1      45.075 -15.003  36.576  0.00  0.00     0.101 A 
ATOM      2  C   UNL d   1      45.286 -14.373  37.066  0.00  0.00     0.031 A 
ATOM      3  C   UNL d   1      46.076 -14.285  37.309  0.00  0.00     0.059 A 
ATOM      4 CL   UNL d   1      46.286 -13.655  37.798  0.00  0.00    -0.082 Cl
ATOM      5  C   UNL d   1      46.436 -15.455  36.573  0.00  0.00     0.002 A 
ATOM      6  C   UNL d   1      45.654 -15.545  36.331  0.00  0.00     0.020 A 
ATOM      7  C   UNL d   1      46.647 -14.825  37.062  0.00  0.00     0.011 A 
ENDROOT
BRANCH   1   8
ATOM      8  N   UNL d   1      44.294 -15.096  36.332  0.00  0.00    -0.056 NA
ATOM      9  C   UNL d   1      43.853 -15.744  36.585  0.00  0.00     0.787 C 
ATOM     10  N   UNL d   1      43.073 -15.839  36.342  0.00  0.00     0.064 N 
ATOM     11  N   UNL d   1      44.201 -16.299  37.086  0.00  0.00     0.064 N 
ENDBRANCH   1   8
TORSDOF 1
ENDMDL
