MODEL 1
REMARK VINA RESULT:      77.5      0.000      0.000
REMARK  4 active torsions:
REMARK  status: ('A' for Active; 'I' for Inactive)
REMARK    1  A    between atoms: C_11  and  N_2 
REMARK    2  A    between atoms: N_3  and  C_14 
REMARK    3  A    between atoms: C_16  and  C_11 
REMARK    4  A    between atoms: C_14  and  C_16 
ROOT
ATOM      1  C   UNL d   1      59.282  48.989  50.531  0.00  0.00     0.231 C 
ATOM      2  O   UNL d   1      58.892  48.274  50.394  0.00  0.00    -0.283 OA
ENDROOT
BRANCH   1   3
ATOM      3  C   UNL d   1      58.879  49.706  50.447  0.00  0.00     0.124 C 
BRANCH   3   4
ATOM      4  N   UNL d   1      58.063  49.705  50.310  0.00  0.00    -0.303 N 
ATOM      5  C   UNL d   1      57.689  49.703  49.563  0.00  0.00     0.064 A 
ATOM      6  C   UNL d   1      56.870  49.703  49.691  0.00  0.00     0.018 A 
ATOM      7  C   UNL d   1      58.069  49.703  48.829  0.00  0.00     0.019 C 
ATOM      8  C   UNL d   1      56.292  49.701  49.105  0.00  0.00     0.002 C 
ATOM      9  C   UNL d   1      56.734  49.703  50.508  0.00  0.00     0.018 A 
ATOM     10  C   UNL d   1      57.474  49.705  50.892  0.00  0.00     0.064 A 
ATOM     11  C   UNL d   1      56.035  49.703  50.959  0.00  0.00     0.002 A 
ATOM     12  C   UNL d   1      57.508  49.705  51.723  0.00  0.00     0.018 A 
ATOM     13  C   UNL d   1      56.814  49.705  52.165  0.00  0.00     0.002 A 
ATOM     14  C   UNL d   1      56.081  49.704  51.785  0.00  0.00     0.000 A 
ENDBRANCH   3   4
ENDBRANCH   1   3
BRANCH   1  15
ATOM     15  C   UNL d   1      60.072  48.986  50.751  0.00  0.00     0.138 C 
BRANCH  15  16
ATOM     16  N   UNL d   1      60.545  48.319  50.610  0.00  0.00    -0.194 N 
ATOM     17  S   UNL d   1      61.255  48.306  50.194  0.00  0.00     0.274 S 
ATOM     18  C   UNL d   1      61.532  47.529  50.192  0.00  0.00     0.109 A 
ATOM     19  O   UNL d   1      61.157  49.117  50.083  0.00  0.00    -0.200 OA
ATOM     20  O   UNL d   1      61.963  48.116  49.815  0.00  0.00    -0.200 OA
ATOM     21  C   UNL d   1      60.991  47.066  50.608  0.00  0.00     0.069 A 
ATOM     22  C   UNL d   1      62.199  47.181  49.870  0.00  0.00     0.013 A 
ATOM     23  C   UNL d   1      61.120  46.262  50.699  0.00  0.00     0.005 A 
ATOM     24  C   UNL d   1      60.380  47.555  50.866  0.00  0.00     0.275 A 
ATOM     25  C   UNL d   1      61.789  45.919  50.375  0.00  0.00     0.000 A 
ATOM     26  C   UNL d   1      62.329  46.381  49.960  0.00  0.00     0.001 A 
ATOM     27  O   UNL d   1      59.722  47.321  51.303  0.00  0.00    -0.266 OA
ENDBRANCH  15  16
ENDBRANCH   1  15
TORSDOF 4
ENDMDL
