MODEL 1
REMARK VINA RESULT:      50.4      0.000      0.000
REMARK  5 active torsions:
REMARK  status: ('A' for Active; 'I' for Inactive)
REMARK    1  A    between atoms: C_8  and  C_1 
REMARK    2  A    between atoms: N_4  and  C_2 
REMARK       I    between atoms: C_6  and  N_4 
REMARK    3  A    between atoms: C_11  and  C_6 
REMARK    4  A    between atoms: O_12  and  C_8 
REMARK    5  A    between atoms: C_17  and  O_12 
ROOT
ATOM      1  C   UNL d   1     -50.837  24.157  33.520  0.00  0.00     0.181 A 
ATOM      2  C   UNL d   1     -51.160  24.914  33.640  0.00  0.00     0.115 A 
ATOM      3  O   UNL d   1     -51.473  23.644  33.375  0.00  0.00    -0.300 OA
ATOM      4  C   UNL d   1     -51.973  24.859  33.569  0.00  0.00     0.043 A 
ATOM      5  C   UNL d   1     -52.170  24.073  33.405  0.00  0.00     0.102 A 
ATOM      6  C   UNL d   1     -52.568  25.427  33.634  0.00  0.00     0.004 A 
ATOM      7  C   UNL d   1     -52.955  23.860  33.306  0.00  0.00     0.025 A 
ATOM      8  C   UNL d   1     -53.361  25.209  33.533  0.00  0.00     0.000 A 
ATOM      9  C   UNL d   1     -53.549  24.420  33.369  0.00  0.00     0.002 A 
ENDROOT
BRANCH   2  10
ATOM     10  N   UNL d   1     -50.725  25.604  33.804  0.00  0.00    -0.206 NA
ATOM     11  C   UNL d   1     -51.059  26.342  33.657  0.00  0.00     0.279 C 
ATOM     12  O   UNL d   1     -51.821  26.400  33.349  0.00  0.00    -0.265 OA
BRANCH  11  13
ATOM     13  C   UNL d   1     -50.629  27.023  33.819  0.00  0.00     0.058 A 
ATOM     14  C   UNL d   1     -50.160  27.069  34.509  0.00  0.00     0.005 A 
ATOM     15  C   UNL d   1     -49.736  27.744  34.667  0.00  0.00     0.000 A 
ATOM     16  C   UNL d   1     -49.769  28.382  34.145  0.00  0.00     0.000 A 
ATOM     17  C   UNL d   1     -50.228  28.336  33.469  0.00  0.00     0.000 A 
ATOM     18  C   UNL d   1     -50.663  27.646  33.306  0.00  0.00     0.005 A 
ENDBRANCH  11  13
ENDBRANCH   2  10
BRANCH   1  19
ATOM     19  C   UNL d   1     -50.037  23.955  33.540  0.00  0.00     0.325 C 
ATOM     20  O   UNL d   1     -49.808  23.202  33.799  0.00  0.00    -0.257 OA
BRANCH  19  21
ATOM     21  O   UNL d   1     -49.475  24.501  33.306  0.00  0.00    -0.269 OA
BRANCH  21  22
ATOM     22  C   UNL d   1     -48.757  24.562  33.721  0.00  0.00     0.126 C 
ATOM     23  C   UNL d   1     -48.059  24.741  33.308  0.00  0.00     0.029 C 
ENDBRANCH  21  22
ENDBRANCH  19  21
ENDBRANCH   1  19
TORSDOF 5
ENDMDL
