MODEL 1
REMARK VINA RESULT:      22.3      0.000      0.000
REMARK  3 active torsions:
REMARK  status: ('A' for Active; 'I' for Inactive)
REMARK    1  A    between atoms: N_3  and  C_2 
REMARK       I    between atoms: C_4  and  N_3 
REMARK    2  A    between atoms: C_10  and  N_3 
REMARK    3  A    between atoms: C_12  and  C_4 
ROOT
ATOM      1  N   UNL d   1      46.025 -18.004  43.508  0.00  0.00    -0.274 N 
ATOM      2  C   UNL d   1      45.882 -18.206  42.280  0.00  0.00     0.265 C 
ATOM      3  O   UNL d   1      45.721 -17.532  41.879  0.00  0.00    -0.267 OA
ENDROOT
BRANCH   1   4
ATOM      4  C   UNL d   1      46.185 -18.640  43.944  0.00  0.00     0.079 A 
ATOM      5  C   UNL d   1      45.926 -19.371  43.808  0.00  0.00     0.116 A 
ATOM      6  S   UNL d   1      46.213 -19.836  44.371  0.00  0.00     0.213 S 
ATOM      7  C   UNL d   1      46.646 -19.390  44.851  0.00  0.00     0.100 A 
ATOM      8  O   UNL d   1      46.499 -20.302  44.934  0.00  0.00    -0.217 OA
ATOM      9  O   UNL d   1      45.790 -20.308  43.914  0.00  0.00    -0.217 OA
ATOM     10  C   UNL d   1      46.628 -18.656  44.589  0.00  0.00     0.030 A 
ENDBRANCH   1   4
BRANCH   1  11
ATOM     11  C   UNL d   1      45.956 -17.249  43.837  0.00  0.00     0.067 A 
ATOM     12  C   UNL d   1      46.371 -16.627  43.501  0.00  0.00     0.020 A 
ATOM     13  C   UNL d   1      46.304 -15.854  43.833  0.00  0.00     0.031 A 
ATOM     14  C   UNL d   1      45.820 -15.731  44.494  0.00  0.00     0.140 A 
ATOM     15  C   UNL d   1      45.405 -16.360  44.827  0.00  0.00     0.031 A 
ATOM     16  F   UNL d   1      45.751 -14.980  44.821  0.00  0.00    -0.204 F 
ATOM     17  C   UNL d   1      45.460 -17.121  44.514  0.00  0.00     0.020 A 
ENDBRANCH   1  11
BRANCH   2  18
ATOM     18  C   UNL d   1      45.946 -18.954  41.927  0.00  0.00     0.057 C 
ATOM     19  C   UNL d   1      46.645 -19.175  41.520  0.00  0.00     0.005 C 
ATOM     20  C   UNL d   1      45.302 -19.497  41.979  0.00  0.00     0.005 C 
ENDBRANCH   2  18
TORSDOF 3
ENDMDL
MODEL 2
REMARK VINA RESULT:      22.7      1.599      2.938
REMARK  3 active torsions:
REMARK  status: ('A' for Active; 'I' for Inactive)
REMARK    1  A    between atoms: N_3  and  C_2 
REMARK       I    between atoms: C_4  and  N_3 
REMARK    2  A    between atoms: C_10  and  N_3 
REMARK    3  A    between atoms: C_12  and  C_4 
ROOT
ATOM      1  N   UNL d   1      46.130 -18.303  43.133  0.00  0.00    -0.274 N 
ATOM      2  C   UNL d   1      46.034 -17.124  43.548  0.00  0.00     0.265 C 
ATOM      3  O   UNL d   1      46.109 -16.589  42.956  0.00  0.00    -0.267 OA
ENDROOT
BRANCH   1   4
ATOM      4  C   UNL d   1      46.062 -18.865  43.681  0.00  0.00     0.079 A 
ATOM      5  C   UNL d   1      45.588 -19.492  43.643  0.00  0.00     0.116 A 
ATOM      6  S   UNL d   1      45.691 -19.911  44.299  0.00  0.00     0.213 S 
ATOM      7  C   UNL d   1      46.227 -19.539  44.737  0.00  0.00     0.100 A 
ATOM      8  O   UNL d   1      45.793 -20.330  44.955  0.00  0.00    -0.217 OA
ATOM      9  O   UNL d   1      45.156 -20.305  43.889  0.00  0.00    -0.217 OA
ATOM     10  C   UNL d   1      46.454 -18.898  44.357  0.00  0.00     0.030 A 
ENDBRANCH   1   4
BRANCH   1  11
ATOM     11  C   UNL d   1      46.256 -18.476  42.335  0.00  0.00     0.067 A 
ATOM     12  C   UNL d   1      46.120 -17.895  41.774  0.00  0.00     0.020 A 
ATOM     13  C   UNL d   1      46.247 -18.067  40.957  0.00  0.00     0.031 A 
ATOM     14  C   UNL d   1      46.509 -18.820  40.732  0.00  0.00     0.140 A 
ATOM     15  C   UNL d   1      46.644 -19.400  41.301  0.00  0.00     0.031 A 
ATOM     16  F   UNL d   1      46.634 -18.992  39.938  0.00  0.00    -0.204 F 
ATOM     17  C   UNL d   1      46.524 -19.247  42.102  0.00  0.00     0.020 A 
ENDBRANCH   1  11
BRANCH   2  18
ATOM     18  C   UNL d   1      45.908 -16.926  44.342  0.00  0.00     0.057 C 
ATOM     19  C   UNL d   1      45.158 -16.653  44.600  0.00  0.00     0.005 C 
ATOM     20  C   UNL d   1      46.540 -16.999  44.897  0.00  0.00     0.005 C 
ENDBRANCH   2  18
TORSDOF 3
ENDMDL
MODEL 3
REMARK VINA RESULT:      23.1      1.144      2.229
REMARK  3 active torsions:
REMARK  status: ('A' for Active; 'I' for Inactive)
REMARK    1  A    between atoms: N_3  and  C_2 
REMARK       I    between atoms: C_4  and  N_3 
REMARK    2  A    between atoms: C_10  and  N_3 
REMARK    3  A    between atoms: C_12  and  C_4 
ROOT
ATOM      1  N   UNL d   1      45.917 -18.073  43.490  0.00  0.00    -0.274 N 
ATOM      2  C   UNL d   1      45.893 -19.126  44.168  0.00  0.00     0.265 C 
ATOM      3  O   UNL d   1      45.831 -18.978  44.953  0.00  0.00    -0.267 OA
ENDROOT
BRANCH   1   4
ATOM      4  C   UNL d   1      45.977 -18.169  42.710  0.00  0.00     0.079 A 
ATOM      5  C   UNL d   1      45.377 -18.244  42.206  0.00  0.00     0.116 A 
ATOM      6  S   UNL d   1      45.677 -18.327  41.486  0.00  0.00     0.213 S 
ATOM      7  C   UNL d   1      46.460 -18.303  41.550  0.00  0.00     0.100 A 
ATOM      8  O   UNL d   1      45.978 -18.411  40.765  0.00  0.00    -0.217 OA
ATOM      9  O   UNL d   1      44.904 -18.356  41.387  0.00  0.00    -0.217 OA
ATOM     10  C   UNL d   1      46.643 -18.205  42.301  0.00  0.00     0.030 A 
ENDBRANCH   1   4
BRANCH   1  11
ATOM     11  C   UNL d   1      45.872 -17.326  43.841  0.00  0.00     0.067 A 
ATOM     12  C   UNL d   1      45.513 -16.714  43.434  0.00  0.00     0.020 A 
ATOM     13  C   UNL d   1      45.464 -15.949  43.788  0.00  0.00     0.031 A 
ATOM     14  C   UNL d   1      45.781 -15.826  44.544  0.00  0.00     0.140 A 
ATOM     15  C   UNL d   1      46.142 -16.446  44.949  0.00  0.00     0.031 A 
ATOM     16  F   UNL d   1      45.737 -15.083  44.894  0.00  0.00    -0.204 F 
ATOM     17  C   UNL d   1      46.196 -17.198  44.615  0.00  0.00     0.020 A 
ENDBRANCH   1  11
BRANCH   2  18
ATOM     18  C   UNL d   1      45.936 -19.885  43.839  0.00  0.00     0.057 C 
ATOM     19  C   UNL d   1      46.646 -20.330  43.883  0.00  0.00     0.005 C 
ATOM     20  C   UNL d   1      45.260 -20.214  43.455  0.00  0.00     0.005 C 
ENDBRANCH   2  18
TORSDOF 3
ENDMDL
