MODEL 1
REMARK VINA RESULT:      -9.8      0.000      0.000
REMARK  3 active torsions:
REMARK  status: ('A' for Active; 'I' for Inactive)
REMARK    1  A    between atoms: C_8  and  N_2 
REMARK    2  A    between atoms: C_6  and  C_3 
REMARK    3  A    between atoms: C_7  and  C_4 
ROOT
ATOM      1  N   UNL d   1      52.727  31.895  53.129  0.00  0.00    -0.159 NA
ATOM      2  N   UNL d   1      53.077  32.566  53.474  0.00  0.00    -0.234 N 
ATOM      3  C   UNL d   1      53.186  31.254  53.307  0.00  0.00     0.167 A 
ATOM      4  C   UNL d   1      53.750  32.326  53.860  0.00  0.00     0.062 A 
ATOM      5  C   UNL d   1      53.826  31.511  53.762  0.00  0.00     0.042 A 
ENDROOT
BRANCH   2   6
ATOM      6  C   UNL d   1      52.759  33.324  53.407  0.00  0.00     0.083 A 
ATOM      7  C   UNL d   1      52.222  33.600  53.959  0.00  0.00     0.019 A 
ATOM      8  C   UNL d   1      51.911  34.352  53.887  0.00  0.00     0.002 A 
ATOM      9  C   UNL d   1      52.133  34.832  53.268  0.00  0.00     0.000 A 
ATOM     10  C   UNL d   1      52.670  34.557  52.716  0.00  0.00     0.002 A 
ATOM     11  C   UNL d   1      52.988  33.799  52.783  0.00  0.00     0.019 A 
ENDBRANCH   2   6
BRANCH   4  12
ATOM     12  C   UNL d   1      54.280  32.809  54.286  0.00  0.00     0.036 C 
ATOM     13  C   UNL d   1      54.809  33.292  54.712  0.00  0.00     0.006 C 
ATOM     14  C   UNL d   1      53.834  32.686  54.980  0.00  0.00     0.006 C 
ATOM     15  C   UNL d   1      54.723  32.929  53.591  0.00  0.00     0.006 C 
ENDBRANCH   4  12
BRANCH   3  16
ATOM     16  C   UNL d   1      53.040  30.473  53.073  0.00  0.00     0.231 C 
ATOM     17  O   UNL d   1      53.027  29.869  53.635  0.00  0.00    -0.643 OA
ATOM     18  O   UNL d   1      52.910  30.307  52.279  0.00  0.00    -0.643 OA
ENDBRANCH   3  16
TORSDOF 3
ENDMDL
MODEL 2
REMARK VINA RESULT:      -9.8      0.575      2.118
REMARK  3 active torsions:
REMARK  status: ('A' for Active; 'I' for Inactive)
REMARK    1  A    between atoms: C_8  and  N_2 
REMARK    2  A    between atoms: C_6  and  C_3 
REMARK    3  A    between atoms: C_7  and  C_4 
ROOT
ATOM      1  N   UNL d   1      53.607  31.518  53.670  0.00  0.00    -0.159 NA
ATOM      2  N   UNL d   1      53.547  32.342  53.767  0.00  0.00    -0.234 N 
ATOM      3  C   UNL d   1      53.011  31.281  53.178  0.00  0.00     0.167 A 
ATOM      4  C   UNL d   1      52.912  32.600  53.330  0.00  0.00     0.062 A 
ATOM      5  C   UNL d   1      52.572  31.946  52.961  0.00  0.00     0.042 A 
ENDROOT
BRANCH   2   6
ATOM      6  C   UNL d   1      54.066  32.779  54.236  0.00  0.00     0.083 A 
ATOM      7  C   UNL d   1      54.732  33.124  53.908  0.00  0.00     0.019 A 
ATOM      8  C   UNL d   1      55.243  33.555  54.378  0.00  0.00     0.002 A 
ATOM      9  C   UNL d   1      55.093  33.646  55.174  0.00  0.00     0.000 A 
ATOM     10  C   UNL d   1      54.428  33.302  55.502  0.00  0.00     0.002 A 
ATOM     11  C   UNL d   1      53.909  32.865  55.032  0.00  0.00     0.019 A 
ENDBRANCH   2   6
BRANCH   4  12
ATOM     12  C   UNL d   1      52.641  33.385  53.260  0.00  0.00     0.036 C 
ATOM     13  C   UNL d   1      52.369  34.170  53.191  0.00  0.00     0.006 C 
ATOM     14  C   UNL d   1      52.112  33.258  53.893  0.00  0.00     0.006 C 
ATOM     15  C   UNL d   1      53.170  33.508  52.629  0.00  0.00     0.006 C 
ENDBRANCH   4  12
BRANCH   3  16
ATOM     16  C   UNL d   1      52.865  30.503  52.933  0.00  0.00     0.231 C 
ATOM     17  O   UNL d   1      52.661  29.926  53.488  0.00  0.00    -0.643 OA
ATOM     18  O   UNL d   1      52.925  30.312  52.136  0.00  0.00    -0.643 OA
ENDBRANCH   3  16
TORSDOF 3
ENDMDL
MODEL 3
REMARK VINA RESULT:      -8.6      1.796      2.455
REMARK  3 active torsions:
REMARK  status: ('A' for Active; 'I' for Inactive)
REMARK    1  A    between atoms: C_8  and  N_2 
REMARK    2  A    between atoms: C_6  and  C_3 
REMARK    3  A    between atoms: C_7  and  C_4 
ROOT
ATOM      1  N   UNL d   1      53.543  33.791  54.446  0.00  0.00    -0.159 NA
ATOM      2  N   UNL d   1      53.129  33.319  53.900  0.00  0.00    -0.234 N 
ATOM      3  C   UNL d   1      54.153  33.353  54.744  0.00  0.00     0.167 A 
ATOM      4  C   UNL d   1      53.494  32.593  53.872  0.00  0.00     0.062 A 
ATOM      5  C   UNL d   1      54.132  32.605  54.394  0.00  0.00     0.042 A 
ENDROOT
BRANCH   2   6
ATOM      6  C   UNL d   1      52.469  33.585  53.484  0.00  0.00     0.083 A 
ATOM      7  C   UNL d   1      51.714  33.407  53.744  0.00  0.00     0.019 A 
ATOM      8  C   UNL d   1      51.064  33.674  53.327  0.00  0.00     0.002 A 
ATOM      9  C   UNL d   1      51.162  34.117  52.650  0.00  0.00     0.000 A 
ATOM     10  C   UNL d   1      51.917  34.295  52.390  0.00  0.00     0.002 A 
ATOM     11  C   UNL d   1      52.577  34.029  52.807  0.00  0.00     0.019 A 
ENDBRANCH   2   6
BRANCH   4  12
ATOM     12  C   UNL d   1      53.272  31.942  53.400  0.00  0.00     0.036 C 
ATOM     13  C   UNL d   1      53.049  31.291  52.931  0.00  0.00     0.006 C 
ATOM     14  C   UNL d   1      52.777  31.668  54.014  0.00  0.00     0.006 C 
ATOM     15  C   UNL d   1      53.767  32.218  52.791  0.00  0.00     0.006 C 
ENDBRANCH   4  12
BRANCH   3  16
ATOM     16  C   UNL d   1      54.705  33.609  55.307  0.00  0.00     0.231 C 
ATOM     17  O   UNL d   1      55.222  34.226  55.126  0.00  0.00    -0.643 OA
ATOM     18  O   UNL d   1      54.732  33.243  56.042  0.00  0.00    -0.643 OA
ENDBRANCH   3  16
TORSDOF 3
ENDMDL
MODEL 4
REMARK VINA RESULT:      -8.6      1.680      2.746
REMARK  3 active torsions:
REMARK  status: ('A' for Active; 'I' for Inactive)
REMARK    1  A    between atoms: C_8  and  N_2 
REMARK    2  A    between atoms: C_6  and  C_3 
REMARK    3  A    between atoms: C_7  and  C_4 
ROOT
ATOM      1  N   UNL d   1      52.617  33.654  53.619  0.00  0.00    -0.159 NA
ATOM      2  N   UNL d   1      53.190  33.080  53.808  0.00  0.00    -0.234 N 
ATOM      3  C   UNL d   1      52.062  33.306  53.146  0.00  0.00     0.167 A 
ATOM      4  C   UNL d   1      52.975  32.385  53.446  0.00  0.00     0.062 A 
ATOM      5  C   UNL d   1      52.275  32.516  53.032  0.00  0.00     0.042 A 
ENDROOT
BRANCH   2   6
ATOM      6  C   UNL d   1      53.844  33.237  54.284  0.00  0.00     0.083 A 
ATOM      7  C   UNL d   1      54.550  33.485  53.953  0.00  0.00     0.019 A 
ATOM      8  C   UNL d   1      55.195  33.639  54.430  0.00  0.00     0.002 A 
ATOM      9  C   UNL d   1      55.141  33.547  55.238  0.00  0.00     0.000 A 
ATOM     10  C   UNL d   1      54.435  33.298  55.570  0.00  0.00     0.002 A 
ATOM     11  C   UNL d   1      53.781  33.142  55.093  0.00  0.00     0.019 A 
ENDBRANCH   2   6
BRANCH   4  12
ATOM     12  C   UNL d   1      53.384  31.658  53.480  0.00  0.00     0.036 C 
ATOM     13  C   UNL d   1      53.791  30.933  53.514  0.00  0.00     0.006 C 
ATOM     14  C   UNL d   1      52.918  31.428  54.133  0.00  0.00     0.006 C 
ATOM     15  C   UNL d   1      53.846  31.893  52.827  0.00  0.00     0.006 C 
ENDBRANCH   4  12
BRANCH   3  16
ATOM     16  C   UNL d   1      51.393  33.678  52.829  0.00  0.00     0.231 C 
ATOM     17  O   UNL d   1      51.459  34.135  52.145  0.00  0.00    -0.643 OA
ATOM     18  O   UNL d   1      50.666  33.588  53.202  0.00  0.00    -0.643 OA
ENDBRANCH   3  16
TORSDOF 3
ENDMDL
MODEL 5
REMARK VINA RESULT:      -8.5      1.613      2.897
REMARK  3 active torsions:
REMARK  status: ('A' for Active; 'I' for Inactive)
REMARK    1  A    between atoms: C_8  and  N_2 
REMARK    2  A    between atoms: C_6  and  C_3 
REMARK    3  A    between atoms: C_7  and  C_4 
ROOT
ATOM      1  N   UNL d   1      52.122  32.541  53.087  0.00  0.00    -0.159 NA
ATOM      2  N   UNL d   1      52.847  32.264  53.389  0.00  0.00    -0.234 N 
ATOM      3  C   UNL d   1      52.128  33.348  53.123  0.00  0.00     0.167 A 
ATOM      4  C   UNL d   1      53.289  32.911  53.606  0.00  0.00     0.062 A 
ATOM      5  C   UNL d   1      52.850  33.589  53.444  0.00  0.00     0.042 A 
ENDROOT
BRANCH   2   6
ATOM      6  C   UNL d   1      53.038  31.464  53.439  0.00  0.00     0.083 A 
ATOM      7  C   UNL d   1      53.034  31.080  54.161  0.00  0.00     0.019 A 
ATOM      8  C   UNL d   1      53.224  30.286  54.204  0.00  0.00     0.002 A 
ATOM      9  C   UNL d   1      53.419  29.872  53.529  0.00  0.00     0.000 A 
ATOM     10  C   UNL d   1      53.423  30.256  52.807  0.00  0.00     0.002 A 
ATOM     11  C   UNL d   1      53.232  31.057  52.758  0.00  0.00     0.019 A 
ENDBRANCH   2   6
BRANCH   4  12
ATOM     12  C   UNL d   1      54.055  32.902  53.936  0.00  0.00     0.036 C 
ATOM     13  C   UNL d   1      54.820  32.894  54.267  0.00  0.00     0.006 C 
ATOM     14  C   UNL d   1      53.724  32.918  54.702  0.00  0.00     0.006 C 
ATOM     15  C   UNL d   1      54.381  32.887  53.170  0.00  0.00     0.006 C 
ENDBRANCH   4  12
BRANCH   3  16
ATOM     16  C   UNL d   1      51.515  33.849  52.879  0.00  0.00     0.231 C 
ATOM     17  O   UNL d   1      51.642  34.390  52.268  0.00  0.00    -0.643 OA
ATOM     18  O   UNL d   1      50.783  33.802  53.249  0.00  0.00    -0.643 OA
ENDBRANCH   3  16
TORSDOF 3
ENDMDL
MODEL 6
REMARK VINA RESULT:      -8.1      2.249      3.597
REMARK  3 active torsions:
REMARK  status: ('A' for Active; 'I' for Inactive)
REMARK    1  A    between atoms: C_8  and  N_2 
REMARK    2  A    between atoms: C_6  and  C_3 
REMARK    3  A    between atoms: C_7  and  C_4 
ROOT
ATOM      1  N   UNL d   1      52.993  34.027  54.233  0.00  0.00    -0.159 NA
ATOM      2  N   UNL d   1      52.599  33.689  53.582  0.00  0.00    -0.234 N 
ATOM      3  C   UNL d   1      52.802  34.812  54.261  0.00  0.00     0.167 A 
ATOM      4  C   UNL d   1      52.170  34.276  53.218  0.00  0.00     0.062 A 
ATOM      5  C   UNL d   1      52.290  34.978  53.634  0.00  0.00     0.042 A 
ENDROOT
BRANCH   2   6
ATOM      6  C   UNL d   1      52.664  32.893  53.380  0.00  0.00     0.083 A 
ATOM      7  C   UNL d   1      52.034  32.383  53.493  0.00  0.00     0.019 A 
ATOM      8  C   UNL d   1      52.105  31.594  53.291  0.00  0.00     0.002 A 
ATOM      9  C   UNL d   1      52.802  31.310  52.977  0.00  0.00     0.000 A 
ATOM     10  C   UNL d   1      53.432  31.820  52.864  0.00  0.00     0.002 A 
ATOM     11  C   UNL d   1      53.366  32.617  53.066  0.00  0.00     0.019 A 
ENDBRANCH   2   6
BRANCH   4  12
ATOM     12  C   UNL d   1      51.689  34.195  52.542  0.00  0.00     0.036 C 
ATOM     13  C   UNL d   1      51.207  34.114  51.867  0.00  0.00     0.006 C 
ATOM     14  C   UNL d   1      51.033  34.031  53.030  0.00  0.00     0.006 C 
ATOM     15  C   UNL d   1      52.347  34.359  52.059  0.00  0.00     0.006 C 
ENDBRANCH   4  12
BRANCH   3  16
ATOM     16  C   UNL d   1      53.073  35.358  54.822  0.00  0.00     0.231 C 
ATOM     17  O   UNL d   1      53.018  36.167  54.672  0.00  0.00    -0.643 OA
ATOM     18  O   UNL d   1      53.396  35.085  55.527  0.00  0.00    -0.643 OA
ENDBRANCH   3  16
TORSDOF 3
ENDMDL
