MODEL 1
REMARK VINA RESULT:       0.1      0.000      0.000
REMARK  4 active torsions:
REMARK  status: ('A' for Active; 'I' for Inactive)
REMARK    1  A    between atoms: C_6  and  C_1 
REMARK       I    between atoms: N_7  and  C_1 
REMARK    2  A    between atoms: N_3  and  C_5 
REMARK    3  A    between atoms: C_19  and  N_7 
REMARK    4  A    between atoms: C_8  and  C_10 
ROOT
ATOM      1  C   UNL d   1      56.235  -0.097  32.393  0.00  0.00     0.019 A 
ATOM      2  C   UNL d   1      55.029   0.037  33.511  0.00  0.00     0.085 A 
ATOM      3  C   UNL d   1      56.044  -0.732  32.872  0.00  0.00     0.003 A 
ATOM      4  C   UNL d   1      55.821   0.613  32.471  0.00  0.00     0.003 A 
ATOM      5  C   UNL d   1      55.441  -0.665  33.432  0.00  0.00     0.019 A 
ATOM      6  C   UNL d   1      55.218   0.680  33.030  0.00  0.00     0.019 A 
ENDROOT
BRANCH   1   7
ATOM      7  C   UNL d   1      56.838  -0.164  31.834  0.00  0.00     0.103 A 
ATOM      8  N   UNL d   1      57.000  -0.892  31.488  0.00  0.00    -0.147 NA
ATOM      9  N   UNL d   1      57.603  -0.959  30.929  0.00  0.00    -0.130 NA
ATOM     10  C   UNL d   1      58.043  -0.298  30.715  0.00  0.00     0.169 A 
ATOM     11  C   UNL d   1      57.881   0.434  31.062  0.00  0.00     0.041 A 
ATOM     12  C   UNL d   1      57.278   0.501  31.621  0.00  0.00     0.024 A 
BRANCH  10  13
ATOM     13  N   UNL d   1      58.646  -0.365  30.156  0.00  0.00    -0.288 N 
ATOM     14  C   UNL d   1      59.429  -0.255  30.379  0.00  0.00     0.082 A 
ATOM     15  C   UNL d   1      60.032  -0.322  29.820  0.00  0.00     0.019 A 
ATOM     16  C   UNL d   1      59.852  -0.499  29.038  0.00  0.00     0.003 A 
ATOM     17  C   UNL d   1      59.065  -0.610  28.812  0.00  0.00     0.019 A 
ATOM     18  C   UNL d   1      60.461  -0.564  28.485  0.00  0.00     0.000 C 
ATOM     19  C   UNL d   1      58.462  -0.543  29.371  0.00  0.00     0.082 A 
ENDBRANCH  10  13
ENDBRANCH   1   7
BRANCH   2  20
ATOM     20  N   UNL d   1      54.426   0.104  34.071  0.00  0.00    -0.206 NA
ATOM     21  C   UNL d   1      54.604   0.307  34.847  0.00  0.00     0.302 C 
ATOM     22  O   UNL d   1      53.999   0.374  35.409  0.00  0.00    -0.263 OA
BRANCH  21  23
ATOM     23  C   UNL d   1      55.388   0.443  35.067  0.00  0.00     0.158 A 
ATOM     24  O   UNL d   1      55.596   0.459  35.866  0.00  0.00    -0.300 OA
ATOM     25  C   UNL d   1      56.412   0.606  35.917  0.00  0.00     0.123 A 
ATOM     26  C   UNL d   1      56.702   0.680  35.148  0.00  0.00     0.029 A 
ATOM     27  C   UNL d   1      56.071   0.580  34.631  0.00  0.00     0.032 A 
ENDBRANCH  21  23
ENDBRANCH   2  20
TORSDOF 4
ENDMDL
