MODEL 1
REMARK VINA RESULT:     138.8      0.000      0.000
REMARK  7 active torsions:
REMARK  status: ('A' for Active; 'I' for Inactive)
REMARK       I    between atoms: N_2  and  C_13 
REMARK    1  A    between atoms: C_11  and  C_6 
REMARK    2  A    between atoms: C_14  and  C_7 
REMARK    3  A    between atoms: S_18  and  C_9 
REMARK    4  A    between atoms: C_13  and  C_19 
REMARK    5  A    between atoms: O_26  and  C_15 
REMARK    6  A    between atoms: C_19  and  S_18 
REMARK    7  A    between atoms: O_29  and  C_22 
ROOT
ATOM      1  N   UNL d   1      60.790  48.231  52.084  0.00  0.00    -0.194 N 
ATOM      2  N   UNL d   1      60.795  48.006  52.874  0.00  0.00    -0.162 NA
ATOM      3  C   UNL d   1      61.239  47.681  51.664  0.00  0.00     0.090 A 
ATOM      4  C   UNL d   1      61.250  47.315  52.936  0.00  0.00     0.109 A 
ATOM      5  C   UNL d   1      61.513  47.131  52.190  0.00  0.00     0.041 A 
ATOM      6  C   UNL d   1      60.410  48.877  51.782  0.00  0.00     0.287 C 
ATOM      7  O   UNL d   1      59.982  49.378  52.273  0.00  0.00    -0.265 OA
ENDROOT
BRANCH   6   8
ATOM      8  C   UNL d   1      60.449  49.043  50.973  0.00  0.00     0.100 C 
BRANCH   8   9
ATOM      9  S   UNL d   1      60.054  49.705  50.669  0.00  0.00    -0.054 SA
BRANCH   9  10
ATOM     10  C   UNL d   1      59.240  49.669  50.503  0.00  0.00     0.163 A 
ATOM     11  S   UNL d   1      58.621  49.626  51.074  0.00  0.00    -0.021 SA
ATOM     12  C   UNL d   1      57.894  49.600  50.663  0.00  0.00     0.200 A 
ATOM     13  N   UNL d   1      57.240  49.557  51.155  0.00  0.00    -0.182 NA
ATOM     14  N   UNL d   1      58.051  49.626  49.838  0.00  0.00    -0.204 N 
ATOM     15  C   UNL d   1      56.543  49.531  50.773  0.00  0.00     0.281 A 
ATOM     16  O   UNL d   1      56.209  49.498  51.540  0.00  0.00    -0.265 OA
ATOM     17  C   UNL d   1      56.294  49.538  49.951  0.00  0.00     0.064 A 
ATOM     18  C   UNL d   1      56.799  49.578  49.248  0.00  0.00     0.026 A 
ATOM     19  C   UNL d   1      57.637  49.619  49.240  0.00  0.00     0.103 A 
ATOM     20  N   UNL d   1      58.886  49.669  49.739  0.00  0.00    -0.150 NA
ENDBRANCH   9  10
ENDBRANCH   8   9
ENDBRANCH   6   8
BRANCH   3  21
ATOM     21  C   UNL d   1      61.369  47.709  50.859  0.00  0.00     0.042 A 
ATOM     22  C   UNL d   1      61.488  46.999  50.456  0.00  0.00     0.118 A 
ATOM     23  C   UNL d   1      61.622  47.013  49.636  0.00  0.00     0.116 A 
ATOM     24  C   UNL d   1      61.634  47.734  49.233  0.00  0.00     0.026 A 
ATOM     25  C   UNL d   1      61.516  48.433  49.639  0.00  0.00     0.002 A 
ATOM     26  C   UNL d   1      61.382  48.417  50.459  0.00  0.00     0.004 A 
BRANCH  22  27
ATOM     27  O   UNL d   1      61.477  46.280  50.855  0.00  0.00    -0.326 OA
ATOM     28  C   UNL d   1      61.282  45.601  50.436  0.00  0.00     0.181 C 
ENDBRANCH  22  27
BRANCH  23  29
ATOM     29  O   UNL d   1      61.740  46.306  49.235  0.00  0.00    -0.326 OA
ATOM     30  C   UNL d   1      62.470  46.146  48.886  0.00  0.00     0.181 C 
ENDBRANCH  23  29
ENDBRANCH   3  21
BRANCH   4  31
ATOM     31  C   UNL d   1      61.398  46.906  53.627  0.00  0.00     0.049 A 
ATOM     32  S   UNL d   1      62.138  46.679  53.906  0.00  0.00    -0.085 SA
ATOM     33  C   UNL d   1      62.026  46.278  54.624  0.00  0.00     0.035 A 
ATOM     34  C   UNL d   1      61.217  46.264  54.777  0.00  0.00     0.007 A 
ATOM     35  C   UNL d   1      60.843  46.655  54.154  0.00  0.00     0.009 A 
ENDBRANCH   4  31
TORSDOF 7
ENDMDL
