MODEL 1
REMARK VINA RESULT:      39.4      0.000      0.000
REMARK  8 active torsions:
REMARK  status: ('A' for Active; 'I' for Inactive)
REMARK    1  A    between atoms: N_10  and  C_1 
REMARK    2  A    between atoms: C_20  and  N_2 
REMARK    3  A    between atoms: C_4  and  S_13 
REMARK       I    between atoms: C_14  and  N_10 
REMARK       I    between atoms: C_12  and  N_18 
REMARK    4  A    between atoms: C_16  and  C_12 
REMARK    5  A    between atoms: S_13  and  C_19 
REMARK    6  A    between atoms: C_19  and  C_14 
REMARK    7  A    between atoms: N_18  and  C_22 
REMARK    8  A    between atoms: C_22  and  C_20 
ROOT
ATOM      1  N   UNL d   1      46.298 -17.893  43.462  0.00  0.00    -0.302 N 
ATOM      2  C   UNL d   1      46.178 -18.384  42.225  0.00  0.00     0.049 A 
ATOM      3  C   UNL d   1      46.163 -17.691  42.662  0.00  0.00     0.087 A 
ATOM      4  C   UNL d   1      46.321 -19.018  42.741  0.00  0.00     0.024 A 
ATOM      5  C   UNL d   1      46.394 -18.711  43.502  0.00  0.00     0.065 A 
ATOM      6  C   UNL d   1      46.391 -19.823  42.607  0.00  0.00     0.002 A 
ATOM      7  C   UNL d   1      46.538 -19.218  44.128  0.00  0.00     0.018 A 
ATOM      8  C   UNL d   1      46.536 -20.330  43.239  0.00  0.00     0.000 A 
ATOM      9  C   UNL d   1      46.611 -20.030  44.002  0.00  0.00     0.002 A 
ENDROOT
BRANCH   1  10
ATOM     10  C   UNL d   1      46.330 -17.374  44.098  0.00  0.00     0.101 C 
BRANCH  10  11
ATOM     11  C   UNL d   1      45.717 -16.839  44.224  0.00  0.00     0.121 C 
BRANCH  11  12
ATOM     12  N   UNL d   1      45.879 -16.026  44.243  0.00  0.00    -0.205 NA
ATOM     13  C   UNL d   1      45.295 -15.496  44.494  0.00  0.00     0.279 C 
ATOM     14  O   UNL d   1      44.551 -15.780  44.726  0.00  0.00    -0.265 OA
BRANCH  13  15
ATOM     15  C   UNL d   1      45.456 -14.692  44.511  0.00  0.00     0.058 A 
ATOM     16  C   UNL d   1      44.984 -14.169  44.116  0.00  0.00     0.005 A 
ATOM     17  C   UNL d   1      45.132 -13.360  44.124  0.00  0.00     0.000 A 
ATOM     18  C   UNL d   1      45.780 -13.070  44.545  0.00  0.00     0.000 A 
ATOM     19  C   UNL d   1      46.272 -13.598  44.955  0.00  0.00     0.000 A 
ATOM     20  C   UNL d   1      46.109 -14.409  44.937  0.00  0.00     0.005 A 
ENDBRANCH  13  15
ENDBRANCH  11  12
ENDBRANCH  10  11
ENDBRANCH   1  10
BRANCH   2  21
ATOM     21  S   UNL d   1      46.070 -18.445  41.409  0.00  0.00    -0.080 SA
BRANCH  21  22
ATOM     22  C   UNL d   1      45.403 -18.110  41.062  0.00  0.00     0.098 C 
BRANCH  22  23
ATOM     23  C   UNL d   1      45.422 -17.876  40.265  0.00  0.00     0.288 C 
ATOM     24  N   UNL d   1      44.864 -17.345  39.986  0.00  0.00    -0.181 NA
ATOM     25  O   UNL d   1      45.997 -18.179  39.764  0.00  0.00    -0.265 OA
BRANCH  24  26
ATOM     26  C   UNL d   1      44.875 -17.105  39.192  0.00  0.00     0.219 A 
ATOM     27  S   UNL d   1      44.319 -16.637  38.816  0.00  0.00    -0.026 SA
ATOM     28  C   UNL d   1      44.556 -16.543  38.031  0.00  0.00     0.135 A 
ATOM     29  C   UNL d   1      44.155 -16.110  37.453  0.00  0.00     0.030 C 
ATOM     30  N   UNL d   1      45.252 -16.947  37.913  0.00  0.00    -0.139 NA
ATOM     31  N   UNL d   1      45.458 -17.299  38.630  0.00  0.00    -0.121 NA
ENDBRANCH  24  26
ENDBRANCH  22  23
ENDBRANCH  21  22
ENDBRANCH   2  21
TORSDOF 8
ENDMDL
MODEL 2
REMARK VINA RESULT:      40.3      1.402      5.199
REMARK  8 active torsions:
REMARK  status: ('A' for Active; 'I' for Inactive)
REMARK    1  A    between atoms: N_10  and  C_1 
REMARK    2  A    between atoms: C_20  and  N_2 
REMARK    3  A    between atoms: C_4  and  S_13 
REMARK       I    between atoms: C_14  and  N_10 
REMARK       I    between atoms: C_12  and  N_18 
REMARK    4  A    between atoms: C_16  and  C_12 
REMARK    5  A    between atoms: S_13  and  C_19 
REMARK    6  A    between atoms: C_19  and  C_14 
REMARK    7  A    between atoms: N_18  and  C_22 
REMARK    8  A    between atoms: C_22  and  C_20 
ROOT
ATOM      1  N   UNL d   1      46.295 -18.023  41.196  0.00  0.00    -0.302 N 
ATOM      2  C   UNL d   1      46.109 -17.926  42.516  0.00  0.00     0.049 A 
ATOM      3  C   UNL d   1      46.118 -17.495  41.820  0.00  0.00     0.087 A 
ATOM      4  C   UNL d   1      46.279 -18.718  42.338  0.00  0.00     0.024 A 
ATOM      5  C   UNL d   1      46.393 -18.774  41.523  0.00  0.00     0.065 A 
ATOM      6  C   UNL d   1      46.342 -19.382  42.814  0.00  0.00     0.002 A 
ATOM      7  C   UNL d   1      46.570 -19.500  41.190  0.00  0.00     0.018 A 
ATOM      8  C   UNL d   1      46.521 -20.111  42.475  0.00  0.00     0.000 A 
ATOM      9  C   UNL d   1      46.635 -20.174  41.662  0.00  0.00     0.002 A 
ENDROOT
BRANCH   1  10
ATOM     10  C   UNL d   1      46.360 -17.834  40.399  0.00  0.00     0.101 C 
BRANCH  10  11
ATOM     11  C   UNL d   1      45.683 -17.728  39.944  0.00  0.00     0.121 C 
BRANCH  11  12
ATOM     12  N   UNL d   1      45.708 -17.235  39.278  0.00  0.00    -0.205 NA
ATOM     13  C   UNL d   1      45.010 -17.056  38.872  0.00  0.00     0.279 C 
ATOM     14  O   UNL d   1      44.289 -17.370  39.132  0.00  0.00    -0.265 OA
BRANCH  13  15
ATOM     15  C   UNL d   1      45.037 -16.568  38.213  0.00  0.00     0.058 A 
ATOM     16  C   UNL d   1      44.443 -16.583  37.666  0.00  0.00     0.005 A 
ATOM     17  C   UNL d   1      44.455 -16.100  37.000  0.00  0.00     0.000 A 
ATOM     18  C   UNL d   1      45.089 -15.584  36.883  0.00  0.00     0.000 A 
ATOM     19  C   UNL d   1      45.705 -15.561  37.440  0.00  0.00     0.000 A 
ATOM     20  C   UNL d   1      45.678 -16.053  38.103  0.00  0.00     0.005 A 
ENDBRANCH  13  15
ENDBRANCH  11  12
ENDBRANCH  10  11
ENDBRANCH   1  10
BRANCH   2  21
ATOM     21  S   UNL d   1      45.958 -17.627  43.270  0.00  0.00    -0.080 SA
BRANCH  21  22
ATOM     22  C   UNL d   1      46.464 -17.063  43.592  0.00  0.00     0.098 C 
BRANCH  22  23
ATOM     23  C   UNL d   1      46.158 -16.440  44.048  0.00  0.00     0.288 C 
ATOM     24  N   UNL d   1      46.020 -15.712  43.698  0.00  0.00    -0.181 NA
ATOM     25  O   UNL d   1      45.994 -16.558  44.843  0.00  0.00    -0.265 OA
BRANCH  24  26
ATOM     26  C   UNL d   1      45.714 -15.084  44.145  0.00  0.00     0.219 A 
ATOM     27  S   UNL d   1      46.035 -14.334  44.216  0.00  0.00    -0.026 SA
ATOM     28  C   UNL d   1      45.545 -13.895  44.715  0.00  0.00     0.135 A 
ATOM     29  C   UNL d   1      45.661 -13.109  44.938  0.00  0.00     0.030 C 
ATOM     30  N   UNL d   1      44.923 -14.363  44.954  0.00  0.00    -0.139 NA
ATOM     31  N   UNL d   1      45.021 -15.103  44.605  0.00  0.00    -0.121 NA
ENDBRANCH  24  26
ENDBRANCH  22  23
ENDBRANCH  21  22
ENDBRANCH   2  21
TORSDOF 8
ENDMDL
