MODEL 1
REMARK VINA RESULT:      59.0      0.000      0.000
REMARK  3 active torsions:
REMARK  status: ('A' for Active; 'I' for Inactive)
REMARK    1  A    between atoms: C_7  and  C_1 
REMARK    2  A    between atoms: C_10  and  N_2 
REMARK    3  A    between atoms: C_14  and  C_7 
ROOT
ATOM      1  C   UNL d   1      58.229  49.699  52.273  0.00  0.00     0.155 A 
ATOM      2  N   UNL d   1      58.304  49.697  51.446  0.00  0.00    -0.277 N 
ATOM      3  C   UNL d   1      59.049  49.694  51.115  0.00  0.00     0.153 A 
ATOM      4  C   UNL d   1      59.722  49.693  51.600  0.00  0.00     0.092 A 
ATOM      5  N   UNL d   1      58.899  49.698  52.756  0.00  0.00    -0.190 NA
ATOM      6  C   UNL d   1      59.639  49.696  52.408  0.00  0.00     0.283 A 
ATOM      7  N   UNL d   1      59.132  49.691  50.281  0.00  0.00    -0.228 NA
ATOM      8  C   UNL d   1      60.474  49.690  51.248  0.00  0.00     0.009 A 
ATOM      9  O   UNL d   1      60.317  49.695  52.887  0.00  0.00    -0.265 OA
ATOM     10  C   UNL d   1      60.545  49.688  50.433  0.00  0.00     0.019 A 
ATOM     11  C   UNL d   1      59.883  49.688  49.956  0.00  0.00     0.083 A 
ATOM     12  C   UNL d   1      61.144  49.690  51.730  0.00  0.00     0.000 C 
ATOM     13  C   UNL d   1      59.970  49.686  49.131  0.00  0.00     0.021 C 
ENDROOT
BRANCH   2  14
ATOM     14  C   UNL d   1      57.639  49.697  50.967  0.00  0.00     0.067 A 
ATOM     15  C   UNL d   1      56.898  49.695  51.301  0.00  0.00     0.018 A 
ATOM     16  C   UNL d   1      56.226  49.695  50.817  0.00  0.00     0.002 A 
ATOM     17  C   UNL d   1      56.299  49.698  50.002  0.00  0.00     0.000 A 
ATOM     18  C   UNL d   1      57.063  49.700  49.667  0.00  0.00     0.002 A 
ATOM     19  C   UNL d   1      57.729  49.700  50.147  0.00  0.00     0.018 A 
ENDBRANCH   2  14
BRANCH   1  20
ATOM     20  C   UNL d   1      57.481  49.702  52.613  0.00  0.00     0.080 C 
BRANCH  20  21
ATOM     21  C   UNL d   1      57.287  49.291  53.301  0.00  0.00     0.199 C 
ATOM     22  O   UNL d   1      57.728  49.563  54.034  0.00  0.00    -0.286 OA
ATOM     23  C   UNL d   1      56.578  48.492  53.373  0.00  0.00     0.045 C 
ENDBRANCH  20  21
ENDBRANCH   1  20
TORSDOF 3
ENDMDL
