MODEL 1
REMARK VINA RESULT:      83.0      0.000      0.000
REMARK  4 active torsions:
REMARK  status: ('A' for Active; 'I' for Inactive)
REMARK    1  A    between atoms: C_9  and  C_1 
REMARK    2  A    between atoms: C_8  and  C_6 
REMARK    3  A    between atoms: C_14  and  C_9 
REMARK    4  A    between atoms: C_15  and  C_10 
ROOT
ATOM      1  C   UNL d   1     -47.762  31.171  34.981  0.00  0.00     0.089 A 
ATOM      2  C   UNL d   1     -47.921  29.859  35.164  0.00  0.00     0.048 A 
ATOM      3  C   UNL d   1     -47.514  30.531  35.420  0.00  0.00     0.114 A 
ATOM      4  C   UNL d   1     -48.426  30.098  34.555  0.00  0.00     0.112 A 
ATOM      5  S   UNL d   1     -48.325  30.913  34.444  0.00  0.00    -0.063 SA
ATOM      6  C   UNL d   1     -47.901  29.066  35.400  0.00  0.00     0.076 A 
ATOM      7  N   UNL d   1     -48.905  29.540  34.190  0.00  0.00    -0.239 NA
ATOM      8  C   UNL d   1     -48.891  28.758  34.417  0.00  0.00     0.082 A 
ATOM      9  C   UNL d   1     -48.386  28.520  35.025  0.00  0.00     0.023 A 
ATOM     10  N   UNL d   1     -46.943  30.541  36.032  0.00  0.00    -0.147 N 
ENDROOT
BRANCH   1  11
ATOM     11  C   UNL d   1     -47.493  31.944  35.061  0.00  0.00     0.203 C 
ATOM     12  O   UNL d   1     -47.050  32.154  35.696  0.00  0.00    -0.286 OA
BRANCH  11  13
ATOM     13  C   UNL d   1     -47.686  32.501  34.479  0.00  0.00     0.040 A 
ATOM     14  C   UNL d   1     -48.438  32.831  34.435  0.00  0.00     0.003 A 
ATOM     15  C   UNL d   1     -48.619  33.377  33.861  0.00  0.00     0.000 A 
ATOM     16  C   UNL d   1     -48.034  33.609  33.306  0.00  0.00     0.000 A 
ATOM     17  C   UNL d   1     -47.288  33.287  33.345  0.00  0.00     0.000 A 
ATOM     18  C   UNL d   1     -47.101  32.734  33.924  0.00  0.00     0.003 A 
ENDBRANCH  11  13
ENDBRANCH   1  11
BRANCH   6  19
ATOM     19  C   UNL d   1     -47.397  28.829  36.007  0.00  0.00     0.419 C 
ATOM     20  F   UNL d   1     -46.900  28.594  36.606  0.00  0.00    -0.166 F 
ATOM     21  F   UNL d   1     -48.021  28.894  36.550  0.00  0.00    -0.166 F 
ATOM     22  F   UNL d   1     -46.779  28.764  35.468  0.00  0.00    -0.166 F 
ENDBRANCH   6  19
BRANCH   8  23
ATOM     23  C   UNL d   1     -49.371  28.200  34.052  0.00  0.00     0.018 A 
ATOM     24  C   UNL d   1     -50.070  28.447  33.680  0.00  0.00     0.002 A 
ATOM     25  C   UNL d   1     -50.569  27.903  33.306  0.00  0.00     0.000 A 
ATOM     26  C   UNL d   1     -50.352  27.092  33.310  0.00  0.00     0.000 A 
ATOM     27  C   UNL d   1     -49.653  26.845  33.681  0.00  0.00     0.000 A 
ATOM     28  C   UNL d   1     -49.173  27.409  34.047  0.00  0.00     0.002 A 
ENDBRANCH   8  23
TORSDOF 4
ENDMDL
