MODEL 1
REMARK VINA RESULT:      44.9      0.000      0.000
REMARK  5 active torsions:
REMARK  status: ('A' for Active; 'I' for Inactive)
REMARK    1  A    between atoms: C_10  and  N_3 
REMARK    2  A    between atoms: C_11  and  N_8 
REMARK    3  A    between atoms: C_14  and  C_10 
REMARK    4  A    between atoms: C_19  and  C_11 
REMARK    5  A    between atoms: C_20  and  C_19 
ROOT
ATOM      1  C   UNL d   1     -52.026  26.354  33.326  0.00  0.00     0.174 A 
ATOM      2  C   UNL d   1     -51.189  26.219  33.325  0.00  0.00     0.158 A 
ATOM      3  N   UNL d   1     -51.418  24.801  33.313  0.00  0.00    -0.219 N 
ATOM      4  N   UNL d   1     -52.141  27.147  33.333  0.00  0.00    -0.203 NA
ATOM      5  N   UNL d   1     -52.535  25.705  33.320  0.00  0.00    -0.240 N 
ATOM      6  C   UNL d   1     -52.255  24.936  33.314  0.00  0.00     0.343 A 
ATOM      7  C   UNL d   1     -50.882  25.439  33.319  0.00  0.00     0.287 A 
ATOM      8  N   UNL d   1     -50.805  26.932  33.331  0.00  0.00    -0.279 N 
ATOM      9  C   UNL d   1     -51.385  27.513  33.336  0.00  0.00     0.185 A 
ATOM     10  O   UNL d   1     -52.787  24.286  33.308  0.00  0.00    -0.245 OA
ATOM     11  O   UNL d   1     -50.062  25.307  33.318  0.00  0.00    -0.265 OA
ATOM     12 BR   UNL d   1     -51.190  28.341  33.343  0.00  0.00    -0.008 Br
ATOM     13  C   UNL d   1     -53.378  25.841  33.321  0.00  0.00     0.105 C 
ENDROOT
BRANCH   8  14
ATOM     14  C   UNL d   1     -49.970  27.100  33.333  0.00  0.00     0.082 C 
BRANCH  14  15
ATOM     15  C   UNL d   1     -49.413  26.671  33.758  0.00  0.00     0.019 C 
BRANCH  15  16
ATOM     16  C   UNL d   1     -48.814  27.021  34.176  0.00  0.00     0.002 C 
ATOM     17  C   UNL d   1     -48.820  27.027  34.992  0.00  0.00     0.000 C 
ATOM     18  C   UNL d   1     -48.190  27.376  33.750  0.00  0.00     0.000 C 
ENDBRANCH  15  16
ENDBRANCH  14  15
ENDBRANCH   8  14
BRANCH   3  19
ATOM     19  C   UNL d   1     -51.112  24.016  33.306  0.00  0.00     0.151 C 
BRANCH  19  20
ATOM     20  C   UNL d   1     -51.352  23.474  33.872  0.00  0.00     0.315 C 
ATOM     21  O   UNL d   1     -52.127  23.189  33.881  0.00  0.00    -0.262 OA
ATOM     22  N   UNL d   1     -50.808  23.216  34.432  0.00  0.00    -0.101 N 
ENDBRANCH  19  20
ENDBRANCH   3  19
TORSDOF 5
ENDMDL
