MODEL 1
REMARK VINA RESULT:       5.4      0.000      0.000
REMARK  8 active torsions:
REMARK  status: ('A' for Active; 'I' for Inactive)
REMARK    1  A    between atoms: C_20  and  N_7 
REMARK    2  A    between atoms: C_10  and  C_8 
REMARK       I    between atoms: N_18  and  C_10 
REMARK    3  A    between atoms: N_14  and  C_22 
REMARK    4  A    between atoms: C_21  and  N_18 
REMARK    5  A    between atoms: C_23  and  C_20 
REMARK    6  A    between atoms: C_22  and  C_21 
REMARK    7  A    between atoms: C_30  and  C_23 
REMARK    8  A    between atoms: O_27  and  C_30 
ROOT
ATOM      1  C   UNL d   1     -42.377-122.470 -49.621  0.00  0.00     0.154 A 
ATOM      2  C   UNL d   1     -41.752-122.291 -49.114  0.00  0.00     0.093 A 
ATOM      3  N   UNL d   1     -43.007-122.899 -49.353  0.00  0.00    -0.210 NA
ATOM      4  N   UNL d   1     -42.389-122.967 -48.088  0.00  0.00    -0.258 N 
ATOM      5  C   UNL d   1     -43.014-123.146 -48.595  0.00  0.00     0.152 A 
ATOM      6  C   UNL d   1     -41.752-122.537 -48.346  0.00  0.00     0.269 A 
ATOM      7  N   UNL d   1     -42.373-122.225 -50.375  0.00  0.00    -0.285 N 
ATOM      8  C   UNL d   1     -41.746-121.800 -50.637  0.00  0.00     0.137 A 
ATOM      9  C   UNL d   1     -41.130-121.623 -50.138  0.00  0.00     0.031 A 
ATOM     10  C   UNL d   1     -43.635-123.569 -48.334  0.00  0.00     0.035 A 
ATOM     11  C   UNL d   1     -42.383-123.211 -47.321  0.00  0.00     0.084 A 
ATOM     12  O   UNL d   1     -41.126-122.358 -47.839  0.00  0.00    -0.266 OA
ATOM     13  C   UNL d   1     -43.019-123.637 -47.073  0.00  0.00     0.019 A 
ATOM     14  C   UNL d   1     -43.645-123.816 -47.580  0.00  0.00     0.005 A 
ATOM     15  C   UNL d   1     -44.267-123.747 -48.855  0.00  0.00     0.003 C 
ENDROOT
BRANCH   8  16
ATOM     16  C   UNL d   1     -41.743-121.549 -51.411  0.00  0.00     0.344 C 
ATOM     17  O   UNL d   1     -42.043-120.810 -51.606  0.00  0.00    -0.249 OA
ATOM     18  N   UNL d   1     -41.431-122.056 -51.998  0.00  0.00    -0.359 NA
BRANCH  18  19
ATOM     19  C   UNL d   1     -41.123-122.554 -52.589  0.00  0.00     0.184 C 
BRANCH  19  20
ATOM     20  C   UNL d   1     -41.177-122.335 -53.395  0.00  0.00     0.116 C 
BRANCH  20  21
ATOM     21  N   UNL d   1     -41.501-122.872 -53.948  0.00  0.00    -0.297 N 
ATOM     22  C   UNL d   1     -41.741-123.639 -54.176  0.00  0.00     0.107 A 
ATOM     23  C   UNL d   1     -42.067-123.767 -54.937  0.00  0.00     0.142 A 
ATOM     24  O   UNL d   1     -42.154-123.120 -55.472  0.00  0.00    -0.300 OA
ATOM     25  C   UNL d   1     -41.912-122.347 -55.242  0.00  0.00     0.142 A 
ATOM     26  C   UNL d   1     -41.585-122.223 -54.479  0.00  0.00     0.107 A 
ENDBRANCH  20  21
ENDBRANCH  19  20
ENDBRANCH  18  19
ENDBRANCH   8  16
BRANCH   7  27
ATOM     27  C   UNL d   1     -43.009-122.410 -50.880  0.00  0.00     0.084 C 
BRANCH  27  28
ATOM     28  C   UNL d   1     -43.742-122.029 -50.787  0.00  0.00     0.045 C 
BRANCH  28  29
ATOM     29  C   UNL d   1     -44.312-122.080 -51.393  0.00  0.00     0.118 C 
BRANCH  29  30
ATOM     30  O   UNL d   1     -45.037-121.682 -51.308  0.00  0.00    -0.326 OA
ATOM     31  C   UNL d   1     -45.134-121.116 -50.697  0.00  0.00     0.181 C 
ENDBRANCH  29  30
ENDBRANCH  28  29
ENDBRANCH  27  28
ENDBRANCH   7  27
TORSDOF 8
ENDMDL
