MODEL 1
REMARK VINA RESULT:      60.6      0.000      0.000
REMARK  6 active torsions:
REMARK  status: ('A' for Active; 'I' for Inactive)
REMARK    1  A    between atoms: C_9  and  C_2 
REMARK    2  A    between atoms: C_13  and  C_8 
REMARK       I    between atoms: N_10  and  C_9 
REMARK    3  A    between atoms: C_15  and  N_10 
REMARK    4  A    between atoms: N_14  and  C_12 
REMARK    5  A    between atoms: C_21  and  N_14 
REMARK    6  A    between atoms: C_22  and  N_14 
ROOT
ATOM      1  C   UNL d   1     -55.020-101.212 -39.179  0.00  0.00     0.180 A 
ATOM      2  C   UNL d   1     -54.905-101.357 -40.495  0.00  0.00     0.106 A 
ATOM      3  N   UNL d   1     -54.916-102.023 -39.339  0.00  0.00    -0.283 N 
ATOM      4  S   UNL d   1     -55.012-100.815 -39.898  0.00  0.00    -0.044 SA
ATOM      5  N   UNL d   1     -55.091-101.128 -38.366  0.00  0.00    -0.221 NA
ATOM      6  C   UNL d   1     -54.845-102.108 -40.153  0.00  0.00     0.077 A 
ATOM      7  C   UNL d   1     -54.924-102.420 -38.621  0.00  0.00     0.101 A 
ATOM      8  C   UNL d   1     -55.033-101.861 -38.022  0.00  0.00     0.101 A 
ATOM      9  C   UNL d   1     -54.733-102.831 -40.557  0.00  0.00     0.020 C 
ENDROOT
BRANCH   2  10
ATOM     10  C   UNL d   1     -54.865-101.177 -41.307  0.00  0.00     0.287 C 
ATOM     11  N   UNL d   1     -54.964-101.777 -41.865  0.00  0.00    -0.208 NA
ATOM     12  O   UNL d   1     -54.728-100.406 -41.540  0.00  0.00    -0.265 OA
BRANCH  11  13
ATOM     13  C   UNL d   1     -54.923-101.590 -42.667  0.00  0.00     0.085 A 
ATOM     14  C   UNL d   1     -55.027-100.806 -42.923  0.00  0.00     0.021 A 
ATOM     15  C   UNL d   1     -54.987-100.616 -43.719  0.00  0.00     0.019 A 
ATOM     16  C   UNL d   1     -54.839-101.222 -44.266  0.00  0.00     0.064 A 
ATOM     17  C   UNL d   1     -54.734-102.003 -44.023  0.00  0.00     0.019 A 
ATOM     18  C   UNL d   1     -54.777-102.180 -43.224  0.00  0.00     0.021 A 
BRANCH  16  19
ATOM     19  N   UNL d   1     -54.795-101.053 -45.072  0.00  0.00    -0.304 N 
BRANCH  19  20
ATOM     20  C   UNL d   1     -54.785-101.667 -45.616  0.00  0.00     0.080 C 
ATOM     21  C   UNL d   1     -55.174-102.374 -45.445  0.00  0.00     0.021 C 
ENDBRANCH  19  20
BRANCH  19  22
ATOM     22  C   UNL d   1     -54.761-100.276 -45.335  0.00  0.00     0.080 C 
ATOM     23  C   UNL d   1     -55.369 -99.960 -45.794  0.00  0.00     0.021 C 
ENDBRANCH  19  22
ENDBRANCH  16  19
ENDBRANCH  11  13
ENDBRANCH   2  10
BRANCH   8  24
ATOM     24  C   UNL d   1     -55.079-101.983 -37.216  0.00  0.00     0.019 A 
ATOM     25  C   UNL d   1     -55.400-102.677 -36.912  0.00  0.00     0.002 A 
ATOM     26  C   UNL d   1     -55.446-102.800 -36.098  0.00  0.00     0.000 A 
ATOM     27  C   UNL d   1     -55.166-102.215 -35.571  0.00  0.00     0.000 A 
ATOM     28  C   UNL d   1     -54.846-101.521 -35.875  0.00  0.00     0.000 A 
ATOM     29  C   UNL d   1     -54.799-101.398 -36.694  0.00  0.00     0.002 A 
ENDBRANCH   8  24
TORSDOF 6
ENDMDL
