MODEL 1
REMARK VINA RESULT:      -8.3      0.000      0.000
REMARK  5 active torsions:
REMARK  status: ('A' for Active; 'I' for Inactive)
REMARK       I    between atoms: C_2  and  N_1 
REMARK    1  A    between atoms: C_5  and  C_2 
REMARK    2  A    between atoms: S_7  and  C_3 
REMARK    3  A    between atoms: N_4  and  C_8 
REMARK    4  A    between atoms: C_17  and  S_7 
REMARK    5  A    between atoms: C_18  and  C_17 
ROOT
ATOM      1  N   UNL d   1      53.243  31.989  53.529  0.00  0.00    -0.251 N 
ATOM      2  C   UNL d   1      52.749  31.331  53.469  0.00  0.00     0.266 C 
ATOM      3  C   UNL d   1      53.060  32.763  53.296  0.00  0.00     0.182 A 
ATOM      4  N   UNL d   1      53.712  33.234  53.457  0.00  0.00    -0.219 NA
ATOM      5  O   UNL d   1      51.989  31.408  53.152  0.00  0.00    -0.267 OA
ATOM      6  C   UNL d   1      54.017  31.988  53.837  0.00  0.00     0.106 A 
ATOM      7  C   UNL d   1      54.304  32.765  53.790  0.00  0.00     0.120 A 
ENDROOT
BRANCH   3   8
ATOM      8  S   UNL d   1      52.347  33.004  52.963  0.00  0.00    -0.049 SA
BRANCH   8   9
ATOM      9  C   UNL d   1      52.177  33.801  52.897  0.00  0.00     0.038 C 
BRANCH   9  10
ATOM     10  C   UNL d   1      51.437  34.044  52.641  0.00  0.00     0.007 A 
ATOM     11  C   UNL d   1      51.270  34.099  51.837  0.00  0.00     0.002 A 
ATOM     12  C   UNL d   1      50.526  34.344  51.578  0.00  0.00     0.024 A 
ATOM     13  C   UNL d   1      49.950  34.534  52.130  0.00  0.00     0.127 A 
ATOM     14  C   UNL d   1      50.103  34.484  52.935  0.00  0.00     0.024 A 
ATOM     15  C   UNL d   1      50.849  34.238  53.196  0.00  0.00     0.002 A 
BRANCH  13  16
ATOM     16  N   UNL d   1      49.199  34.781  51.876  0.00  0.00    -0.114 N 
ATOM     17  O   UNL d   1      48.723  35.265  52.373  0.00  0.00    -0.532 OA
ATOM     18  O   UNL d   1      48.906  34.555  51.130  0.00  0.00    -0.532 OA
ENDBRANCH  13  16
ENDBRANCH   9  10
ENDBRANCH   8   9
ENDBRANCH   3   8
BRANCH   2  19
ATOM     19  C   UNL d   1      53.013  30.588  53.729  0.00  0.00     0.057 A 
ATOM     20  C   UNL d   1      53.058  29.959  53.189  0.00  0.00     0.005 A 
ATOM     21  C   UNL d   1      52.840  30.073  52.401  0.00  0.00     0.000 C 
ATOM     22  C   UNL d   1      53.319  29.232  53.452  0.00  0.00     0.000 A 
ATOM     23  C   UNL d   1      53.537  29.126  54.249  0.00  0.00     0.000 A 
ATOM     24  C   UNL d   1      53.492  29.747  54.780  0.00  0.00     0.000 A 
ATOM     25  C   UNL d   1      53.229  30.483  54.518  0.00  0.00     0.005 A 
ENDBRANCH   2  19
TORSDOF 5
ENDMDL
MODEL 2
REMARK VINA RESULT:      -7.7      1.620      2.736
REMARK  5 active torsions:
REMARK  status: ('A' for Active; 'I' for Inactive)
REMARK       I    between atoms: C_2  and  N_1 
REMARK    1  A    between atoms: C_5  and  C_2 
REMARK    2  A    between atoms: S_7  and  C_3 
REMARK    3  A    between atoms: N_4  and  C_8 
REMARK    4  A    between atoms: C_17  and  S_7 
REMARK    5  A    between atoms: C_18  and  C_17 
ROOT
ATOM      1  N   UNL d   1      52.844  33.066  53.378  0.00  0.00    -0.251 N 
ATOM      2  C   UNL d   1      53.169  33.722  53.758  0.00  0.00     0.266 C 
ATOM      3  C   UNL d   1      52.116  33.038  52.982  0.00  0.00     0.182 A 
ATOM      4  N   UNL d   1      52.020  32.277  52.690  0.00  0.00    -0.219 NA
ATOM      5  O   UNL d   1      52.760  34.441  53.770  0.00  0.00    -0.267 OA
ATOM      6  C   UNL d   1      53.196  32.313  53.325  0.00  0.00     0.106 A 
ATOM      7  C   UNL d   1      52.680  31.826  52.896  0.00  0.00     0.120 A 
ENDROOT
BRANCH   3   8
ATOM      8  S   UNL d   1      51.592  33.668  52.905  0.00  0.00    -0.049 SA
BRANCH   8   9
ATOM      9  C   UNL d   1      50.917  33.582  52.452  0.00  0.00     0.038 C 
BRANCH   9  10
ATOM     10  C   UNL d   1      50.307  34.125  52.515  0.00  0.00     0.007 A 
ATOM     11  C   UNL d   1      50.112  34.453  53.245  0.00  0.00     0.002 A 
ATOM     12  C   UNL d   1      49.498  35.000  53.310  0.00  0.00     0.024 A 
ATOM     13  C   UNL d   1      49.080  35.217  52.638  0.00  0.00     0.127 A 
ATOM     14  C   UNL d   1      49.264  34.898  51.905  0.00  0.00     0.024 A 
ATOM     15  C   UNL d   1      49.880  34.349  51.839  0.00  0.00     0.002 A 
BRANCH  13  16
ATOM     16  N   UNL d   1      48.461  35.767  52.697  0.00  0.00    -0.114 N 
ATOM     17  O   UNL d   1      48.455  36.331  53.320  0.00  0.00    -0.532 OA
ATOM     18  O   UNL d   1      47.839  35.769  52.142  0.00  0.00    -0.532 OA
ENDBRANCH  13  16
ENDBRANCH   9  10
ENDBRANCH   8   9
ENDBRANCH   3   8
BRANCH   2  19
ATOM     19  C   UNL d   1      53.908  33.662  54.132  0.00  0.00     0.057 A 
ATOM     20  C   UNL d   1      53.989  33.912  54.919  0.00  0.00     0.005 A 
ATOM     21  C   UNL d   1      53.339  34.217  55.326  0.00  0.00     0.000 C 
ATOM     22  C   UNL d   1      54.719  33.850  55.278  0.00  0.00     0.000 A 
ATOM     23  C   UNL d   1      55.370  33.541  54.860  0.00  0.00     0.000 A 
ATOM     24  C   UNL d   1      55.288  33.295  54.084  0.00  0.00     0.000 A 
ATOM     25  C   UNL d   1      54.552  33.356  53.717  0.00  0.00     0.005 A 
ENDBRANCH   2  19
TORSDOF 5
ENDMDL
MODEL 3
REMARK VINA RESULT:      -7.4      1.383      4.963
REMARK  5 active torsions:
REMARK  status: ('A' for Active; 'I' for Inactive)
REMARK       I    between atoms: C_2  and  N_1 
REMARK    1  A    between atoms: C_5  and  C_2 
REMARK    2  A    between atoms: S_7  and  C_3 
REMARK    3  A    between atoms: N_4  and  C_8 
REMARK    4  A    between atoms: C_17  and  S_7 
REMARK    5  A    between atoms: C_18  and  C_17 
ROOT
ATOM      1  N   UNL d   1      51.681  34.075  53.083  0.00  0.00    -0.251 N 
ATOM      2  C   UNL d   1      50.920  33.794  52.931  0.00  0.00     0.266 C 
ATOM      3  C   UNL d   1      52.367  33.616  53.165  0.00  0.00     0.182 A 
ATOM      4  N   UNL d   1      52.993  34.126  53.311  0.00  0.00    -0.219 NA
ATOM      5  O   UNL d   1      50.785  32.983  52.846  0.00  0.00    -0.267 OA
ATOM      6  C   UNL d   1      51.892  34.875  53.179  0.00  0.00     0.106 A 
ATOM      7  C   UNL d   1      52.709  34.901  53.321  0.00  0.00     0.120 A 
ENDROOT
BRANCH   3   8
ATOM      8  S   UNL d   1      52.400  32.796  53.109  0.00  0.00    -0.049 SA
BRANCH   8   9
ATOM      9  C   UNL d   1      53.115  32.410  53.199  0.00  0.00     0.038 C 
BRANCH   9  10
ATOM     10  C   UNL d   1      53.132  31.606  53.358  0.00  0.00     0.007 A 
ATOM     11  C   UNL d   1      52.929  31.060  52.777  0.00  0.00     0.002 A 
ATOM     12  C   UNL d   1      52.946  30.251  52.936  0.00  0.00     0.024 A 
ATOM     13  C   UNL d   1      53.168  29.992  53.682  0.00  0.00     0.127 A 
ATOM     14  C   UNL d   1      53.373  30.526  54.271  0.00  0.00     0.024 A 
ATOM     15  C   UNL d   1      53.356  31.338  54.112  0.00  0.00     0.002 A 
BRANCH  13  16
ATOM     16  N   UNL d   1      53.187  29.180  53.849  0.00  0.00    -0.114 N 
ATOM     17  O   UNL d   1      52.711  28.646  53.407  0.00  0.00    -0.532 OA
ATOM     18  O   UNL d   1      53.675  28.880  54.454  0.00  0.00    -0.532 OA
ENDBRANCH  13  16
ENDBRANCH   9  10
ENDBRANCH   8   9
ENDBRANCH   3   8
BRANCH   2  19
ATOM     19  C   UNL d   1      50.287  34.327  52.863  0.00  0.00     0.057 A 
ATOM     20  C   UNL d   1      49.900  34.410  52.133  0.00  0.00     0.005 A 
ATOM     21  C   UNL d   1      50.144  33.966  51.482  0.00  0.00     0.000 C 
ATOM     22  C   UNL d   1      49.278  34.935  52.075  0.00  0.00     0.000 A 
ATOM     23  C   UNL d   1      49.039  35.379  52.737  0.00  0.00     0.000 A 
ATOM     24  C   UNL d   1      49.421  35.296  53.456  0.00  0.00     0.000 A 
ATOM     25  C   UNL d   1      50.049  34.767  53.519  0.00  0.00     0.005 A 
ENDBRANCH   2  19
TORSDOF 5
ENDMDL
MODEL 4
REMARK VINA RESULT:      -7.0      2.127      5.079
REMARK  5 active torsions:
REMARK  status: ('A' for Active; 'I' for Inactive)
REMARK       I    between atoms: C_2  and  N_1 
REMARK    1  A    between atoms: C_5  and  C_2 
REMARK    2  A    between atoms: S_7  and  C_3 
REMARK    3  A    between atoms: N_4  and  C_8 
REMARK    4  A    between atoms: C_17  and  S_7 
REMARK    5  A    between atoms: C_18  and  C_17 
ROOT
ATOM      1  N   UNL d   1      52.582  33.381  53.246  0.00  0.00    -0.251 N 
ATOM      2  C   UNL d   1      53.161  33.611  53.787  0.00  0.00     0.266 C 
ATOM      3  C   UNL d   1      52.489  32.626  52.917  0.00  0.00     0.182 A 
ATOM      4  N   UNL d   1      51.843  32.652  52.411  0.00  0.00    -0.219 NA
ATOM      5  O   UNL d   1      53.723  33.066  54.052  0.00  0.00    -0.267 OA
ATOM      6  C   UNL d   1      51.985  33.874  52.936  0.00  0.00     0.106 A 
ATOM      7  C   UNL d   1      51.529  33.415  52.417  0.00  0.00     0.120 A 
ENDROOT
BRANCH   3   8
ATOM      8  S   UNL d   1      52.966  31.975  53.079  0.00  0.00    -0.049 SA
BRANCH   8   9
ATOM      9  C   UNL d   1      52.743  31.233  52.817  0.00  0.00     0.038 C 
BRANCH   9  10
ATOM     10  C   UNL d   1      52.908  30.570  53.272  0.00  0.00     0.007 A 
ATOM     11  C   UNL d   1      53.685  30.363  53.443  0.00  0.00     0.002 A 
ATOM     12  C   UNL d   1      53.852  29.697  53.900  0.00  0.00     0.024 A 
ATOM     13  C   UNL d   1      53.233  29.239  54.184  0.00  0.00     0.127 A 
ATOM     14  C   UNL d   1      52.453  29.434  54.020  0.00  0.00     0.024 A 
ATOM     15  C   UNL d   1      52.285  30.103  53.561  0.00  0.00     0.002 A 
BRANCH  13  16
ATOM     16  N   UNL d   1      53.393  28.567  54.644  0.00  0.00    -0.114 N 
ATOM     17  O   UNL d   1      53.630  27.849  54.275  0.00  0.00    -0.532 OA
ATOM     18  O   UNL d   1      53.323  28.592  55.473  0.00  0.00    -0.532 OA
ENDBRANCH  13  16
ENDBRANCH   9  10
ENDBRANCH   8   9
ENDBRANCH   3   8
BRANCH   2  19
ATOM     19  C   UNL d   1      53.181  34.393  54.067  0.00  0.00     0.057 A 
ATOM     20  C   UNL d   1      53.279  34.533  54.879  0.00  0.00     0.005 A 
ATOM     21  C   UNL d   1      53.355  33.900  55.403  0.00  0.00     0.000 C 
ATOM     22  C   UNL d   1      53.298  35.304  55.146  0.00  0.00     0.000 A 
ATOM     23  C   UNL d   1      53.220  35.937  54.610  0.00  0.00     0.000 A 
ATOM     24  C   UNL d   1      53.124  35.797  53.809  0.00  0.00     0.000 A 
ATOM     25  C   UNL d   1      53.105  35.020  53.536  0.00  0.00     0.005 A 
ENDBRANCH   2  19
TORSDOF 5
ENDMDL
MODEL 5
REMARK VINA RESULT:      -6.2      1.315      2.027
REMARK  5 active torsions:
REMARK  status: ('A' for Active; 'I' for Inactive)
REMARK       I    between atoms: C_2  and  N_1 
REMARK    1  A    between atoms: C_5  and  C_2 
REMARK    2  A    between atoms: S_7  and  C_3 
REMARK    3  A    between atoms: N_4  and  C_8 
REMARK    4  A    between atoms: C_17  and  S_7 
REMARK    5  A    between atoms: C_18  and  C_17 
ROOT
ATOM      1  N   UNL d   1      52.358  33.737  53.345  0.00  0.00    -0.251 N 
ATOM      2  C   UNL d   1      52.242  32.922  53.390  0.00  0.00     0.266 C 
ATOM      3  C   UNL d   1      51.810  34.297  53.074  0.00  0.00     0.182 A 
ATOM      4  N   UNL d   1      52.161  35.037  53.128  0.00  0.00    -0.219 NA
ATOM      5  O   UNL d   1      51.524  32.589  53.151  0.00  0.00    -0.267 OA
ATOM      6  C   UNL d   1      53.052  34.141  53.566  0.00  0.00     0.106 A 
ATOM      7  C   UNL d   1      52.924  34.949  53.429  0.00  0.00     0.120 A 
ENDROOT
BRANCH   3   8
ATOM      8  S   UNL d   1      51.052  34.128  52.803  0.00  0.00    -0.049 SA
BRANCH   8   9
ATOM      9  C   UNL d   1      50.792  34.447  52.096  0.00  0.00     0.038 C 
BRANCH   9  10
ATOM     10  C   UNL d   1      49.996  34.616  51.989  0.00  0.00     0.007 A 
ATOM     11  C   UNL d   1      49.551  34.940  52.600  0.00  0.00     0.002 A 
ATOM     12  C   UNL d   1      48.751  35.111  52.493  0.00  0.00     0.024 A 
ATOM     13  C   UNL d   1      48.400  34.953  51.768  0.00  0.00     0.127 A 
ATOM     14  C   UNL d   1      48.832  34.629  51.150  0.00  0.00     0.024 A 
ATOM     15  C   UNL d   1      49.636  34.458  51.257  0.00  0.00     0.002 A 
BRANCH  13  16
ATOM     16  N   UNL d   1      47.596  35.122  51.654  0.00  0.00    -0.114 N 
ATOM     17  O   UNL d   1      47.192  34.819  50.980  0.00  0.00    -0.532 OA
ATOM     18  O   UNL d   1      47.176  35.591  52.200  0.00  0.00    -0.532 OA
ENDBRANCH  13  16
ENDBRANCH   9  10
ENDBRANCH   8   9
ENDBRANCH   3   8
BRANCH   2  19
ATOM     19  C   UNL d   1      52.849  32.431  53.675  0.00  0.00     0.057 A 
ATOM     20  C   UNL d   1      52.999  31.707  53.298  0.00  0.00     0.005 A 
ATOM     21  C   UNL d   1      52.550  31.478  52.646  0.00  0.00     0.000 C 
ATOM     22  C   UNL d   1      53.597  31.231  53.585  0.00  0.00     0.000 A 
ATOM     23  C   UNL d   1      54.046  31.470  54.245  0.00  0.00     0.000 A 
ATOM     24  C   UNL d   1      53.896  32.184  54.615  0.00  0.00     0.000 A 
ATOM     25  C   UNL d   1      53.293  32.668  54.328  0.00  0.00     0.005 A 
ENDBRANCH   2  19
TORSDOF 5
ENDMDL
MODEL 6
REMARK VINA RESULT:      -6.2      2.585      6.274
REMARK  5 active torsions:
REMARK  status: ('A' for Active; 'I' for Inactive)
REMARK       I    between atoms: C_2  and  N_1 
REMARK    1  A    between atoms: C_5  and  C_2 
REMARK    2  A    between atoms: S_7  and  C_3 
REMARK    3  A    between atoms: N_4  and  C_8 
REMARK    4  A    between atoms: C_17  and  S_7 
REMARK    5  A    between atoms: C_18  and  C_17 
ROOT
ATOM      1  N   UNL d   1      48.276  35.256  52.124  0.00  0.00    -0.251 N 
ATOM      2  C   UNL d   1      48.092  35.582  52.860  0.00  0.00     0.266 C 
ATOM      3  C   UNL d   1      48.979  34.869  51.920  0.00  0.00     0.182 A 
ATOM      4  N   UNL d   1      48.919  34.638  51.135  0.00  0.00    -0.219 NA
ATOM      5  O   UNL d   1      48.635  35.539  53.481  0.00  0.00    -0.267 OA
ATOM      6  C   UNL d   1      47.780  35.262  51.455  0.00  0.00     0.106 A 
ATOM      7  C   UNL d   1      48.185  34.876  50.842  0.00  0.00     0.120 A 
ENDROOT
BRANCH   3   8
ATOM      8  S   UNL d   1      49.617  34.744  52.425  0.00  0.00    -0.049 SA
BRANCH   8   9
ATOM      9  C   UNL d   1      50.248  34.287  52.178  0.00  0.00     0.038 C 
BRANCH   9  10
ATOM     10  C   UNL d   1      50.870  34.133  52.690  0.00  0.00     0.007 A 
ATOM     11  C   UNL d   1      50.816  33.529  53.245  0.00  0.00     0.002 A 
ATOM     12  C   UNL d   1      51.441  33.373  53.760  0.00  0.00     0.024 A 
ATOM     13  C   UNL d   1      52.122  33.828  53.715  0.00  0.00     0.127 A 
ATOM     14  C   UNL d   1      52.190  34.434  53.165  0.00  0.00     0.024 A 
ATOM     15  C   UNL d   1      51.563  34.590  52.648  0.00  0.00     0.002 A 
BRANCH  13  16
ATOM     16  N   UNL d   1      52.755  33.677  54.230  0.00  0.00    -0.114 N 
ATOM     17  O   UNL d   1      53.132  32.925  54.227  0.00  0.00    -0.532 OA
ATOM     18  O   UNL d   1      53.027  34.264  54.755  0.00  0.00    -0.532 OA
ENDBRANCH  13  16
ENDBRANCH   9  10
ENDBRANCH   8   9
ENDBRANCH   3   8
BRANCH   2  19
ATOM     19  C   UNL d   1      47.359  35.954  52.978  0.00  0.00     0.057 A 
ATOM     20  C   UNL d   1      47.211  36.345  53.696  0.00  0.00     0.005 A 
ATOM     21  C   UNL d   1      47.788  36.362  54.285  0.00  0.00     0.000 C 
ATOM     22  C   UNL d   1      46.489  36.708  53.804  0.00  0.00     0.000 A 
ATOM     23  C   UNL d   1      45.912  36.687  53.203  0.00  0.00     0.000 A 
ATOM     24  C   UNL d   1      46.060  36.301  52.496  0.00  0.00     0.000 A 
ATOM     25  C   UNL d   1      46.788  35.933  52.383  0.00  0.00     0.005 A 
ENDBRANCH   2  19
TORSDOF 5
ENDMDL
