MODEL 1
REMARK VINA RESULT:      -4.9      0.000      0.000
REMARK  1 active torsions:
REMARK  status: ('A' for Active; 'I' for Inactive)
REMARK    1  A    between atoms: C_7  and  C_6 
ROOT
ATOM      1  C   UNL d   1      56.938  -0.413  32.311  0.00  0.00     0.045 A 
ATOM      2  C   UNL d   1      56.946  -0.800  31.581  0.00  0.00     0.196 A 
ATOM      3  C   UNL d   1      57.485   0.206  32.296  0.00  0.00     0.003 A 
ATOM      4  C   UNL d   1      57.506  -0.414  31.110  0.00  0.00     0.039 A 
ATOM      5  C   UNL d   1      57.835   0.200  31.546  0.00  0.00     0.003 A 
ATOM      6  C   UNL d   1      56.492  -0.549  33.002  0.00  0.00     0.068 A 
ATOM      7  O   UNL d   1      56.487  -1.444  31.364  0.00  0.00    -0.287 OA
ATOM      8  C   UNL d   1      57.588   0.682  32.955  0.00  0.00     0.000 A 
ATOM      9  C   UNL d   1      57.758  -0.547  30.333  0.00  0.00     0.003 A 
ATOM     10  C   UNL d   1      58.415   0.681  31.206  0.00  0.00     0.000 A 
ATOM     11  C   UNL d   1      56.598  -0.069  33.664  0.00  0.00     0.006 A 
ATOM     12  C   UNL d   1      57.152   0.551  33.634  0.00  0.00     0.000 A 
ATOM     13  C   UNL d   1      58.334  -0.067  29.999  0.00  0.00     0.000 A 
ATOM     14  C   UNL d   1      58.662   0.547  30.435  0.00  0.00     0.000 A 
ENDROOT
BRANCH   6  15
ATOM     15  C   UNL d   1      55.946  -1.167  33.018  0.00  0.00     0.211 C 
ATOM     16  O   UNL d   1      55.140  -0.998  32.942  0.00  0.00    -0.644 OA
ATOM     17  O   UNL d   1      56.200  -1.942  33.107  0.00  0.00    -0.644 OA
ENDBRANCH   6  15
TORSDOF 1
ENDMDL
MODEL 2
REMARK VINA RESULT:      -4.0      1.340      3.167
REMARK  1 active torsions:
REMARK  status: ('A' for Active; 'I' for Inactive)
REMARK    1  A    between atoms: C_7  and  C_6 
ROOT
ATOM      1  C   UNL d   1      58.096  -0.654  30.325  0.00  0.00     0.045 A 
ATOM      2  C   UNL d   1      57.557  -1.163  30.688  0.00  0.00     0.196 A 
ATOM      3  C   UNL d   1      58.090   0.073  30.715  0.00  0.00     0.003 A 
ATOM      4  C   UNL d   1      57.212  -0.743  31.312  0.00  0.00     0.039 A 
ATOM      5  C   UNL d   1      57.537   0.012  31.329  0.00  0.00     0.003 A 
ATOM      6  C   UNL d   1      58.605  -0.764  29.673  0.00  0.00     0.068 A 
ATOM      7  O   UNL d   1      57.393  -1.937  30.473  0.00  0.00    -0.287 OA
ATOM      8  C   UNL d   1      58.578   0.682  30.465  0.00  0.00     0.000 A 
ATOM      9  C   UNL d   1      56.639  -0.956  31.869  0.00  0.00     0.003 A 
ATOM     10  C   UNL d   1      57.289   0.554  31.903  0.00  0.00     0.000 A 
ATOM     11  C   UNL d   1      59.095  -0.151  29.423  0.00  0.00     0.006 A 
ATOM     12  C   UNL d   1      59.077   0.577  29.826  0.00  0.00     0.000 A 
ATOM     13  C   UNL d   1      56.396  -0.416  32.437  0.00  0.00     0.000 A 
ATOM     14  C   UNL d   1      56.721   0.339  32.454  0.00  0.00     0.000 A 
ENDROOT
BRANCH   6  15
ATOM     15  C   UNL d   1      58.613  -1.490  29.282  0.00  0.00     0.211 C 
ATOM     16  O   UNL d   1      58.153  -1.590  28.603  0.00  0.00    -0.644 OA
ATOM     17  O   UNL d   1      59.072  -2.108  29.566  0.00  0.00    -0.644 OA
ENDBRANCH   6  15
TORSDOF 1
ENDMDL
MODEL 3
REMARK VINA RESULT:      -3.9      1.168      3.018
REMARK  1 active torsions:
REMARK  status: ('A' for Active; 'I' for Inactive)
REMARK    1  A    between atoms: C_7  and  C_6 
ROOT
ATOM      1  C   UNL d   1      56.746   0.168  32.631  0.00  0.00     0.045 A 
ATOM      2  C   UNL d   1      55.942  -0.015  32.608  0.00  0.00     0.196 A 
ATOM      3  C   UNL d   1      56.938   0.457  33.380  0.00  0.00     0.003 A 
ATOM      4  C   UNL d   1      55.633   0.164  33.355  0.00  0.00     0.039 A 
ATOM      5  C   UNL d   1      56.241   0.452  33.826  0.00  0.00     0.003 A 
ATOM      6  C   UNL d   1      57.343   0.106  32.050  0.00  0.00     0.068 A 
ATOM      7  O   UNL d   1      55.526  -0.317  31.969  0.00  0.00    -0.287 OA
ATOM      8  C   UNL d   1      57.707   0.682  33.552  0.00  0.00     0.000 A 
ATOM      9  C   UNL d   1      54.868   0.099  33.665  0.00  0.00     0.003 A 
ATOM     10  C   UNL d   1      56.086   0.676  34.607  0.00  0.00     0.000 A 
ATOM     11  C   UNL d   1      58.115   0.333  32.225  0.00  0.00     0.006 A 
ATOM     12  C   UNL d   1      58.293   0.623  32.985  0.00  0.00     0.000 A 
ATOM     13  C   UNL d   1      54.718   0.322  34.440  0.00  0.00     0.000 A 
ATOM     14  C   UNL d   1      55.326   0.610  34.911  0.00  0.00     0.000 A 
ENDROOT
BRANCH   6  15
ATOM     15  C   UNL d   1      57.151  -0.182  31.302  0.00  0.00     0.211 C 
ATOM     16  O   UNL d   1      57.027   0.350  30.681  0.00  0.00    -0.644 OA
ATOM     17  O   UNL d   1      57.085  -0.990  31.174  0.00  0.00    -0.644 OA
ENDBRANCH   6  15
TORSDOF 1
ENDMDL
MODEL 4
REMARK VINA RESULT:      -3.4      2.702      3.975
REMARK  1 active torsions:
REMARK  status: ('A' for Active; 'I' for Inactive)
REMARK    1  A    between atoms: C_7  and  C_6 
ROOT
ATOM      1  C   UNL d   1      58.944  -0.701  29.397  0.00  0.00     0.045 A 
ATOM      2  C   UNL d   1      58.511  -1.384  29.562  0.00  0.00     0.196 A 
ATOM      3  C   UNL d   1      59.616  -0.903  28.962  0.00  0.00     0.003 A 
ATOM      4  C   UNL d   1      58.923  -2.017  29.224  0.00  0.00     0.039 A 
ATOM      5  C   UNL d   1      59.597  -1.724  28.858  0.00  0.00     0.003 A 
ATOM      6  C   UNL d   1      58.808   0.099  29.591  0.00  0.00     0.068 A 
ATOM      7  O   UNL d   1      57.808  -1.428  29.981  0.00  0.00    -0.287 OA
ATOM      8  C   UNL d   1      60.145  -0.324  28.723  0.00  0.00     0.000 A 
ATOM      9  C   UNL d   1      58.765  -2.829  29.205  0.00  0.00     0.003 A 
ATOM     10  C   UNL d   1      60.114  -2.242  28.472  0.00  0.00     0.000 A 
ATOM     11  C   UNL d   1      59.341   0.680  29.351  0.00  0.00     0.006 A 
ATOM     12  C   UNL d   1      60.014   0.460  28.913  0.00  0.00     0.000 A 
ATOM     13  C   UNL d   1      59.280  -3.340  28.822  0.00  0.00     0.000 A 
ATOM     14  C   UNL d   1      59.954  -3.047  28.456  0.00  0.00     0.000 A 
ENDROOT
BRANCH   6  15
ATOM     15  C   UNL d   1      58.137   0.302  30.026  0.00  0.00     0.211 C 
ATOM     16  O   UNL d   1      57.441   0.501  29.627  0.00  0.00    -0.644 OA
ATOM     17  O   UNL d   1      58.161   0.307  30.846  0.00  0.00    -0.644 OA
ENDBRANCH   6  15
TORSDOF 1
ENDMDL
MODEL 5
REMARK VINA RESULT:      -2.7      2.391      4.209
REMARK  1 active torsions:
REMARK  status: ('A' for Active; 'I' for Inactive)
REMARK    1  A    between atoms: C_7  and  C_6 
ROOT
ATOM      1  C   UNL d   1      59.314  -1.583  29.307  0.00  0.00     0.045 A 
ATOM      2  C   UNL d   1      58.634  -1.680  29.765  0.00  0.00     0.196 A 
ATOM      3  C   UNL d   1      59.503  -0.781  29.266  0.00  0.00     0.003 A 
ATOM      4  C   UNL d   1      58.400  -0.925  30.011  0.00  0.00     0.039 A 
ATOM      5  C   UNL d   1      58.930  -0.376  29.706  0.00  0.00     0.003 A 
ATOM      6  C   UNL d   1      59.796  -2.138  28.913  0.00  0.00     0.068 A 
ATOM      7  O   UNL d   1      58.260  -2.388  29.944  0.00  0.00    -0.287 OA
ATOM      8  C   UNL d   1      60.158  -0.531  28.843  0.00  0.00     0.000 A 
ATOM      9  C   UNL d   1      57.766  -0.669  30.477  0.00  0.00     0.003 A 
ATOM     10  C   UNL d   1      58.827   0.429  29.868  0.00  0.00     0.000 A 
ATOM     11  C   UNL d   1      60.455  -1.885  28.487  0.00  0.00     0.006 A 
ATOM     12  C   UNL d   1      60.632  -1.073  28.455  0.00  0.00     0.000 A 
ATOM     13  C   UNL d   1      57.666   0.130  30.634  0.00  0.00     0.000 A 
ATOM     14  C   UNL d   1      58.197   0.679  30.330  0.00  0.00     0.000 A 
ENDROOT
BRANCH   6  15
ATOM     15  C   UNL d   1      59.608  -2.940  28.953  0.00  0.00     0.211 C 
ATOM     16  O   UNL d   1      59.999  -3.422  29.499  0.00  0.00    -0.644 OA
ATOM     17  O   UNL d   1      59.038  -3.257  28.455  0.00  0.00    -0.644 OA
ENDBRANCH   6  15
TORSDOF 1
ENDMDL
MODEL 6
REMARK VINA RESULT:      -2.6      3.681      4.771
REMARK  1 active torsions:
REMARK  status: ('A' for Active; 'I' for Inactive)
REMARK    1  A    between atoms: C_7  and  C_6 
ROOT
ATOM      1  C   UNL d   1      59.799  -0.852  29.161  0.00  0.00     0.045 A 
ATOM      2  C   UNL d   1      60.352  -1.391  28.869  0.00  0.00     0.196 A 
ATOM      3  C   UNL d   1      59.080  -1.239  29.282  0.00  0.00     0.003 A 
ATOM      4  C   UNL d   1      59.969  -2.122  28.809  0.00  0.00     0.039 A 
ATOM      5  C   UNL d   1      59.192  -2.029  29.061  0.00  0.00     0.003 A 
ATOM      6  C   UNL d   1      59.860  -0.038  29.335  0.00  0.00     0.068 A 
ATOM      7  O   UNL d   1      61.133  -1.233  28.675  0.00  0.00    -0.287 OA
ATOM      8  C   UNL d   1      58.432  -0.829  29.571  0.00  0.00     0.000 A 
ATOM      9  C   UNL d   1      60.233  -2.863  28.555  0.00  0.00     0.003 A 
ATOM     10  C   UNL d   1      58.679  -2.678  29.059  0.00  0.00     0.000 A 
ATOM     11  C   UNL d   1      59.208   0.373  29.626  0.00  0.00     0.006 A 
ATOM     12  C   UNL d   1      58.490  -0.032  29.743  0.00  0.00     0.000 A 
ATOM     13  C   UNL d   1      59.722  -3.505  28.554  0.00  0.00     0.000 A 
ATOM     14  C   UNL d   1      58.945  -3.412  28.806  0.00  0.00     0.000 A 
ENDROOT
BRANCH   6  15
ATOM     15  C   UNL d   1      60.578   0.349  29.215  0.00  0.00     0.211 C 
ATOM     16  O   UNL d   1      61.122   0.399  29.836  0.00  0.00    -0.644 OA
ATOM     17  O   UNL d   1      60.752   0.682  28.485  0.00  0.00    -0.644 OA
ENDBRANCH   6  15
TORSDOF 1
ENDMDL
MODEL 7
REMARK VINA RESULT:      -2.3      9.515      9.727
REMARK  1 active torsions:
REMARK  status: ('A' for Active; 'I' for Inactive)
REMARK    1  A    between atoms: C_7  and  C_6 
ROOT
ATOM      1  C   UNL d   1      59.724  -9.420  33.309  0.00  0.00     0.045 A 
ATOM      2  C   UNL d   1      60.494  -9.281  33.047  0.00  0.00     0.196 A 
ATOM      3  C   UNL d   1      59.255  -9.643  32.667  0.00  0.00     0.003 A 
ATOM      4  C   UNL d   1      60.501  -9.422  32.232  0.00  0.00     0.039 A 
ATOM      5  C   UNL d   1      59.744  -9.643  32.000  0.00  0.00     0.003 A 
ATOM      6  C   UNL d   1      59.382  -9.369  34.068  0.00  0.00     0.068 A 
ATOM      7  O   UNL d   1      61.133  -9.049  33.506  0.00  0.00    -0.287 OA
ATOM      8  C   UNL d   1      58.460  -9.814  32.775  0.00  0.00     0.000 A 
ATOM      9  C   UNL d   1      61.106  -9.376  31.669  0.00  0.00     0.003 A 
ATOM     10  C   UNL d   1      59.592  -9.818  31.205  0.00  0.00     0.000 A 
ATOM     11  C   UNL d   1      58.583  -9.540  34.174  0.00  0.00     0.006 A 
ATOM     12  C   UNL d   1      58.123  -9.765  33.518  0.00  0.00     0.000 A 
ATOM     13  C   UNL d   1      60.951  -9.550  30.883  0.00  0.00     0.000 A 
ATOM     14  C   UNL d   1      60.194  -9.771  30.651  0.00  0.00     0.000 A 
ENDROOT
BRANCH   6  15
ATOM     15  C   UNL d   1      59.850  -9.145  34.709  0.00  0.00     0.211 C 
ATOM     16  O   UNL d   1      60.236  -9.727  35.152  0.00  0.00    -0.644 OA
ATOM     17  O   UNL d   1      59.931  -8.353  34.906  0.00  0.00    -0.644 OA
ENDBRANCH   6  15
TORSDOF 1
ENDMDL
MODEL 8
REMARK VINA RESULT:      -2.2      8.974      9.452
REMARK  1 active torsions:
REMARK  status: ('A' for Active; 'I' for Inactive)
REMARK    1  A    between atoms: C_7  and  C_6 
ROOT
ATOM      1  C   UNL d   1      59.904  -8.618  34.915  0.00  0.00     0.045 A 
ATOM      2  C   UNL d   1      60.525  -8.375  34.428  0.00  0.00     0.196 A 
ATOM      3  C   UNL d   1      59.464  -9.198  34.525  0.00  0.00     0.003 A 
ATOM      4  C   UNL d   1      60.467  -8.812  33.728  0.00  0.00     0.039 A 
ATOM      5  C   UNL d   1      59.819  -9.314  33.787  0.00  0.00     0.003 A 
ATOM      6  C   UNL d   1      59.678  -8.379  35.682  0.00  0.00     0.068 A 
ATOM      7  O   UNL d   1      61.092  -7.809  34.604  0.00  0.00    -0.287 OA
ATOM      8  C   UNL d   1      58.811  -9.536  34.888  0.00  0.00     0.000 A 
ATOM      9  C   UNL d   1      60.927  -8.813  33.040  0.00  0.00     0.003 A 
ATOM     10  C   UNL d   1      59.631  -9.818  33.158  0.00  0.00     0.000 A 
ATOM     11  C   UNL d   1      59.022  -8.720  36.045  0.00  0.00     0.006 A 
ATOM     12  C   UNL d   1      58.588  -9.303  35.639  0.00  0.00     0.000 A 
ATOM     13  C   UNL d   1      60.737  -9.314  32.419  0.00  0.00     0.000 A 
ATOM     14  C   UNL d   1      60.090  -9.817  32.478  0.00  0.00     0.000 A 
ENDROOT
BRANCH   6  15
ATOM     15  C   UNL d   1      60.117  -7.800  36.072  0.00  0.00     0.211 C 
ATOM     16  O   UNL d   1      60.883  -7.977  36.330  0.00  0.00    -0.644 OA
ATOM     17  O   UNL d   1      59.798  -7.056  36.202  0.00  0.00    -0.644 OA
ENDBRANCH   6  15
TORSDOF 1
ENDMDL
