MODEL 1
REMARK VINA RESULT:      -7.8      0.000      0.000
REMARK  5 active torsions:
REMARK  status: ('A' for Active; 'I' for Inactive)
REMARK    1  A    between atoms: S_12  and  C_4 
REMARK    2  A    between atoms: C_7  and  C_5 
REMARK    3  A    between atoms: C_20  and  S_12 
REMARK    4  A    between atoms: C_14  and  C_20 
REMARK    5  A    between atoms: O_21  and  C_14 
ROOT
ATOM      1  C   UNL d   1     -48.520  13.156  22.913  0.00  0.00     0.095 A 
ATOM      2  C   UNL d   1     -49.271  14.367  22.698  0.00  0.00     0.108 A 
ATOM      3  N   UNL d   1     -47.832  14.391  22.623  0.00  0.00    -0.217 NA
ATOM      4  C   UNL d   1     -47.810  13.574  22.791  0.00  0.00     0.122 A 
ATOM      5  C   UNL d   1     -49.248  13.556  22.865  0.00  0.00     0.047 A 
ATOM      6  C   UNL d   1     -48.561  14.785  22.577  0.00  0.00     0.194 A 
ATOM      7  C   UNL d   1     -49.983  14.742  22.655  0.00  0.00     0.104 C 
ATOM      8  C   UNL d   1     -48.506  12.347  23.080  0.00  0.00     0.103 C 
ATOM      9  N   UNL d   1     -48.492  11.551  23.244  0.00  0.00    -0.191 NA
ATOM     10  N   UNL d   1     -50.681  15.117  22.611  0.00  0.00    -0.191 NA
ATOM     11  N   UNL d   1     -48.583  15.602  22.408  0.00  0.00    -0.126 N 
ENDROOT
BRANCH   5  12
ATOM     12  C   UNL d   1     -49.936  13.150  22.983  0.00  0.00     0.102 A 
ATOM     13  O   UNL d   1     -50.309  13.055  23.696  0.00  0.00    -0.305 OA
ATOM     14  C   UNL d   1     -51.003  12.597  23.560  0.00  0.00     0.123 A 
ATOM     15  C   UNL d   1     -51.023  12.436  22.787  0.00  0.00     0.029 A 
ATOM     16  C   UNL d   1     -50.389  12.759  22.417  0.00  0.00     0.027 A 
ENDBRANCH   5  12
BRANCH   4  17
ATOM     17  S   UNL d   1     -47.082  13.182  22.837  0.00  0.00    -0.061 SA
BRANCH  17  18
ATOM     18  C   UNL d   1     -46.401  13.570  22.695  0.00  0.00     0.105 C 
BRANCH  18  19
ATOM     19  C   UNL d   1     -45.714  13.179  22.671  0.00  0.00     0.303 C 
ATOM     20  O   UNL d   1     -45.506  12.876  23.085  0.00  0.00    -0.259 OA
BRANCH  19  21
ATOM     21  O   UNL d   1     -45.263  13.206  22.006  0.00  0.00    -0.295 OA
ATOM     22  C   UNL d   1     -44.535  12.874  22.001  0.00  0.00     0.185 C 
ENDBRANCH  19  21
ENDBRANCH  18  19
ENDBRANCH  17  18
ENDBRANCH   4  17
TORSDOF 5
ENDMDL
MODEL 2
REMARK VINA RESULT:      -7.4      1.498      1.965
REMARK  5 active torsions:
REMARK  status: ('A' for Active; 'I' for Inactive)
REMARK    1  A    between atoms: S_12  and  C_4 
REMARK    2  A    between atoms: C_7  and  C_5 
REMARK    3  A    between atoms: C_20  and  S_12 
REMARK    4  A    between atoms: C_14  and  C_20 
REMARK    5  A    between atoms: O_21  and  C_14 
ROOT
ATOM      1  C   UNL d   1     -47.594  12.443  22.956  0.00  0.00     0.095 A 
ATOM      2  C   UNL d   1     -47.566  13.881  22.855  0.00  0.00     0.108 A 
ATOM      3  N   UNL d   1     -46.387  13.167  23.275  0.00  0.00    -0.217 NA
ATOM      4  C   UNL d   1     -46.799  12.445  23.203  0.00  0.00     0.122 A 
ATOM      5  C   UNL d   1     -47.974  13.164  22.783  0.00  0.00     0.047 A 
ATOM      6  C   UNL d   1     -46.770  13.882  23.101  0.00  0.00     0.194 A 
ATOM      7  C   UNL d   1     -47.946  14.571  22.684  0.00  0.00     0.104 C 
ATOM      8  C   UNL d   1     -48.008  11.732  22.882  0.00  0.00     0.103 C 
ATOM      9  N   UNL d   1     -48.416  11.033  22.809  0.00  0.00    -0.191 NA
ATOM     10  N   UNL d   1     -48.314  15.254  22.517  0.00  0.00    -0.191 NA
ATOM     11  N   UNL d   1     -46.359  14.604  23.174  0.00  0.00    -0.126 N 
ENDROOT
BRANCH   5  12
ATOM     12  C   UNL d   1     -48.745  13.162  22.544  0.00  0.00     0.102 A 
ATOM     13  O   UNL d   1     -48.999  13.138  21.775  0.00  0.00    -0.305 OA
ATOM     14  C   UNL d   1     -49.841  13.145  21.785  0.00  0.00     0.123 A 
ATOM     15  C   UNL d   1     -50.060  13.173  22.543  0.00  0.00     0.029 A 
ATOM     16  C   UNL d   1     -49.417  13.184  23.021  0.00  0.00     0.027 A 
ENDBRANCH   5  12
BRANCH   4  17
ATOM     17  S   UNL d   1     -46.415  11.732  23.376  0.00  0.00    -0.061 SA
BRANCH  17  18
ATOM     18  C   UNL d   1     -45.659  11.612  23.154  0.00  0.00     0.105 C 
BRANCH  18  19
ATOM     19  C   UNL d   1     -45.254  10.991  23.429  0.00  0.00     0.303 C 
ATOM     20  O   UNL d   1     -45.480  10.545  23.668  0.00  0.00    -0.259 OA
BRANCH  19  21
ATOM     21  O   UNL d   1     -44.453  10.980  23.371  0.00  0.00    -0.295 OA
ATOM     22  C   UNL d   1     -44.043  10.331  23.597  0.00  0.00     0.185 C 
ENDBRANCH  19  21
ENDBRANCH  18  19
ENDBRANCH  17  18
ENDBRANCH   4  17
TORSDOF 5
ENDMDL
MODEL 3
REMARK VINA RESULT:      -7.3      1.354      2.436
REMARK  5 active torsions:
REMARK  status: ('A' for Active; 'I' for Inactive)
REMARK    1  A    between atoms: S_12  and  C_4 
REMARK    2  A    between atoms: C_7  and  C_5 
REMARK    3  A    between atoms: C_20  and  S_12 
REMARK    4  A    between atoms: C_14  and  C_20 
REMARK    5  A    between atoms: O_21  and  C_14 
ROOT
ATOM      1  C   UNL d   1     -47.585  13.089  23.057  0.00  0.00     0.095 A 
ATOM      2  C   UNL d   1     -48.899  12.540  23.282  0.00  0.00     0.108 A 
ATOM      3  N   UNL d   1     -47.735  11.707  23.446  0.00  0.00    -0.217 NA
ATOM      4  C   UNL d   1     -47.245  12.351  23.241  0.00  0.00     0.122 A 
ATOM      5  C   UNL d   1     -48.412  13.179  23.079  0.00  0.00     0.047 A 
ATOM      6  C   UNL d   1     -48.559  11.802  23.466  0.00  0.00     0.194 A 
ATOM      7  C   UNL d   1     -49.698  12.642  23.299  0.00  0.00     0.104 C 
ATOM      8  C   UNL d   1     -47.107  13.731  22.854  0.00  0.00     0.103 C 
ATOM      9  N   UNL d   1     -46.637  14.362  22.653  0.00  0.00    -0.191 NA
ATOM     10  N   UNL d   1     -50.487  12.735  23.317  0.00  0.00    -0.191 NA
ATOM     11  N   UNL d   1     -49.048  11.159  23.671  0.00  0.00    -0.126 N 
ENDROOT
BRANCH   5  12
ATOM     12  C   UNL d   1     -48.741  13.894  22.900  0.00  0.00     0.102 A 
ATOM     13  O   UNL d   1     -48.915  14.478  23.434  0.00  0.00    -0.305 OA
ATOM     14  C   UNL d   1     -49.249  15.122  23.007  0.00  0.00     0.123 A 
ATOM     15  C   UNL d   1     -49.264  14.908  22.246  0.00  0.00     0.029 A 
ATOM     16  C   UNL d   1     -48.963  14.171  22.156  0.00  0.00     0.027 A 
ENDBRANCH   5  12
BRANCH   4  17
ATOM     17  S   UNL d   1     -46.423  12.255  23.222  0.00  0.00    -0.061 SA
BRANCH  17  18
ATOM     18  C   UNL d   1     -46.093  11.544  23.370  0.00  0.00     0.105 C 
BRANCH  18  19
ATOM     19  C   UNL d   1     -45.309  11.450  23.329  0.00  0.00     0.303 C 
ATOM     20  O   UNL d   1     -44.962  11.789  23.062  0.00  0.00    -0.259 OA
BRANCH  19  21
ATOM     21  O   UNL d   1     -44.963  10.825  23.695  0.00  0.00    -0.295 OA
ATOM     22  C   UNL d   1     -44.404  10.396  23.316  0.00  0.00     0.185 C 
ENDBRANCH  19  21
ENDBRANCH  18  19
ENDBRANCH  17  18
ENDBRANCH   4  17
TORSDOF 5
ENDMDL
MODEL 4
REMARK VINA RESULT:      -5.8      1.288      4.212
REMARK  5 active torsions:
REMARK  status: ('A' for Active; 'I' for Inactive)
REMARK    1  A    between atoms: S_12  and  C_4 
REMARK    2  A    between atoms: C_7  and  C_5 
REMARK    3  A    between atoms: C_20  and  S_12 
REMARK    4  A    between atoms: C_14  and  C_20 
REMARK    5  A    between atoms: O_21  and  C_14 
ROOT
ATOM      1  C   UNL d   1     -47.930  13.559  22.837  0.00  0.00     0.095 A 
ATOM      2  C   UNL d   1     -47.484  12.269  23.299  0.00  0.00     0.108 A 
ATOM      3  N   UNL d   1     -48.893  12.561  23.235  0.00  0.00    -0.217 NA
ATOM      4  C   UNL d   1     -48.722  13.325  22.948  0.00  0.00     0.122 A 
ATOM      5  C   UNL d   1     -47.315  13.028  23.014  0.00  0.00     0.047 A 
ATOM      6  C   UNL d   1     -48.276  12.035  23.410  0.00  0.00     0.194 A 
ATOM      7  C   UNL d   1     -46.878  11.765  23.467  0.00  0.00     0.104 C 
ATOM      8  C   UNL d   1     -47.752  14.314  22.553  0.00  0.00     0.103 C 
ATOM      9  N   UNL d   1     -47.577  15.056  22.273  0.00  0.00    -0.191 NA
ATOM     10  N   UNL d   1     -46.286  11.263  23.634  0.00  0.00    -0.191 NA
ATOM     11  N   UNL d   1     -48.448  11.271  23.698  0.00  0.00    -0.126 N 
ENDROOT
BRANCH   5  12
ATOM     12  C   UNL d   1     -46.547  13.254  22.906  0.00  0.00     0.102 A 
ATOM     13  O   UNL d   1     -46.096  13.657  23.446  0.00  0.00    -0.305 OA
ATOM     14  C   UNL d   1     -45.336  13.776  23.103  0.00  0.00     0.123 A 
ATOM     15  C   UNL d   1     -45.356  13.448  22.384  0.00  0.00     0.029 A 
ATOM     16  C   UNL d   1     -46.076  13.126  22.242  0.00  0.00     0.027 A 
ENDBRANCH   5  12
BRANCH   4  17
ATOM     17  S   UNL d   1     -49.339  13.849  22.774  0.00  0.00    -0.061 SA
BRANCH  17  18
ATOM     18  C   UNL d   1     -50.094  13.595  22.751  0.00  0.00     0.105 C 
BRANCH  18  19
ATOM     19  C   UNL d   1     -50.658  14.042  22.424  0.00  0.00     0.303 C 
ATOM     20  O   UNL d   1     -50.828  14.532  22.619  0.00  0.00    -0.259 OA
BRANCH  19  21
ATOM     21  O   UNL d   1     -51.028  13.793  21.756  0.00  0.00    -0.295 OA
ATOM     22  C   UNL d   1     -51.064  14.269  21.114  0.00  0.00     0.185 C 
ENDBRANCH  19  21
ENDBRANCH  18  19
ENDBRANCH  17  18
ENDBRANCH   4  17
TORSDOF 5
ENDMDL
MODEL 5
REMARK VINA RESULT:      -5.4      9.109     10.125
REMARK  5 active torsions:
REMARK  status: ('A' for Active; 'I' for Inactive)
REMARK    1  A    between atoms: S_12  and  C_4 
REMARK    2  A    between atoms: C_7  and  C_5 
REMARK    3  A    between atoms: C_20  and  S_12 
REMARK    4  A    between atoms: C_14  and  C_20 
REMARK    5  A    between atoms: O_21  and  C_14 
ROOT
ATOM      1  C   UNL d   1     -39.814  14.771  18.984  0.00  0.00     0.095 A 
ATOM      2  C   UNL d   1     -39.177  14.101  17.879  0.00  0.00     0.108 A 
ATOM      3  N   UNL d   1     -38.750  13.828  19.227  0.00  0.00    -0.217 NA
ATOM      4  C   UNL d   1     -39.318  14.366  19.516  0.00  0.00     0.122 A 
ATOM      5  C   UNL d   1     -39.740  14.635  18.166  0.00  0.00     0.047 A 
ATOM      6  C   UNL d   1     -38.680  13.696  18.411  0.00  0.00     0.194 A 
ATOM      7  C   UNL d   1     -39.116  13.979  17.084  0.00  0.00     0.104 C 
ATOM      8  C   UNL d   1     -40.379  15.306  19.262  0.00  0.00     0.103 C 
ATOM      9  N   UNL d   1     -40.935  15.832  19.536  0.00  0.00    -0.191 NA
ATOM     10  N   UNL d   1     -39.051  13.855  16.303  0.00  0.00    -0.191 NA
ATOM     11  N   UNL d   1     -38.112  13.158  18.122  0.00  0.00    -0.126 N 
ENDROOT
BRANCH   5  12
ATOM     12  C   UNL d   1     -40.222  15.028  17.650  0.00  0.00     0.102 A 
ATOM     13  O   UNL d   1     -40.952  14.776  17.404  0.00  0.00    -0.305 OA
ATOM     14  C   UNL d   1     -41.253  15.354  16.871  0.00  0.00     0.123 A 
ATOM     15  C   UNL d   1     -40.706  15.922  16.816  0.00  0.00     0.029 A 
ATOM     16  C   UNL d   1     -40.074  15.748  17.277  0.00  0.00     0.027 A 
ENDBRANCH   5  12
BRANCH   4  17
ATOM     17  S   UNL d   1     -39.386  14.497  20.331  0.00  0.00    -0.061 SA
BRANCH  17  18
ATOM     18  C   UNL d   1     -38.994  14.037  20.851  0.00  0.00     0.105 C 
BRANCH  18  19
ATOM     19  C   UNL d   1     -39.025  14.192  21.625  0.00  0.00     0.303 C 
ATOM     20  O   UNL d   1     -38.871  14.669  21.861  0.00  0.00    -0.259 OA
BRANCH  19  21
ATOM     21  O   UNL d   1     -39.298  13.632  22.133  0.00  0.00    -0.295 OA
ATOM     22  C   UNL d   1     -38.912  13.489  22.819  0.00  0.00     0.185 C 
ENDBRANCH  19  21
ENDBRANCH  18  19
ENDBRANCH  17  18
ENDBRANCH   4  17
TORSDOF 5
ENDMDL
