MODEL 1
REMARK VINA RESULT:      -3.8      0.000      0.000
REMARK  5 active torsions:
REMARK  status: ('A' for Active; 'I' for Inactive)
REMARK    1  A    between atoms: C_7  and  N_1 
REMARK    2  A    between atoms: C_8  and  N_6 
REMARK    3  A    between atoms: C_15  and  C_7 
REMARK    4  A    between atoms: N_9  and  C_15 
REMARK    5  A    between atoms: O_20  and  C_14 
ROOT
ATOM      1  N   UNL d   1      56.159   0.067  32.945  0.00  0.00    -0.300 N 
ATOM      2  N   UNL d   1      56.973  -0.255  31.546  0.00  0.00    -0.299 N 
ATOM      3  C   UNL d   1      56.211  -0.710  32.665  0.00  0.00     0.100 A 
ATOM      4  C   UNL d   1      56.514   0.681  32.526  0.00  0.00     0.100 A 
ATOM      5  C   UNL d   1      56.617  -0.870  31.966  0.00  0.00     0.100 A 
ATOM      6  C   UNL d   1      56.921   0.521  31.826  0.00  0.00     0.100 A 
ENDROOT
BRANCH   2   7
ATOM      7  C   UNL d   1      57.380  -0.416  30.847  0.00  0.00     0.100 C 
BRANCH   7   8
ATOM      8  C   UNL d   1      57.936   0.124  30.558  0.00  0.00     0.105 C 
BRANCH   8   9
ATOM      9  N   UNL d   1      58.598  -0.140  30.135  0.00  0.00    -0.239 N 
ATOM     10  C   UNL d   1      59.388  -0.012  30.330  0.00  0.00     0.267 A 
ATOM     11  C   UNL d   1      59.856  -0.375  29.752  0.00  0.00     0.061 A 
ATOM     12  O   UNL d   1      59.663   0.406  30.985  0.00  0.00    -0.267 OA
ATOM     13  C   UNL d   1      60.671  -0.425  29.664  0.00  0.00     0.005 A 
ATOM     14  C   UNL d   1      59.355  -0.728  29.199  0.00  0.00     0.061 A 
ATOM     15  C   UNL d   1      60.987  -0.833  29.018  0.00  0.00     0.000 A 
ATOM     16  C   UNL d   1      60.479  -1.188  28.463  0.00  0.00     0.000 A 
ATOM     17  C   UNL d   1      59.668  -1.131  28.560  0.00  0.00     0.005 A 
ATOM     18  C   UNL d   1      58.577  -0.585  29.433  0.00  0.00     0.267 A 
ATOM     19  O   UNL d   1      57.896  -0.841  29.037  0.00  0.00    -0.267 OA
ENDBRANCH   8   9
ENDBRANCH   7   8
ENDBRANCH   2   7
BRANCH   1  20
ATOM     20  C   UNL d   1      55.750   0.226  33.648  0.00  0.00     0.086 A 
ATOM     21  C   UNL d   1      56.157   0.521  34.304  0.00  0.00     0.110 A 
ATOM     22  C   UNL d   1      55.745   0.680  35.009  0.00  0.00     0.026 A 
ATOM     23  C   UNL d   1      54.932   0.544  35.053  0.00  0.00     0.002 A 
ATOM     24  C   UNL d   1      54.525   0.249  34.397  0.00  0.00     0.002 A 
ATOM     25  C   UNL d   1      54.931   0.090  33.696  0.00  0.00     0.019 A 
BRANCH  21  26
ATOM     26  O   UNL d   1      56.968   0.662  34.274  0.00  0.00    -0.327 OA
ATOM     27  C   UNL d   1      57.424   0.682  34.964  0.00  0.00     0.181 C 
ENDBRANCH  21  26
ENDBRANCH   1  20
TORSDOF 5
ENDMDL
MODEL 2
REMARK VINA RESULT:      -3.3      0.915      5.809
REMARK  5 active torsions:
REMARK  status: ('A' for Active; 'I' for Inactive)
REMARK    1  A    between atoms: C_7  and  N_1 
REMARK    2  A    between atoms: C_8  and  N_6 
REMARK    3  A    between atoms: C_15  and  C_7 
REMARK    4  A    between atoms: N_9  and  C_15 
REMARK    5  A    between atoms: O_20  and  C_14 
ROOT
ATOM      1  N   UNL d   1      59.206   0.041  30.209  0.00  0.00    -0.300 N 
ATOM      2  N   UNL d   1      57.973   0.237  31.288  0.00  0.00    -0.299 N 
ATOM      3  C   UNL d   1      59.367   0.084  31.019  0.00  0.00     0.100 A 
ATOM      4  C   UNL d   1      58.429   0.096  29.939  0.00  0.00     0.100 A 
ATOM      5  C   UNL d   1      58.750   0.181  31.558  0.00  0.00     0.100 A 
ATOM      6  C   UNL d   1      57.812   0.194  30.478  0.00  0.00     0.100 A 
ENDROOT
BRANCH   2   7
ATOM      7  C   UNL d   1      57.356   0.335  31.827  0.00  0.00     0.100 C 
BRANCH   7   8
ATOM      8  C   UNL d   1      57.280  -0.183  32.467  0.00  0.00     0.105 C 
BRANCH   8   9
ATOM      9  N   UNL d   1      56.715  -0.042  33.058  0.00  0.00    -0.239 N 
ATOM     10  C   UNL d   1      55.922  -0.262  33.041  0.00  0.00     0.267 A 
ATOM     11  C   UNL d   1      55.571  -0.007  33.746  0.00  0.00     0.061 A 
ATOM     12  O   UNL d   1      55.545  -0.666  32.429  0.00  0.00    -0.267 OA
ATOM     13  C   UNL d   1      54.802  -0.075  34.026  0.00  0.00     0.005 A 
ATOM     14  C   UNL d   1      56.148   0.371  34.199  0.00  0.00     0.061 A 
ATOM     15  C   UNL d   1      54.608   0.240  34.766  0.00  0.00     0.000 A 
ATOM     16  C   UNL d   1      55.193   0.621  35.220  0.00  0.00     0.000 A 
ATOM     17  C   UNL d   1      55.956   0.682  34.931  0.00  0.00     0.005 A 
ATOM     18  C   UNL d   1      56.856   0.352  33.777  0.00  0.00     0.267 A 
ATOM     19  O   UNL d   1      57.580   0.669  34.027  0.00  0.00    -0.267 OA
ENDBRANCH   8   9
ENDBRANCH   7   8
ENDBRANCH   2   7
BRANCH   1  20
ATOM     20  C   UNL d   1      59.827  -0.058  29.669  0.00  0.00     0.086 A 
ATOM     21  C   UNL d   1      59.900  -0.767  29.250  0.00  0.00     0.110 A 
ATOM     22  C   UNL d   1      60.524  -0.864  28.709  0.00  0.00     0.026 A 
ATOM     23  C   UNL d   1      61.068  -0.255  28.590  0.00  0.00     0.002 A 
ATOM     24  C   UNL d   1      60.995   0.454  29.009  0.00  0.00     0.002 A 
ATOM     25  C   UNL d   1      60.377   0.554  29.547  0.00  0.00     0.019 A 
BRANCH  21  26
ATOM     26  O   UNL d   1      59.365  -1.383  29.359  0.00  0.00    -0.327 OA
ATOM     27  C   UNL d   1      59.372  -2.047  28.866  0.00  0.00     0.181 C 
ENDBRANCH  21  26
ENDBRANCH   1  20
TORSDOF 5
ENDMDL
