MODEL 1
REMARK VINA RESULT:      -6.1      0.000      0.000
REMARK  3 active torsions:
REMARK  status: ('A' for Active; 'I' for Inactive)
REMARK    1  A    between atoms: C_2  and  C_1 
REMARK    2  A    between atoms: C_13  and  C_8 
REMARK    3  A    between atoms: O_23  and  C_20 
ROOT
ATOM      1  C   UNL d   1      58.662  -0.577  29.970  0.00  0.00     0.106 A 
ATOM      2  C   UNL d   1      59.366  -0.119  29.841  0.00  0.00     0.304 A 
ATOM      3  C   UNL d   1      58.631  -1.359  29.714  0.00  0.00     0.011 A 
ATOM      4  C   UNL d   1      59.269  -1.686  29.341  0.00  0.00     0.023 A 
ATOM      5  O   UNL d   1      60.014  -0.458  29.460  0.00  0.00    -0.273 OA
ATOM      6  C   UNL d   1      59.973  -1.228  29.212  0.00  0.00     0.103 A 
ATOM      7  C   UNL d   1      59.238  -2.468  29.084  0.00  0.00     0.002 A 
ATOM      8  O   UNL d   1      59.390   0.682  30.107  0.00  0.00    -0.259 OA
ATOM      9  C   UNL d   1      60.621  -1.567  28.831  0.00  0.00     0.025 A 
ATOM     10  C   UNL d   1      59.885  -2.812  28.702  0.00  0.00     0.000 A 
ATOM     11  C   UNL d   1      60.589  -2.354  28.573  0.00  0.00     0.002 A 
ATOM     12  C   UNL d   1      58.542  -2.896  29.220  0.00  0.00     0.000 A 
ATOM     13  C   UNL d   1      59.845  -3.577  28.455  0.00  0.00     0.000 A 
ATOM     14  C   UNL d   1      58.511  -3.683  28.962  0.00  0.00     0.000 A 
ATOM     15  C   UNL d   1      59.159  -4.023  28.581  0.00  0.00     0.000 A 
ENDROOT
BRANCH   1  16
ATOM     16  C   UNL d   1      58.015  -0.233  30.353  0.00  0.00     0.210 A 
ATOM     17  O   UNL d   1      57.803  -0.470  31.107  0.00  0.00    -0.268 OA
ATOM     18  C   UNL d   1      57.150  -0.037  31.341  0.00  0.00     0.204 A 
ATOM     19  N   UNL d   1      56.971   0.459  30.726  0.00  0.00    -0.121 NA
ATOM     20  N   UNL d   1      57.500   0.340  30.120  0.00  0.00    -0.121 NA
BRANCH  18  21
ATOM     21  C   UNL d   1      56.688  -0.024  32.031  0.00  0.00     0.043 A 
ATOM     22  C   UNL d   1      56.196  -0.656  32.207  0.00  0.00     0.006 A 
ATOM     23  C   UNL d   1      55.741  -0.661  32.870  0.00  0.00     0.024 A 
ATOM     24  C   UNL d   1      55.780   0.006  33.390  0.00  0.00     0.094 A 
ATOM     25  C   UNL d   1      56.274   0.638  33.211  0.00  0.00     0.024 A 
ATOM     26  C   UNL d   1      56.727   0.617  32.527  0.00  0.00     0.006 A 
BRANCH  24  27
ATOM     27  O   UNL d   1      55.330   0.040  34.081  0.00  0.00    -0.328 OA
ATOM     28  C   UNL d   1      54.748   0.605  34.169  0.00  0.00     0.181 C 
ENDBRANCH  24  27
ENDBRANCH  18  21
ENDBRANCH   1  16
TORSDOF 3
ENDMDL
MODEL 2
REMARK VINA RESULT:      -4.2      1.193      5.207
REMARK  3 active torsions:
REMARK  status: ('A' for Active; 'I' for Inactive)
REMARK    1  A    between atoms: C_2  and  C_1 
REMARK    2  A    between atoms: C_13  and  C_8 
REMARK    3  A    between atoms: O_23  and  C_20 
ROOT
ATOM      1  C   UNL d   1      57.705  -0.483  31.025  0.00  0.00     0.106 A 
ATOM      2  C   UNL d   1      58.015   0.279  31.237  0.00  0.00     0.304 A 
ATOM      3  C   UNL d   1      57.133  -0.838  31.500  0.00  0.00     0.011 A 
ATOM      4  C   UNL d   1      56.871  -0.461  32.164  0.00  0.00     0.023 A 
ATOM      5  O   UNL d   1      57.743   0.660  31.917  0.00  0.00    -0.273 OA
ATOM      6  C   UNL d   1      57.181   0.301  32.377  0.00  0.00     0.103 A 
ATOM      7  C   UNL d   1      56.300  -0.816  32.639  0.00  0.00     0.002 A 
ATOM      8  O   UNL d   1      58.601   0.637  30.746  0.00  0.00    -0.259 OA
ATOM      9  C   UNL d   1      56.910   0.682  33.057  0.00  0.00     0.025 A 
ATOM     10  C   UNL d   1      56.024  -0.439  33.321  0.00  0.00     0.000 A 
ATOM     11  C   UNL d   1      56.335   0.324  33.534  0.00  0.00     0.002 A 
ATOM     12  C   UNL d   1      56.011  -1.559  32.414  0.00  0.00     0.000 A 
ATOM     13  C   UNL d   1      55.466  -0.794  33.778  0.00  0.00     0.000 A 
ATOM     14  C   UNL d   1      55.436  -1.916  32.892  0.00  0.00     0.000 A 
ATOM     15  C   UNL d   1      55.163  -1.536  33.571  0.00  0.00     0.000 A 
ENDROOT
BRANCH   1  16
ATOM     16  C   UNL d   1      57.980  -0.860  30.343  0.00  0.00     0.210 A 
ATOM     17  O   UNL d   1      58.454  -1.525  30.398  0.00  0.00    -0.268 OA
ATOM     18  C   UNL d   1      58.640  -1.775  29.641  0.00  0.00     0.204 A 
ATOM     19  N   UNL d   1      58.276  -1.259  29.134  0.00  0.00    -0.121 NA
ATOM     20  N   UNL d   1      57.871  -0.697  29.562  0.00  0.00    -0.121 NA
BRANCH  18  21
ATOM     21  C   UNL d   1      59.091  -2.403  29.339  0.00  0.00     0.043 A 
ATOM     22  C   UNL d   1      58.731  -2.983  28.885  0.00  0.00     0.006 A 
ATOM     23  C   UNL d   1      59.152  -3.599  28.583  0.00  0.00     0.024 A 
ATOM     24  C   UNL d   1      59.981  -3.638  28.746  0.00  0.00     0.094 A 
ATOM     25  C   UNL d   1      60.339  -3.056  29.201  0.00  0.00     0.024 A 
ATOM     26  C   UNL d   1      59.886  -2.438  29.497  0.00  0.00     0.006 A 
BRANCH  24  27
ATOM     27  O   UNL d   1      60.448  -4.254  28.455  0.00  0.00    -0.328 OA
ATOM     28  C   UNL d   1      61.080  -4.534  28.888  0.00  0.00     0.181 C 
ENDBRANCH  24  27
ENDBRANCH  18  21
ENDBRANCH   1  16
TORSDOF 3
ENDMDL
MODEL 3
REMARK VINA RESULT:      -3.5      1.146      2.166
REMARK  3 active torsions:
REMARK  status: ('A' for Active; 'I' for Inactive)
REMARK    1  A    between atoms: C_2  and  C_1 
REMARK    2  A    between atoms: C_13  and  C_8 
REMARK    3  A    between atoms: O_23  and  C_20 
ROOT
ATOM      1  C   UNL d   1      57.859  -0.638  30.587  0.00  0.00     0.106 A 
ATOM      2  C   UNL d   1      57.671  -1.452  30.430  0.00  0.00     0.304 A 
ATOM      3  C   UNL d   1      58.551  -0.313  30.281  0.00  0.00     0.011 A 
ATOM      4  C   UNL d   1      59.048  -0.768  29.835  0.00  0.00     0.023 A 
ATOM      5  O   UNL d   1      58.182  -1.912  29.974  0.00  0.00    -0.273 OA
ATOM      6  C   UNL d   1      58.860  -1.582  29.678  0.00  0.00     0.103 A 
ATOM      7  C   UNL d   1      59.740  -0.443  29.530  0.00  0.00     0.002 A 
ATOM      8  O   UNL d   1      56.960  -1.778  30.746  0.00  0.00    -0.259 OA
ATOM      9  C   UNL d   1      59.370  -2.042  29.222  0.00  0.00     0.025 A 
ATOM     10  C   UNL d   1      60.254  -0.900  29.072  0.00  0.00     0.000 A 
ATOM     11  C   UNL d   1      60.066  -1.714  28.915  0.00  0.00     0.002 A 
ATOM     12  C   UNL d   1      59.904   0.352  29.694  0.00  0.00     0.000 A 
ATOM     13  C   UNL d   1      60.928  -0.573  28.778  0.00  0.00     0.000 A 
ATOM     14  C   UNL d   1      60.600   0.679  29.387  0.00  0.00     0.000 A 
ATOM     15  C   UNL d   1      61.111   0.220  28.930  0.00  0.00     0.000 A 
ENDROOT
BRANCH   1  16
ATOM     16  C   UNL d   1      57.345  -0.181  31.044  0.00  0.00     0.210 A 
ATOM     17  O   UNL d   1      57.247  -0.337  31.842  0.00  0.00    -0.268 OA
ATOM     18  C   UNL d   1      56.710   0.199  32.148  0.00  0.00     0.204 A 
ATOM     19  N   UNL d   1      56.486   0.675  31.533  0.00  0.00    -0.121 NA
ATOM     20  N   UNL d   1      56.874   0.444  30.855  0.00  0.00    -0.121 NA
BRANCH  18  21
ATOM     21  C   UNL d   1      56.390   0.322  32.904  0.00  0.00     0.043 A 
ATOM     22  C   UNL d   1      56.881   0.533  33.526  0.00  0.00     0.006 A 
ATOM     23  C   UNL d   1      56.589   0.657  34.266  0.00  0.00     0.024 A 
ATOM     24  C   UNL d   1      55.758   0.564  34.392  0.00  0.00     0.094 A 
ATOM     25  C   UNL d   1      55.269   0.352  33.766  0.00  0.00     0.024 A 
ATOM     26  C   UNL d   1      55.593   0.232  33.021  0.00  0.00     0.006 A 
BRANCH  24  27
ATOM     27  O   UNL d   1      55.419   0.681  35.135  0.00  0.00    -0.328 OA
ATOM     28  C   UNL d   1      55.882   0.676  35.807  0.00  0.00     0.181 C 
ENDBRANCH  24  27
ENDBRANCH  18  21
ENDBRANCH   1  16
TORSDOF 3
ENDMDL
