MODEL 1
REMARK VINA RESULT:      84.9      0.000      0.000
REMARK  4 active torsions:
REMARK  status: ('A' for Active; 'I' for Inactive)
REMARK    1  A    between atoms: C_8  and  C_6 
REMARK    2  A    between atoms: C_9  and  C_8 
REMARK       I    between atoms: N_11  and  C_9 
REMARK       I    between atoms: C_10  and  N_12 
REMARK    3  A    between atoms: C_17  and  N_11 
REMARK    4  A    between atoms: N_12  and  C_18 
ROOT
ATOM      1  N   UNL d   1     -49.072  26.468  34.133  0.00  0.00    -0.207 NA
ATOM      2  N   UNL d   1     -50.023  27.847  34.222  0.00  0.00    -0.240 NA
ATOM      3  C   UNL d   1     -48.908  27.230  34.363  0.00  0.00     0.297 A 
ATOM      4  C   UNL d   1     -49.779  26.137  33.865  0.00  0.00     0.086 A 
ATOM      5  C   UNL d   1     -50.589  27.323  33.944  0.00  0.00     0.083 A 
ATOM      6  C   UNL d   1     -49.233  27.696  34.393  0.00  0.00     0.144 A 
ATOM      7  C   UNL d   1     -50.514  26.517  33.765  0.00  0.00     0.035 A 
ATOM      8  O   UNL d   1     -48.133  27.369  34.601  0.00  0.00    -0.264 OA
ATOM      9  C   UNL d   1     -51.161  26.083  33.488  0.00  0.00     0.003 A 
ATOM     10  C   UNL d   1     -51.317  27.700  33.845  0.00  0.00     0.019 A 
ATOM     11  C   UNL d   1     -49.701  25.333  33.688  0.00  0.00     0.019 A 
ATOM     12  C   UNL d   1     -51.977  27.265  33.564  0.00  0.00     0.002 A 
ATOM     13  C   UNL d   1     -50.352  24.906  33.411  0.00  0.00     0.002 A 
ATOM     14  C   UNL d   1     -51.080  25.281  33.312  0.00  0.00     0.000 A 
ATOM     15  C   UNL d   1     -51.897  26.464  33.388  0.00  0.00     0.000 A 
ENDROOT
BRANCH   6  16
ATOM     16  C   UNL d   1     -48.825  28.359  34.663  0.00  0.00     0.086 C 
BRANCH  16  17
ATOM     17  C   UNL d   1     -48.642  28.423  35.473  0.00  0.00     0.281 C 
ATOM     18  N   UNL d   1     -48.333  29.131  35.771  0.00  0.00    -0.208 NA
ATOM     19  O   UNL d   1     -48.766  27.784  35.980  0.00  0.00    -0.265 OA
BRANCH  18  20
ATOM     20  C   UNL d   1     -48.207  29.773  35.267  0.00  0.00     0.085 A 
ATOM     21  C   UNL d   1     -48.848  30.136  34.904  0.00  0.00     0.021 A 
ATOM     22  C   UNL d   1     -48.729  30.777  34.401  0.00  0.00     0.021 A 
ATOM     23  C   UNL d   1     -47.959  31.055  34.262  0.00  0.00     0.085 A 
ATOM     24  C   UNL d   1     -47.318  30.688  34.629  0.00  0.00     0.021 A 
ATOM     25  C   UNL d   1     -47.442  30.048  35.131  0.00  0.00     0.021 A 
BRANCH  23  26
ATOM     26  N   UNL d   1     -47.838  31.684  33.769  0.00  0.00    -0.208 NA
ATOM     27  C   UNL d   1     -47.591  32.399  34.073  0.00  0.00     0.279 C 
ATOM     28  O   UNL d   1     -47.465  32.483  34.869  0.00  0.00    -0.265 OA
ATOM     29  C   UNL d   1     -47.468  33.036  33.576  0.00  0.00     0.068 C 
ENDBRANCH  23  26
ENDBRANCH  18  20
ENDBRANCH  16  17
ENDBRANCH   6  16
TORSDOF 4
ENDMDL
