MODEL 1
REMARK VINA RESULT:      20.8      0.000      0.000
REMARK  4 active torsions:
REMARK  status: ('A' for Active; 'I' for Inactive)
REMARK    1  A    between atoms: N_2  and  S_1 
REMARK    2  A    between atoms: C_3  and  S_1 
REMARK    3  A    between atoms: C_5  and  N_4 
REMARK    4  A    between atoms: O_17  and  C_14 
ROOT
ATOM      1  N   UNL d   1      46.088 -18.331  44.255  0.00  0.00    -0.226 N 
ATOM      2  N   UNL d   1      45.851 -16.725  44.470  0.00  0.00    -0.299 N 
ATOM      3  C   UNL d   1      45.537 -17.929  43.784  0.00  0.00     0.111 A 
ATOM      4  C   UNL d   1      46.516 -17.928  44.830  0.00  0.00     0.111 A 
ATOM      5  C   UNL d   1      45.421 -17.119  43.895  0.00  0.00     0.100 A 
ATOM      6  C   UNL d   1      46.395 -17.119  44.936  0.00  0.00     0.100 A 
ENDROOT
BRANCH   1   7
ATOM      7  S   UNL d   1      46.206 -19.140  44.147  0.00  0.00     0.272 S 
ATOM      8  O   UNL d   1      46.323 -19.942  44.043  0.00  0.00    -0.200 OA
ATOM      9  O   UNL d   1      46.059 -19.265  44.948  0.00  0.00    -0.200 OA
BRANCH   7  10
ATOM     10  C   UNL d   1      46.353 -19.007  43.346  0.00  0.00     0.106 A 
ATOM     11  C   UNL d   1      46.426 -19.642  42.822  0.00  0.00     0.037 A 
ATOM     12  C   UNL d   1      46.573 -19.502  42.022  0.00  0.00     0.095 A 
ATOM     13  C   UNL d   1      46.646 -18.725  41.746  0.00  0.00     0.024 A 
ATOM     14  C   UNL d   1      46.573 -18.093  42.270  0.00  0.00     0.003 A 
ATOM     15  C   UNL d   1      46.426 -18.234  43.070  0.00  0.00     0.013 A 
BRANCH  12  16
ATOM     16  O   UNL d   1      46.646 -20.132  41.499  0.00  0.00    -0.328 OA
ATOM     17  C   UNL d   1      46.508 -20.020  40.693  0.00  0.00     0.181 C 
ENDBRANCH  12  16
ENDBRANCH   7  10
ENDBRANCH   1   7
BRANCH   2  18
ATOM     18  C   UNL d   1      45.735 -15.916  44.581  0.00  0.00     0.092 A 
ATOM     19  C   UNL d   1      44.982 -15.629  44.738  0.00  0.00     0.156 A 
ATOM     20  F   UNL d   1      44.371 -16.189  44.774  0.00  0.00    -0.203 F 
ATOM     21  C   UNL d   1      44.853 -14.821  44.851  0.00  0.00     0.031 A 
ATOM     22  C   UNL d   1      45.499 -14.298  44.804  0.00  0.00     0.002 A 
ATOM     23  C   UNL d   1      46.258 -14.588  44.647  0.00  0.00     0.002 A 
ATOM     24  C   UNL d   1      46.374 -15.397  44.535  0.00  0.00     0.020 A 
ENDBRANCH   2  18
TORSDOF 4
ENDMDL
