MODEL 1
REMARK VINA RESULT:      -7.7      0.000      0.000
REMARK  4 active torsions:
REMARK  status: ('A' for Active; 'I' for Inactive)
REMARK    1  A    between atoms: C_7  and  C_1 
REMARK    2  A    between atoms: N_8  and  C_7 
REMARK    3  A    between atoms: C_11  and  N_8 
REMARK    4  A    between atoms: O_13  and  C_12 
ROOT
ATOM      1  C   UNL d   1     -46.334  12.485  23.100  0.00  0.00     0.145 A 
ATOM      2  C   UNL d   1     -45.553  12.577  22.867  0.00  0.00     0.305 A 
ATOM      3  C   UNL d   1     -46.581  11.776  23.455  0.00  0.00     0.305 A 
ATOM      4  O   UNL d   1     -46.042  11.169  23.573  0.00  0.00    -0.269 OA
ATOM      5  O   UNL d   1     -45.020  11.971  22.985  0.00  0.00    -0.269 OA
ATOM      6  C   UNL d   1     -45.266  11.262  23.341  0.00  0.00     0.242 A 
ATOM      7  O   UNL d   1     -47.388  11.678  23.697  0.00  0.00    -0.259 OA
ATOM      8  O   UNL d   1     -45.305  13.290  22.510  0.00  0.00    -0.259 OA
ATOM      9  C   UNL d   1     -45.311  10.512  23.663  0.00  0.00     0.035 A 
ATOM     10  C   UNL d   1     -44.537  11.517  23.053  0.00  0.00     0.035 A 
ATOM     11  C   UNL d   1     -43.889  11.032  23.093  0.00  0.00     0.001 A 
ATOM     12  C   UNL d   1     -44.641  10.024  23.698  0.00  0.00     0.001 A 
ATOM     13  C   UNL d   1     -43.927  10.303  23.404  0.00  0.00    -0.000 A 
ENDROOT
BRANCH   1  14
ATOM     14  C   UNL d   1     -46.857  13.120  22.967  0.00  0.00     0.110 C 
BRANCH  14  15
ATOM     15  N   UNL d   1     -47.474  13.023  22.416  0.00  0.00    -0.242 NA
BRANCH  15  16
ATOM     16  C   UNL d   1     -48.041  13.623  22.336  0.00  0.00     0.104 A 
ATOM     17  C   UNL d   1     -48.659  13.534  21.792  0.00  0.00     0.112 A 
ATOM     18  C   UNL d   1     -49.227  14.130  21.709  0.00  0.00     0.026 A 
ATOM     19  C   UNL d   1     -49.191  14.827  22.167  0.00  0.00     0.002 A 
ATOM     20  C   UNL d   1     -48.557  14.890  22.707  0.00  0.00     0.002 A 
ATOM     21  C   UNL d   1     -47.992  14.301  22.792  0.00  0.00     0.021 A 
BRANCH  17  22
ATOM     22  O   UNL d   1     -48.709  12.842  21.327  0.00  0.00    -0.327 OA
ATOM     23  C   UNL d   1     -49.427  12.580  21.072  0.00  0.00     0.181 C 
ENDBRANCH  17  22
ENDBRANCH  15  16
ENDBRANCH  14  15
ENDBRANCH   1  14
TORSDOF 4
ENDMDL
MODEL 2
REMARK VINA RESULT:      -7.0      1.368      4.722
REMARK  4 active torsions:
REMARK  status: ('A' for Active; 'I' for Inactive)
REMARK    1  A    between atoms: C_7  and  C_1 
REMARK    2  A    between atoms: N_8  and  C_7 
REMARK    3  A    between atoms: C_11  and  N_8 
REMARK    4  A    between atoms: O_13  and  C_12 
ROOT
ATOM      1  C   UNL d   1     -48.113  13.966  22.446  0.00  0.00     0.145 A 
ATOM      2  C   UNL d   1     -48.230  14.661  22.865  0.00  0.00     0.305 A 
ATOM      3  C   UNL d   1     -48.765  13.515  22.199  0.00  0.00     0.305 A 
ATOM      4  O   UNL d   1     -49.526  13.766  22.376  0.00  0.00    -0.269 OA
ATOM      5  O   UNL d   1     -48.988  14.908  23.039  0.00  0.00    -0.269 OA
ATOM      6  C   UNL d   1     -49.640  14.457  22.793  0.00  0.00     0.242 A 
ATOM      7  O   UNL d   1     -48.648  12.796  21.765  0.00  0.00    -0.259 OA
ATOM      8  O   UNL d   1     -47.574  15.115  23.113  0.00  0.00    -0.259 OA
ATOM      9  C   UNL d   1     -50.388  14.165  22.644  0.00  0.00     0.035 A 
ATOM     10  C   UNL d   1     -49.578  15.164  23.213  0.00  0.00     0.035 A 
ATOM     11  C   UNL d   1     -50.244  15.549  23.466  0.00  0.00     0.001 A 
ATOM     12  C   UNL d   1     -51.063  14.568  22.909  0.00  0.00     0.001 A 
ATOM     13  C   UNL d   1     -50.973  15.269  23.324  0.00  0.00    -0.000 A 
ENDROOT
BRANCH   1  14
ATOM     14  C   UNL d   1     -47.329  13.738  22.282  0.00  0.00     0.110 C 
BRANCH  14  15
ATOM     15  N   UNL d   1     -47.026  13.052  22.645  0.00  0.00    -0.242 NA
BRANCH  15  16
ATOM     16  C   UNL d   1     -46.228  12.855  22.533  0.00  0.00     0.104 A 
ATOM     17  C   UNL d   1     -45.892  12.240  22.973  0.00  0.00     0.112 A 
ATOM     18  C   UNL d   1     -45.096  12.039  22.864  0.00  0.00     0.026 A 
ATOM     19  C   UNL d   1     -44.619  12.448  22.314  0.00  0.00     0.002 A 
ATOM     20  C   UNL d   1     -44.986  13.065  21.885  0.00  0.00     0.002 A 
ATOM     21  C   UNL d   1     -45.773  13.266  21.990  0.00  0.00     0.021 A 
BRANCH  17  22
ATOM     22  O   UNL d   1     -46.356  11.821  23.527  0.00  0.00    -0.327 OA
ATOM     23  C   UNL d   1     -46.190  11.048  23.688  0.00  0.00     0.181 C 
ENDBRANCH  17  22
ENDBRANCH  15  16
ENDBRANCH  14  15
ENDBRANCH   1  14
TORSDOF 4
ENDMDL
MODEL 3
REMARK VINA RESULT:      -6.6      1.245      4.682
REMARK  4 active torsions:
REMARK  status: ('A' for Active; 'I' for Inactive)
REMARK    1  A    between atoms: C_7  and  C_1 
REMARK    2  A    between atoms: N_8  and  C_7 
REMARK    3  A    between atoms: C_11  and  N_8 
REMARK    4  A    between atoms: O_13  and  C_12 
ROOT
ATOM      1  C   UNL d   1     -48.490  12.679  22.884  0.00  0.00     0.145 A 
ATOM      2  C   UNL d   1     -48.655  13.464  23.055  0.00  0.00     0.305 A 
ATOM      3  C   UNL d   1     -49.003  12.244  22.397  0.00  0.00     0.305 A 
ATOM      4  O   UNL d   1     -49.674  12.600  22.089  0.00  0.00    -0.269 OA
ATOM      5  O   UNL d   1     -49.324  13.815  22.747  0.00  0.00    -0.269 OA
ATOM      6  C   UNL d   1     -49.836  13.380  22.260  0.00  0.00     0.242 A 
ATOM      7  O   UNL d   1     -48.835  11.432  22.218  0.00  0.00    -0.259 OA
ATOM      8  O   UNL d   1     -48.139  13.902  23.545  0.00  0.00    -0.259 OA
ATOM      9  C   UNL d   1     -50.446  13.130  21.776  0.00  0.00     0.035 A 
ATOM     10  C   UNL d   1     -49.850  14.160  22.528  0.00  0.00     0.035 A 
ATOM     11  C   UNL d   1     -50.453  14.656  22.312  0.00  0.00     0.001 A 
ATOM     12  C   UNL d   1     -51.058  13.647  21.563  0.00  0.00     0.001 A 
ATOM     13  C   UNL d   1     -51.047  14.418  21.843  0.00  0.00    -0.000 A 
ENDROOT
BRANCH   1  14
ATOM     14  C   UNL d   1     -47.801  12.345  23.213  0.00  0.00     0.110 C 
BRANCH  14  15
ATOM     15  N   UNL d   1     -47.063  12.538  22.877  0.00  0.00    -0.242 NA
BRANCH  15  16
ATOM     16  C   UNL d   1     -46.403  12.069  23.058  0.00  0.00     0.104 A 
ATOM     17  C   UNL d   1     -45.657  12.281  22.768  0.00  0.00     0.112 A 
ATOM     18  C   UNL d   1     -44.996  11.816  22.947  0.00  0.00     0.026 A 
ATOM     19  C   UNL d   1     -45.064  11.131  23.419  0.00  0.00     0.002 A 
ATOM     20  C   UNL d   1     -45.830  10.942  23.698  0.00  0.00     0.002 A 
ATOM     21  C   UNL d   1     -46.486  11.400  23.523  0.00  0.00     0.021 A 
BRANCH  17  22
ATOM     22  O   UNL d   1     -45.572  12.963  22.295  0.00  0.00    -0.327 OA
ATOM     23  C   UNL d   1     -44.878  13.100  21.907  0.00  0.00     0.181 C 
ENDBRANCH  17  22
ENDBRANCH  15  16
ENDBRANCH  14  15
ENDBRANCH   1  14
TORSDOF 4
ENDMDL
MODEL 4
REMARK VINA RESULT:      -6.1      7.921      9.497
REMARK  4 active torsions:
REMARK  status: ('A' for Active; 'I' for Inactive)
REMARK    1  A    between atoms: C_7  and  C_1 
REMARK    2  A    between atoms: N_8  and  C_7 
REMARK    3  A    between atoms: C_11  and  N_8 
REMARK    4  A    between atoms: O_13  and  C_12 
ROOT
ATOM      1  C   UNL d   1     -39.609  14.452  17.815  0.00  0.00     0.145 A 
ATOM      2  C   UNL d   1     -39.247  13.759  17.564  0.00  0.00     0.305 A 
ATOM      3  C   UNL d   1     -39.571  15.134  17.343  0.00  0.00     0.305 A 
ATOM      4  O   UNL d   1     -39.170  15.114  16.627  0.00  0.00    -0.269 OA
ATOM      5  O   UNL d   1     -38.850  13.743  16.852  0.00  0.00    -0.269 OA
ATOM      6  C   UNL d   1     -38.811  14.425  16.381  0.00  0.00     0.242 A 
ATOM      7  O   UNL d   1     -39.944  15.851  17.599  0.00  0.00    -0.259 OA
ATOM      8  O   UNL d   1     -39.286  13.073  18.039  0.00  0.00    -0.259 OA
ATOM      9  C   UNL d   1     -38.665  14.973  15.792  0.00  0.00     0.035 A 
ATOM     10  C   UNL d   1     -38.511  13.663  16.284  0.00  0.00     0.035 A 
ATOM     11  C   UNL d   1     -38.085  13.473  15.622  0.00  0.00     0.001 A 
ATOM     12  C   UNL d   1     -38.227  14.766  15.118  0.00  0.00     0.001 A 
ATOM     13  C   UNL d   1     -37.940  14.001  15.047  0.00  0.00    -0.000 A 
ENDROOT
BRANCH   1  14
ATOM     14  C   UNL d   1     -40.008  14.439  18.546  0.00  0.00     0.110 C 
BRANCH  14  15
ATOM     15  N   UNL d   1     -39.612  14.720  19.223  0.00  0.00    -0.242 NA
BRANCH  15  16
ATOM     16  C   UNL d   1     -40.002  14.700  19.956  0.00  0.00     0.104 A 
ATOM     17  C   UNL d   1     -39.609  14.957  20.637  0.00  0.00     0.112 A 
ATOM     18  C   UNL d   1     -39.994  14.939  21.369  0.00  0.00     0.026 A 
ATOM     19  C   UNL d   1     -40.779  14.664  21.438  0.00  0.00     0.002 A 
ATOM     20  C   UNL d   1     -41.151  14.410  20.733  0.00  0.00     0.002 A 
ATOM     21  C   UNL d   1     -40.772  14.427  20.006  0.00  0.00     0.021 A 
BRANCH  17  22
ATOM     22  O   UNL d   1     -38.823  15.236  20.585  0.00  0.00    -0.327 OA
ATOM     23  C   UNL d   1     -38.459  15.537  21.239  0.00  0.00     0.181 C 
ENDBRANCH  17  22
ENDBRANCH  15  16
ENDBRANCH  14  15
ENDBRANCH   1  14
TORSDOF 4
ENDMDL
MODEL 5
REMARK VINA RESULT:      -6.0      7.714      9.036
REMARK  4 active torsions:
REMARK  status: ('A' for Active; 'I' for Inactive)
REMARK    1  A    between atoms: C_7  and  C_1 
REMARK    2  A    between atoms: N_8  and  C_7 
REMARK    3  A    between atoms: C_11  and  N_8 
REMARK    4  A    between atoms: O_13  and  C_12 
ROOT
ATOM      1  C   UNL d   1     -39.760  15.781  19.786  0.00  0.00     0.145 A 
ATOM      2  C   UNL d   1     -39.198  15.828  19.190  0.00  0.00     0.305 A 
ATOM      3  C   UNL d   1     -40.562  15.688  19.594  0.00  0.00     0.305 A 
ATOM      4  O   UNL d   1     -40.791  15.643  18.807  0.00  0.00    -0.269 OA
ATOM      5  O   UNL d   1     -39.430  15.783  18.409  0.00  0.00    -0.269 OA
ATOM      6  C   UNL d   1     -40.231  15.689  18.217  0.00  0.00     0.242 A 
ATOM      7  O   UNL d   1     -41.146  15.639  20.207  0.00  0.00    -0.259 OA
ATOM      8  O   UNL d   1     -38.391  15.922  19.384  0.00  0.00    -0.259 OA
ATOM      9  C   UNL d   1     -40.948  15.600  17.834  0.00  0.00     0.035 A 
ATOM     10  C   UNL d   1     -39.551  15.752  17.755  0.00  0.00     0.035 A 
ATOM     11  C   UNL d   1     -39.601  15.726  16.947  0.00  0.00     0.001 A 
ATOM     12  C   UNL d   1     -40.987  15.575  17.006  0.00  0.00     0.001 A 
ATOM     13  C   UNL d   1     -40.295  15.640  16.570  0.00  0.00    -0.000 A 
ENDROOT
BRANCH   1  14
ATOM     14  C   UNL d   1     -39.496  15.831  20.575  0.00  0.00     0.110 C 
BRANCH  14  15
ATOM     15  N   UNL d   1     -39.410  15.128  21.013  0.00  0.00    -0.242 NA
BRANCH  15  16
ATOM     16  C   UNL d   1     -39.172  15.174  21.807  0.00  0.00     0.104 A 
ATOM     17  C   UNL d   1     -38.877  14.501  22.187  0.00  0.00     0.112 A 
ATOM     18  C   UNL d   1     -38.639  14.542  22.979  0.00  0.00     0.026 A 
ATOM     19  C   UNL d   1     -38.690  15.257  23.408  0.00  0.00     0.002 A 
ATOM     20  C   UNL d   1     -38.992  15.920  22.998  0.00  0.00     0.002 A 
ATOM     21  C   UNL d   1     -39.228  15.882  22.214  0.00  0.00     0.021 A 
BRANCH  17  22
ATOM     22  O   UNL d   1     -38.820  13.779  21.772  0.00  0.00    -0.327 OA
ATOM     23  C   UNL d   1     -38.376  13.176  22.072  0.00  0.00     0.181 C 
ENDBRANCH  17  22
ENDBRANCH  15  16
ENDBRANCH  14  15
ENDBRANCH   1  14
TORSDOF 4
ENDMDL
MODEL 6
REMARK VINA RESULT:      -5.9      7.837      9.539
REMARK  4 active torsions:
REMARK  status: ('A' for Active; 'I' for Inactive)
REMARK    1  A    between atoms: C_7  and  C_1 
REMARK    2  A    between atoms: N_8  and  C_7 
REMARK    3  A    between atoms: C_11  and  N_8 
REMARK    4  A    between atoms: O_13  and  C_12 
ROOT
ATOM      1  C   UNL d   1     -39.476  14.466  18.899  0.00  0.00     0.145 A 
ATOM      2  C   UNL d   1     -40.293  14.513  18.969  0.00  0.00     0.305 A 
ATOM      3  C   UNL d   1     -38.991  14.797  19.485  0.00  0.00     0.305 A 
ATOM      4  O   UNL d   1     -39.328  15.170  20.134  0.00  0.00    -0.269 OA
ATOM      5  O   UNL d   1     -40.624  14.885  19.615  0.00  0.00    -0.269 OA
ATOM      6  C   UNL d   1     -40.139  15.216  20.201  0.00  0.00     0.242 A 
ATOM      7  O   UNL d   1     -38.146  14.751  19.416  0.00  0.00    -0.259 OA
ATOM      8  O   UNL d   1     -40.782  14.180  18.380  0.00  0.00    -0.259 OA
ATOM      9  C   UNL d   1     -39.842  15.591  20.863  0.00  0.00     0.035 A 
ATOM     10  C   UNL d   1     -40.958  15.173  20.115  0.00  0.00     0.035 A 
ATOM     11  C   UNL d   1     -41.445  15.497  20.675  0.00  0.00     0.001 A 
ATOM     12  C   UNL d   1     -40.351  15.919  21.430  0.00  0.00     0.001 A 
ATOM     13  C   UNL d   1     -41.162  15.863  21.320  0.00  0.00    -0.000 A 
ENDROOT
BRANCH   1  14
ATOM     14  C   UNL d   1     -39.165  14.081  18.230  0.00  0.00     0.110 C 
BRANCH  14  15
ATOM     15  N   UNL d   1     -39.016  14.528  17.543  0.00  0.00    -0.242 NA
BRANCH  15  16
ATOM     16  C   UNL d   1     -38.659  14.160  16.891  0.00  0.00     0.104 A 
ATOM     17  C   UNL d   1     -38.411  14.616  16.247  0.00  0.00     0.112 A 
ATOM     18  C   UNL d   1     -38.055  14.252  15.594  0.00  0.00     0.026 A 
ATOM     19  C   UNL d   1     -37.939  13.425  15.570  0.00  0.00     0.002 A 
ATOM     20  C   UNL d   1     -38.201  12.990  16.235  0.00  0.00     0.002 A 
ATOM     21  C   UNL d   1     -38.553  13.348  16.883  0.00  0.00     0.021 A 
BRANCH  17  22
ATOM     22  O   UNL d   1     -38.519  15.444  16.255  0.00  0.00    -0.327 OA
ATOM     23  C   UNL d   1     -38.256  15.890  15.637  0.00  0.00     0.181 C 
ENDBRANCH  17  22
ENDBRANCH  15  16
ENDBRANCH  14  15
ENDBRANCH   1  14
TORSDOF 4
ENDMDL
