MODEL 1
REMARK VINA RESULT:       5.2      0.000      0.000
REMARK  6 active torsions:
REMARK  status: ('A' for Active; 'I' for Inactive)
REMARK    1  A    between atoms: C_9  and  N_1 
REMARK    2  A    between atoms: C_8  and  C_3 
REMARK       I    between atoms: N_12  and  C_8 
REMARK    3  A    between atoms: C_17  and  C_9 
REMARK    4  A    between atoms: C_23  and  N_12 
REMARK    5  A    between atoms: C_13  and  C_23 
REMARK    6  A    between atoms: C_20  and  C_17 
ROOT
ATOM      1  N   UNL d   1      58.726  -0.691  29.702  0.00  0.00    -0.273 N 
ATOM      2  C   UNL d   1      57.928  -0.512  29.760  0.00  0.00     0.177 A 
ATOM      3  C   UNL d   1      57.808  -0.095  30.464  0.00  0.00     0.115 A 
ATOM      4  C   UNL d   1      59.112  -0.388  30.367  0.00  0.00     0.167 A 
ATOM      5  C   UNL d   1      58.544  -0.020  30.839  0.00  0.00     0.123 A 
ATOM      6  N   UNL d   1      59.900  -0.400  30.603  0.00  0.00    -0.225 NA
ATOM      7  N   UNL d   1      58.764   0.337  31.547  0.00  0.00    -0.241 NA
ATOM      8  C   UNL d   1      60.121  -0.043  31.313  0.00  0.00     0.101 A 
ATOM      9  C   UNL d   1      59.553   0.325  31.784  0.00  0.00     0.099 A 
ATOM     10  N   UNL d   1      57.347  -0.713  29.210  0.00  0.00    -0.128 N 
ATOM     11  C   UNL d   1      60.910  -0.055  31.550  0.00  0.00     0.021 A 
ATOM     12  C   UNL d   1      59.773   0.682  32.493  0.00  0.00     0.021 A 
ATOM     13  C   UNL d   1      61.133   0.303  32.261  0.00  0.00     0.002 A 
ATOM     14  C   UNL d   1      60.565   0.671  32.733  0.00  0.00     0.002 A 
ENDROOT
BRANCH   1  15
ATOM     15  C   UNL d   1      59.091  -1.103  29.085  0.00  0.00     0.083 C 
BRANCH  15  16
ATOM     16  C   UNL d   1      58.927  -1.906  28.973  0.00  0.00     0.021 C 
BRANCH  16  17
ATOM     17  C   UNL d   1      59.545  -2.423  28.800  0.00  0.00     0.029 A 
ATOM     18  C   UNL d   1      59.394  -3.226  28.750  0.00  0.00     0.140 A 
ATOM     19  F   UNL d   1      58.583  -3.333  28.900  0.00  0.00    -0.204 F 
ATOM     20  C   UNL d   1      59.997  -3.747  28.579  0.00  0.00     0.030 A 
ATOM     21  C   UNL d   1      60.767  -3.457  28.455  0.00  0.00     0.002 A 
ATOM     22  C   UNL d   1      60.910  -2.650  28.507  0.00  0.00     0.000 A 
ATOM     23  C   UNL d   1      60.300  -2.136  28.679  0.00  0.00     0.002 A 
ENDBRANCH  16  17
ENDBRANCH  15  16
ENDBRANCH   1  15
BRANCH   3  24
ATOM     24  C   UNL d   1      57.089   0.196  30.748  0.00  0.00     0.284 C 
ATOM     25  N   UNL d   1      56.861   0.022  31.522  0.00  0.00    -0.204 NA
ATOM     26  O   UNL d   1      56.604   0.655  30.267  0.00  0.00    -0.265 OA
BRANCH  25  27
ATOM     27  C   UNL d   1      56.134   0.315  31.812  0.00  0.00     0.127 C 
BRANCH  27  28
ATOM     28  C   UNL d   1      55.904   0.155  32.581  0.00  0.00     0.119 A 
ATOM     29  O   UNL d   1      56.348   0.306  33.258  0.00  0.00    -0.304 OA
ATOM     30  C   UNL d   1      55.907   0.059  33.909  0.00  0.00     0.123 A 
ATOM     31  C   UNL d   1      55.186  -0.245  33.621  0.00  0.00     0.029 A 
ATOM     32  C   UNL d   1      55.190  -0.184  32.815  0.00  0.00     0.028 A 
ENDBRANCH  27  28
ENDBRANCH  25  27
ENDBRANCH   3  24
TORSDOF 6
ENDMDL
MODEL 2
REMARK VINA RESULT:       7.4      1.676      3.104
REMARK  6 active torsions:
REMARK  status: ('A' for Active; 'I' for Inactive)
REMARK    1  A    between atoms: C_9  and  N_1 
REMARK    2  A    between atoms: C_8  and  C_3 
REMARK       I    between atoms: N_12  and  C_8 
REMARK    3  A    between atoms: C_17  and  C_9 
REMARK    4  A    between atoms: C_23  and  N_12 
REMARK    5  A    between atoms: C_13  and  C_23 
REMARK    6  A    between atoms: C_20  and  C_17 
ROOT
ATOM      1  N   UNL d   1      57.919  -0.107  30.410  0.00  0.00    -0.273 N 
ATOM      2  C   UNL d   1      57.371  -0.027  31.015  0.00  0.00     0.177 A 
ATOM      3  C   UNL d   1      57.078  -0.778  31.197  0.00  0.00     0.115 A 
ATOM      4  C   UNL d   1      57.973  -0.907  30.209  0.00  0.00     0.167 A 
ATOM      5  C   UNL d   1      57.452  -1.322  30.696  0.00  0.00     0.123 A 
ATOM      6  N   UNL d   1      58.424  -1.308  29.650  0.00  0.00    -0.225 NA
ATOM      7  N   UNL d   1      57.382  -2.139  30.624  0.00  0.00    -0.241 NA
ATOM      8  C   UNL d   1      58.355  -2.126  29.578  0.00  0.00     0.101 A 
ATOM      9  C   UNL d   1      57.835  -2.541  30.065  0.00  0.00     0.099 A 
ATOM     10  N   UNL d   1      57.152   0.681  31.377  0.00  0.00    -0.128 N 
ATOM     11  C   UNL d   1      58.807  -2.528  29.019  0.00  0.00     0.021 A 
ATOM     12  C   UNL d   1      57.765  -3.359  29.993  0.00  0.00     0.021 A 
ATOM     13  C   UNL d   1      58.739  -3.349  28.945  0.00  0.00     0.002 A 
ATOM     14  C   UNL d   1      58.219  -3.764  29.432  0.00  0.00     0.002 A 
ENDROOT
BRANCH   1  15
ATOM     15  C   UNL d   1      58.349   0.504  30.056  0.00  0.00     0.083 C 
BRANCH  15  16
ATOM     16  C   UNL d   1      59.110   0.681  30.325  0.00  0.00     0.021 C 
BRANCH  16  17
ATOM     17  C   UNL d   1      59.737   0.681  29.790  0.00  0.00     0.029 A 
ATOM     18  C   UNL d   1      60.506   0.681  30.072  0.00  0.00     0.140 A 
ATOM     19  F   UNL d   1      60.462   0.681  30.903  0.00  0.00    -0.204 F 
ATOM     20  C   UNL d   1      61.133   0.681  29.552  0.00  0.00     0.030 A 
ATOM     21  C   UNL d   1      60.988   0.681  28.734  0.00  0.00     0.002 A 
ATOM     22  C   UNL d   1      60.215   0.681  28.458  0.00  0.00     0.000 A 
ATOM     23  C   UNL d   1      59.592   0.681  28.987  0.00  0.00     0.002 A 
ENDBRANCH  16  17
ENDBRANCH  15  16
ENDBRANCH   1  15
BRANCH   3  24
ATOM     24  C   UNL d   1      56.513  -0.960  31.772  0.00  0.00     0.284 C 
ATOM     25  N   UNL d   1      56.550  -0.586  32.507  0.00  0.00    -0.204 NA
ATOM     26  O   UNL d   1      55.920  -1.510  31.616  0.00  0.00    -0.265 OA
BRANCH  25  27
ATOM     27  C   UNL d   1      55.980  -0.770  33.090  0.00  0.00     0.127 C 
BRANCH  27  28
ATOM     28  C   UNL d   1      55.870  -0.268  33.728  0.00  0.00     0.119 A 
ATOM     29  O   UNL d   1      56.456  -0.013  34.247  0.00  0.00    -0.304 OA
ATOM     30  C   UNL d   1      56.102   0.483  34.803  0.00  0.00     0.123 A 
ATOM     31  C   UNL d   1      55.290   0.526  34.617  0.00  0.00     0.029 A 
ATOM     32  C   UNL d   1      55.155   0.069  33.964  0.00  0.00     0.028 A 
ENDBRANCH  27  28
ENDBRANCH  25  27
ENDBRANCH   3  24
TORSDOF 6
ENDMDL
