MODEL 1
REMARK VINA RESULT:      -4.3      0.000      0.000
REMARK  3 active torsions:
REMARK  status: ('A' for Active; 'I' for Inactive)
REMARK    1  A    between atoms: C_4  and  C_1 
REMARK    2  A    between atoms: C_7  and  C_4 
REMARK    3  A    between atoms: C_10  and  C_7 
ROOT
ATOM      1  C   UNL d   1      56.515  -0.530  31.907  0.00  0.00     0.062 A 
ATOM      2  C   UNL d   1      56.616  -1.348  31.945  0.00  0.00     0.279 A 
ATOM      3  N   UNL d   1      57.213  -1.555  31.418  0.00  0.00    -0.208 NA
ATOM      4  C   UNL d   1      57.050  -0.236  31.357  0.00  0.00     0.022 A 
ATOM      5  C   UNL d   1      57.480  -0.863  31.055  0.00  0.00     0.085 A 
ATOM      6  O   UNL d   1      56.195  -1.869  32.425  0.00  0.00    -0.265 OA
ATOM      7  C   UNL d   1      57.194   0.536  31.096  0.00  0.00     0.002 A 
ATOM      8  C   UNL d   1      58.065  -0.723  30.483  0.00  0.00     0.019 A 
ATOM      9  C   UNL d   1      57.779   0.675  30.525  0.00  0.00     0.000 A 
ATOM     10  C   UNL d   1      58.210   0.040  30.223  0.00  0.00     0.002 A 
ENDROOT
BRANCH   1  11
ATOM     11  C   UNL d   1      55.974  -0.089  32.344  0.00  0.00     0.047 C 
BRANCH  11  12
ATOM     12  C   UNL d   1      56.286   0.009  33.104  0.00  0.00     0.196 C 
ATOM     13  O   UNL d   1      57.085  -0.115  33.240  0.00  0.00    -0.287 OA
BRANCH  12  14
ATOM     14  C   UNL d   1      55.788   0.233  33.722  0.00  0.00     0.039 A 
ATOM     15  C   UNL d   1      54.998   0.420  33.571  0.00  0.00     0.003 A 
ATOM     16  C   UNL d   1      54.498   0.643  34.181  0.00  0.00     0.000 A 
ATOM     17  C   UNL d   1      54.785   0.682  34.958  0.00  0.00     0.000 A 
ATOM     18  C   UNL d   1      55.573   0.494  35.110  0.00  0.00     0.000 A 
ATOM     19  C   UNL d   1      56.076   0.270  34.498  0.00  0.00     0.003 A 
ENDBRANCH  12  14
ENDBRANCH  11  12
ENDBRANCH   1  11
TORSDOF 3
ENDMDL
MODEL 2
REMARK VINA RESULT:      -4.0      1.105      3.878
REMARK  3 active torsions:
REMARK  status: ('A' for Active; 'I' for Inactive)
REMARK    1  A    between atoms: C_4  and  C_1 
REMARK    2  A    between atoms: C_7  and  C_4 
REMARK    3  A    between atoms: C_10  and  C_7 
ROOT
ATOM      1  C   UNL d   1      56.581   0.677  33.119  0.00  0.00     0.062 A 
ATOM      2  C   UNL d   1      57.156   0.675  33.710  0.00  0.00     0.279 A 
ATOM      3  N   UNL d   1      56.773   0.671  34.438  0.00  0.00    -0.208 NA
ATOM      4  C   UNL d   1      55.845   0.675  33.484  0.00  0.00     0.022 A 
ATOM      5  C   UNL d   1      55.959   0.671  34.295  0.00  0.00     0.085 A 
ATOM      6  O   UNL d   1      57.972   0.676  33.596  0.00  0.00    -0.265 OA
ATOM      7  C   UNL d   1      55.080   0.676  33.169  0.00  0.00     0.002 A 
ATOM      8  C   UNL d   1      55.303   0.668  34.803  0.00  0.00     0.019 A 
ATOM      9  C   UNL d   1      54.425   0.673  33.677  0.00  0.00     0.000 A 
ATOM     10  C   UNL d   1      54.545   0.669  34.493  0.00  0.00     0.002 A 
ENDROOT
BRANCH   1  11
ATOM     11  C   UNL d   1      56.721   0.682  32.308  0.00  0.00     0.047 C 
BRANCH  11  12
ATOM     12  C   UNL d   1      57.034  -0.057  32.104  0.00  0.00     0.196 C 
ATOM     13  O   UNL d   1      56.988  -0.683  32.631  0.00  0.00    -0.287 OA
BRANCH  12  14
ATOM     14  C   UNL d   1      57.392  -0.158  31.367  0.00  0.00     0.039 A 
ATOM     15  C   UNL d   1      57.462  -0.912  31.040  0.00  0.00     0.003 A 
ATOM     16  C   UNL d   1      57.816  -1.019  30.309  0.00  0.00     0.000 A 
ATOM     17  C   UNL d   1      58.108  -0.365  29.891  0.00  0.00     0.000 A 
ATOM     18  C   UNL d   1      58.038   0.389  30.217  0.00  0.00     0.000 A 
ATOM     19  C   UNL d   1      57.682   0.497  30.951  0.00  0.00     0.003 A 
ENDBRANCH  12  14
ENDBRANCH  11  12
ENDBRANCH   1  11
TORSDOF 3
ENDMDL
MODEL 3
REMARK VINA RESULT:      -3.6      1.787      2.863
REMARK  3 active torsions:
REMARK  status: ('A' for Active; 'I' for Inactive)
REMARK    1  A    between atoms: C_4  and  C_1 
REMARK    2  A    between atoms: C_7  and  C_4 
REMARK    3  A    between atoms: C_10  and  C_7 
ROOT
ATOM      1  C   UNL d   1      57.993  -0.723  29.860  0.00  0.00     0.062 A 
ATOM      2  C   UNL d   1      58.110  -0.004  29.472  0.00  0.00     0.279 A 
ATOM      3  N   UNL d   1      58.751  -0.090  28.965  0.00  0.00    -0.208 NA
ATOM      4  C   UNL d   1      58.563  -1.249  29.590  0.00  0.00     0.022 A 
ATOM      5  C   UNL d   1      59.031  -0.863  29.040  0.00  0.00     0.085 A 
ATOM      6  O   UNL d   1      57.664   0.682  29.573  0.00  0.00    -0.265 OA
ATOM      7  C   UNL d   1      58.711  -2.040  29.783  0.00  0.00     0.002 A 
ATOM      8  C   UNL d   1      59.657  -1.268  28.674  0.00  0.00     0.019 A 
ATOM      9  C   UNL d   1      59.336  -2.444  29.418  0.00  0.00     0.000 A 
ATOM     10  C   UNL d   1      59.804  -2.051  28.865  0.00  0.00     0.002 A 
ENDROOT
BRANCH   1  11
ATOM     11  C   UNL d   1      57.408  -0.883  30.417  0.00  0.00     0.047 C 
BRANCH  11  12
ATOM     12  C   UNL d   1      57.572  -0.428  31.089  0.00  0.00     0.196 C 
ATOM     13  O   UNL d   1      58.258   0.020  31.126  0.00  0.00    -0.287 OA
BRANCH  12  14
ATOM     14  C   UNL d   1      57.041  -0.430  31.720  0.00  0.00     0.039 A 
ATOM     15  C   UNL d   1      56.858   0.275  32.109  0.00  0.00     0.003 A 
ATOM     16  C   UNL d   1      56.331   0.280  32.737  0.00  0.00     0.000 A 
ATOM     17  C   UNL d   1      55.976  -0.426  32.985  0.00  0.00     0.000 A 
ATOM     18  C   UNL d   1      56.158  -1.131  32.596  0.00  0.00     0.000 A 
ATOM     19  C   UNL d   1      56.687  -1.137  31.966  0.00  0.00     0.003 A 
ENDBRANCH  12  14
ENDBRANCH  11  12
ENDBRANCH   1  11
TORSDOF 3
ENDMDL
MODEL 4
REMARK VINA RESULT:      -3.3      9.032      9.859
REMARK  3 active torsions:
REMARK  status: ('A' for Active; 'I' for Inactive)
REMARK    1  A    between atoms: C_4  and  C_1 
REMARK    2  A    between atoms: C_7  and  C_4 
REMARK    3  A    between atoms: C_10  and  C_7 
ROOT
ATOM      1  C   UNL d   1      59.718  -9.818  32.935  0.00  0.00     0.062 A 
ATOM      2  C   UNL d   1      60.324  -9.818  32.375  0.00  0.00     0.279 A 
ATOM      3  N   UNL d   1      59.980  -9.818  31.628  0.00  0.00    -0.208 NA
ATOM      4  C   UNL d   1      59.003  -9.818  32.531  0.00  0.00     0.022 A 
ATOM      5  C   UNL d   1      59.160  -9.818  31.727  0.00  0.00     0.085 A 
ATOM      6  O   UNL d   1      61.133  -9.818  32.533  0.00  0.00    -0.265 OA
ATOM      7  C   UNL d   1      58.222  -9.818  32.804  0.00  0.00     0.002 A 
ATOM      8  C   UNL d   1      58.532  -9.818  31.184  0.00  0.00     0.019 A 
ATOM      9  C   UNL d   1      57.595  -9.818  32.262  0.00  0.00     0.000 A 
ATOM     10  C   UNL d   1      57.759  -9.818  31.454  0.00  0.00     0.002 A 
ENDROOT
BRANCH   1  11
ATOM     11  C   UNL d   1      59.815  -9.818  33.752  0.00  0.00     0.047 C 
BRANCH  11  12
ATOM     12  C   UNL d   1      60.093  -9.070  33.972  0.00  0.00     0.196 C 
ATOM     13  O   UNL d   1      60.512  -8.613  33.434  0.00  0.00    -0.287 OA
BRANCH  12  14
ATOM     14  C   UNL d   1      59.947  -8.789  34.733  0.00  0.00     0.039 A 
ATOM     15  C   UNL d   1      60.152  -9.245  35.390  0.00  0.00     0.003 A 
ATOM     16  C   UNL d   1      60.009  -8.971  36.149  0.00  0.00     0.000 A 
ATOM     17  C   UNL d   1      59.655  -8.230  36.262  0.00  0.00     0.000 A 
ATOM     18  C   UNL d   1      59.450  -7.774  35.607  0.00  0.00     0.000 A 
ATOM     19  C   UNL d   1      59.593  -8.048  34.844  0.00  0.00     0.003 A 
ENDBRANCH  12  14
ENDBRANCH  11  12
ENDBRANCH   1  11
TORSDOF 3
ENDMDL
MODEL 5
REMARK VINA RESULT:      -3.2      2.751      5.331
REMARK  3 active torsions:
REMARK  status: ('A' for Active; 'I' for Inactive)
REMARK    1  A    between atoms: C_4  and  C_1 
REMARK    2  A    between atoms: C_7  and  C_4 
REMARK    3  A    between atoms: C_10  and  C_7 
ROOT
ATOM      1  C   UNL d   1      58.482  -0.658  29.484  0.00  0.00     0.062 A 
ATOM      2  C   UNL d   1      58.812   0.039  29.192  0.00  0.00     0.279 A 
ATOM      3  N   UNL d   1      58.592   0.654  29.692  0.00  0.00    -0.208 NA
ATOM      4  C   UNL d   1      58.058  -0.470  30.163  0.00  0.00     0.022 A 
ATOM      5  C   UNL d   1      58.124   0.336  30.294  0.00  0.00     0.085 A 
ATOM      6  O   UNL d   1      59.282   0.111  28.518  0.00  0.00    -0.265 OA
ATOM      7  C   UNL d   1      57.619  -0.943  30.680  0.00  0.00     0.002 A 
ATOM      8  C   UNL d   1      57.747   0.679  30.949  0.00  0.00     0.019 A 
ATOM      9  C   UNL d   1      57.242  -0.600  31.334  0.00  0.00     0.000 A 
ATOM     10  C   UNL d   1      57.311   0.212  31.461  0.00  0.00     0.002 A 
ENDROOT
BRANCH   1  11
ATOM     11  C   UNL d   1      58.562  -1.407  29.153  0.00  0.00     0.047 C 
BRANCH  11  12
ATOM     12  C   UNL d   1      59.351  -1.640  29.249  0.00  0.00     0.196 C 
ATOM     13  O   UNL d   1      59.908  -1.103  29.522  0.00  0.00    -0.287 OA
BRANCH  12  14
ATOM     14  C   UNL d   1      59.571  -2.414  29.069  0.00  0.00     0.039 A 
ATOM     15  C   UNL d   1      60.307  -2.702  29.307  0.00  0.00     0.003 A 
ATOM     16  C   UNL d   1      60.531  -3.470  29.132  0.00  0.00     0.000 A 
ATOM     17  C   UNL d   1      60.017  -3.966  28.711  0.00  0.00     0.000 A 
ATOM     18  C   UNL d   1      59.281  -3.679  28.473  0.00  0.00     0.000 A 
ATOM     19  C   UNL d   1      59.055  -2.908  28.649  0.00  0.00     0.003 A 
ENDBRANCH  12  14
ENDBRANCH  11  12
ENDBRANCH   1  11
TORSDOF 3
ENDMDL
