MODEL 1
REMARK VINA RESULT:      37.9      0.000      0.000
REMARK  5 active torsions:
REMARK  status: ('A' for Active; 'I' for Inactive)
REMARK    1  A    between atoms: C_2  and  N_1 
REMARK    2  A    between atoms: C_5  and  N_1 
REMARK    3  A    between atoms: C_7  and  C_2 
REMARK    4  A    between atoms: C_4  and  O_6 
REMARK    5  A    between atoms: O_6  and  C_8 
ROOT
ATOM      1  C   UNL d   1     -49.723  26.649  33.666  0.00  0.00     0.020 A 
ATOM      2  C   UNL d   1     -49.005  28.010  34.265  0.00  0.00     0.105 A 
ATOM      3  C   UNL d   1     -50.188  27.304  33.862  0.00  0.00     0.004 A 
ATOM      4  C   UNL d   1     -48.911  26.661  33.763  0.00  0.00     0.004 A 
ATOM      5  C   UNL d   1     -49.826  27.976  34.159  0.00  0.00     0.025 A 
ATOM      6  C   UNL d   1     -48.549  27.334  34.060  0.00  0.00     0.025 A 
ENDROOT
BRANCH   1   7
ATOM      7  C   UNL d   1     -50.095  25.958  33.361  0.00  0.00     0.108 C 
BRANCH   7   8
ATOM      8  N   UNL d   1     -50.924  25.923  33.342  0.00  0.00    -0.184 N 
ATOM      9  O   UNL d   1     -51.376  26.612  33.307  0.00  0.00    -0.080 OA
BRANCH   8  10
ATOM     10  C   UNL d   1     -51.292  25.188  33.359  0.00  0.00     0.090 A 
ATOM     11  C   UNL d   1     -52.118  25.155  33.430  0.00  0.00     0.020 A 
ATOM     12  C   UNL d   1     -52.487  24.417  33.447  0.00  0.00     0.002 A 
ATOM     13  C   UNL d   1     -52.030  23.710  33.393  0.00  0.00     0.000 A 
ATOM     14  C   UNL d   1     -51.206  23.774  33.323  0.00  0.00     0.002 A 
ATOM     15  C   UNL d   1     -50.837  24.511  33.306  0.00  0.00     0.020 A 
ENDBRANCH   8  10
ENDBRANCH   7   8
ENDBRANCH   1   7
BRANCH   2  16
ATOM     16  O   UNL d   1     -48.652  28.685  34.562  0.00  0.00    -0.260 OA
BRANCH  16  17
ATOM     17  C   UNL d   1     -48.150  28.634  35.205  0.00  0.00     0.391 C 
ATOM     18  F   UNL d   1     -47.453  29.075  35.207  0.00  0.00    -0.145 F 
ATOM     19  F   UNL d   1     -48.340  28.150  35.838  0.00  0.00    -0.145 F 
ENDBRANCH  16  17
ENDBRANCH   2  16
TORSDOF 5
ENDMDL
