MODEL 1
REMARK VINA RESULT:      -8.7      0.000      0.000
REMARK  1 active torsions:
REMARK  status: ('A' for Active; 'I' for Inactive)
REMARK    1  A    between atoms: C_9  and  C_3 
REMARK       I    between atoms: C_10  and  N_4 
ROOT
ATOM      1  N   UNL d   1      53.422  34.233  54.271  0.00  0.00    -0.047 N 
ATOM      2  N   UNL d   1      52.854  33.965  53.745  0.00  0.00    -0.188 N 
ATOM      3  C   UNL d   1      52.353  34.579  53.515  0.00  0.00     0.194 A 
ATOM      4  N   UNL d   1      53.887  33.664  54.484  0.00  0.00    -0.172 N 
ATOM      5  N   UNL d   1      52.602  35.277  53.907  0.00  0.00    -0.083 NA
ATOM      6  C   UNL d   1      52.998  33.187  53.644  0.00  0.00     0.104 A 
ATOM      7  O   UNL d   1      53.275  35.057  54.382  0.00  0.00    -0.089 OA
ATOM      8  C   UNL d   1      53.650  32.991  54.109  0.00  0.00     0.106 A 
ATOM      9  C   UNL d   1      54.535  33.750  55.024  0.00  0.00     0.282 C 
ATOM     10  O   UNL d   1      54.700  34.476  55.357  0.00  0.00    -0.265 OA
ATOM     11  C   UNL d   1      52.619  32.605  53.181  0.00  0.00     0.021 A 
ATOM     12  C   UNL d   1      53.920  32.218  54.110  0.00  0.00     0.021 A 
ATOM     13  C   UNL d   1      55.009  33.094  55.220  0.00  0.00     0.068 C 
ATOM     14  C   UNL d   1      53.573  31.638  53.673  0.00  0.00     0.002 A 
ATOM     15  C   UNL d   1      52.903  31.822  53.191  0.00  0.00     0.002 A 
ENDROOT
BRANCH   3  16
ATOM     16  C   UNL d   1      51.742  34.447  52.992  0.00  0.00     0.038 A 
ATOM     17  C   UNL d   1      51.861  34.485  52.204  0.00  0.00     0.003 A 
ATOM     18  C   UNL d   1      51.212  34.345  51.681  0.00  0.00     0.000 A 
ATOM     19  C   UNL d   1      52.601  34.657  51.880  0.00  0.00     0.000 C 
ATOM     20  C   UNL d   1      51.304  34.377  50.861  0.00  0.00     0.000 C 
ATOM     21  C   UNL d   1      50.503  34.180  51.984  0.00  0.00     0.000 A 
ATOM     22  C   UNL d   1      50.383  34.142  52.772  0.00  0.00     0.000 A 
ATOM     23  C   UNL d   1      50.994  34.274  53.295  0.00  0.00     0.003 A 
ATOM     24  C   UNL d   1      49.605  33.961  53.097  0.00  0.00     0.000 C 
ATOM     25  C   UNL d   1      50.871  34.234  54.110  0.00  0.00     0.000 C 
ENDBRANCH   3  16
TORSDOF 1
ENDMDL
MODEL 2
REMARK VINA RESULT:      -8.2      1.792      3.409
REMARK  1 active torsions:
REMARK  status: ('A' for Active; 'I' for Inactive)
REMARK    1  A    between atoms: C_9  and  C_3 
REMARK       I    between atoms: C_10  and  N_4 
ROOT
ATOM      1  N   UNL d   1      52.788  33.396  53.152  0.00  0.00    -0.047 N 
ATOM      2  N   UNL d   1      53.019  32.673  53.461  0.00  0.00    -0.188 N 
ATOM      3  C   UNL d   1      52.799  32.055  52.961  0.00  0.00     0.194 A 
ATOM      4  N   UNL d   1      52.991  33.969  53.616  0.00  0.00    -0.172 N 
ATOM      5  N   UNL d   1      52.409  32.386  52.296  0.00  0.00    -0.083 NA
ATOM      6  C   UNL d   1      53.381  32.836  54.153  0.00  0.00     0.104 A 
ATOM      7  O   UNL d   1      52.404  33.230  52.419  0.00  0.00    -0.089 OA
ATOM      8  C   UNL d   1      53.367  33.655  54.256  0.00  0.00     0.106 A 
ATOM      9  C   UNL d   1      52.837  34.788  53.462  0.00  0.00     0.282 C 
ATOM     10  O   UNL d   1      52.448  35.014  52.782  0.00  0.00    -0.265 OA
ATOM     11  C   UNL d   1      53.735  32.345  54.727  0.00  0.00     0.021 A 
ATOM     12  C   UNL d   1      53.705  33.977  54.928  0.00  0.00     0.021 A 
ATOM     13  C   UNL d   1      53.082  35.372  54.004  0.00  0.00     0.068 C 
ATOM     14  C   UNL d   1      54.053  33.526  55.497  0.00  0.00     0.002 A 
ATOM     15  C   UNL d   1      54.076  32.685  55.407  0.00  0.00     0.002 A 
ENDROOT
BRANCH   3  16
ATOM     16  C   UNL d   1      52.970  31.281  53.152  0.00  0.00     0.038 A 
ATOM     17  C   UNL d   1      53.699  30.981  53.034  0.00  0.00     0.003 A 
ATOM     18  C   UNL d   1      53.852  30.175  53.240  0.00  0.00     0.000 A 
ATOM     19  C   UNL d   1      54.314  31.431  52.717  0.00  0.00     0.000 C 
ATOM     20  C   UNL d   1      54.597  29.835  53.130  0.00  0.00     0.000 C 
ATOM     21  C   UNL d   1      53.270  29.738  53.543  0.00  0.00     0.000 A 
ATOM     22  C   UNL d   1      52.540  30.039  53.661  0.00  0.00     0.000 A 
ATOM     23  C   UNL d   1      52.370  30.813  53.470  0.00  0.00     0.003 A 
ATOM     24  C   UNL d   1      51.907  29.556  53.993  0.00  0.00     0.000 C 
ATOM     25  C   UNL d   1      51.615  31.123  53.592  0.00  0.00     0.000 C 
ENDBRANCH   3  16
TORSDOF 1
ENDMDL
MODEL 3
REMARK VINA RESULT:      -7.7      1.270      3.349
REMARK  1 active torsions:
REMARK  status: ('A' for Active; 'I' for Inactive)
REMARK    1  A    between atoms: C_9  and  C_3 
REMARK       I    between atoms: C_10  and  N_4 
ROOT
ATOM      1  N   UNL d   1      53.625  33.468  54.139  0.00  0.00    -0.047 N 
ATOM      2  N   UNL d   1      53.265  32.760  53.938  0.00  0.00    -0.188 N 
ATOM      3  C   UNL d   1      53.796  32.132  54.002  0.00  0.00     0.194 A 
ATOM      4  N   UNL d   1      53.132  34.050  54.079  0.00  0.00    -0.172 N 
ATOM      5  N   UNL d   1      54.534  32.441  54.256  0.00  0.00    -0.083 NA
ATOM      6  C   UNL d   1      52.512  32.942  53.748  0.00  0.00     0.104 A 
ATOM      7  O   UNL d   1      54.423  33.282  54.341  0.00  0.00    -0.089 OA
ATOM      8  C   UNL d   1      52.422  33.758  53.836  0.00  0.00     0.106 A 
ATOM      9  C   UNL d   1      53.323  34.859  54.247  0.00  0.00     0.282 C 
ATOM     10  O   UNL d   1      54.075  35.063  54.490  0.00  0.00    -0.265 OA
ATOM     11  C   UNL d   1      51.870  32.471  53.499  0.00  0.00     0.021 A 
ATOM     12  C   UNL d   1      51.695  34.097  53.675  0.00  0.00     0.021 A 
ATOM     13  C   UNL d   1      52.746  35.454  54.165  0.00  0.00     0.068 C 
ATOM     14  C   UNL d   1      51.059  33.666  53.434  0.00  0.00     0.002 A 
ATOM     15  C   UNL d   1      51.134  32.829  53.339  0.00  0.00     0.002 A 
ENDROOT
BRANCH   3  16
ATOM     16  C   UNL d   1      53.566  31.369  53.830  0.00  0.00     0.038 A 
ATOM     17  C   UNL d   1      53.533  31.111  53.076  0.00  0.00     0.003 A 
ATOM     18  C   UNL d   1      53.291  30.315  52.922  0.00  0.00     0.000 A 
ATOM     19  C   UNL d   1      53.728  31.596  52.437  0.00  0.00     0.000 C 
ATOM     20  C   UNL d   1      53.247  30.019  52.152  0.00  0.00     0.000 C 
ATOM     21  C   UNL d   1      53.103  29.846  53.527  0.00  0.00     0.000 A 
ATOM     22  C   UNL d   1      53.136  30.105  54.282  0.00  0.00     0.000 A 
ATOM     23  C   UNL d   1      53.366  30.867  54.454  0.00  0.00     0.003 A 
ATOM     24  C   UNL d   1      52.929  29.587  54.940  0.00  0.00     0.000 C 
ATOM     25  C   UNL d   1      53.400  31.134  55.234  0.00  0.00     0.000 C 
ENDBRANCH   3  16
TORSDOF 1
ENDMDL
MODEL 4
REMARK VINA RESULT:      -7.2      1.192      2.207
REMARK  1 active torsions:
REMARK  status: ('A' for Active; 'I' for Inactive)
REMARK    1  A    between atoms: C_9  and  C_3 
REMARK       I    between atoms: C_10  and  N_4 
ROOT
ATOM      1  N   UNL d   1      53.005  32.980  54.101  0.00  0.00    -0.047 N 
ATOM      2  N   UNL d   1      52.515  33.543  53.766  0.00  0.00    -0.188 N 
ATOM      3  C   UNL d   1      51.957  33.191  53.270  0.00  0.00     0.194 A 
ATOM      4  N   UNL d   1      53.522  33.306  54.561  0.00  0.00    -0.172 N 
ATOM      5  N   UNL d   1      52.087  32.363  53.281  0.00  0.00    -0.083 NA
ATOM      6  C   UNL d   1      52.763  34.247  54.049  0.00  0.00     0.104 A 
ATOM      7  O   UNL d   1      52.747  32.232  53.805  0.00  0.00    -0.089 OA
ATOM      8  C   UNL d   1      53.400  34.103  54.553  0.00  0.00     0.106 A 
ATOM      9  C   UNL d   1      54.113  32.882  54.995  0.00  0.00     0.282 C 
ATOM     10  O   UNL d   1      54.161  32.070  54.941  0.00  0.00    -0.265 OA
ATOM     11  C   UNL d   1      52.495  35.026  53.919  0.00  0.00     0.021 A 
ATOM     12  C   UNL d   1      53.765  34.735  54.923  0.00  0.00     0.021 A 
ATOM     13  C   UNL d   1      54.652  33.291  55.482  0.00  0.00     0.068 C 
ATOM     14  C   UNL d   1      53.526  35.496  54.815  0.00  0.00     0.002 A 
ATOM     15  C   UNL d   1      52.875  35.661  54.302  0.00  0.00     0.002 A 
ENDROOT
BRANCH   3  16
ATOM     16  C   UNL d   1      51.407  33.641  52.872  0.00  0.00     0.038 A 
ATOM     17  C   UNL d   1      50.705  33.822  53.206  0.00  0.00     0.003 A 
ATOM     18  C   UNL d   1      50.149  34.291  52.774  0.00  0.00     0.000 A 
ATOM     19  C   UNL d   1      50.501  33.566  53.964  0.00  0.00     0.000 C 
ATOM     20  C   UNL d   1      49.415  34.494  53.093  0.00  0.00     0.000 C 
ATOM     21  C   UNL d   1      50.338  34.539  52.049  0.00  0.00     0.000 A 
ATOM     22  C   UNL d   1      51.039  34.359  51.715  0.00  0.00     0.000 A 
ATOM     23  C   UNL d   1      51.590  33.908  52.113  0.00  0.00     0.003 A 
ATOM     24  C   UNL d   1      51.239  34.633  50.922  0.00  0.00     0.000 C 
ATOM     25  C   UNL d   1      52.315  33.722  51.767  0.00  0.00     0.000 C 
ENDBRANCH   3  16
TORSDOF 1
ENDMDL
MODEL 5
REMARK VINA RESULT:      -7.1      1.331      3.401
REMARK  1 active torsions:
REMARK  status: ('A' for Active; 'I' for Inactive)
REMARK    1  A    between atoms: C_9  and  C_3 
REMARK       I    between atoms: C_10  and  N_4 
ROOT
ATOM      1  N   UNL d   1      51.801  34.491  53.400  0.00  0.00    -0.047 N 
ATOM      2  N   UNL d   1      52.395  33.964  53.600  0.00  0.00    -0.188 N 
ATOM      3  C   UNL d   1      53.071  34.364  53.850  0.00  0.00     0.194 A 
ATOM      4  N   UNL d   1      51.173  34.120  53.168  0.00  0.00    -0.172 N 
ATOM      5  N   UNL d   1      52.915  35.187  53.812  0.00  0.00    -0.083 NA
ATOM      6  C   UNL d   1      52.093  33.236  53.478  0.00  0.00     0.104 A 
ATOM      7  O   UNL d   1      52.115  35.264  53.528  0.00  0.00    -0.089 OA
ATOM      8  C   UNL d   1      51.320  33.329  53.204  0.00  0.00     0.106 A 
ATOM      9  C   UNL d   1      50.456  34.499  52.920  0.00  0.00     0.282 C 
ATOM     10  O   UNL d   1      50.400  35.312  52.917  0.00  0.00    -0.265 OA
ATOM     11  C   UNL d   1      52.416  32.473  53.577  0.00  0.00     0.021 A 
ATOM     12  C   UNL d   1      50.876  32.663  53.032  0.00  0.00     0.021 A 
ATOM     13  C   UNL d   1      49.802  34.043  52.677  0.00  0.00     0.068 C 
ATOM     14  C   UNL d   1      51.164  31.916  53.119  0.00  0.00     0.002 A 
ATOM     15  C   UNL d   1      51.954  31.803  53.398  0.00  0.00     0.002 A 
ENDROOT
BRANCH   3  16
ATOM     16  C   UNL d   1      53.739  33.956  54.080  0.00  0.00     0.038 A 
ATOM     17  C   UNL d   1      54.268  33.698  53.541  0.00  0.00     0.003 A 
ATOM     18  C   UNL d   1      54.953  33.277  53.803  0.00  0.00     0.000 A 
ATOM     19  C   UNL d   1      54.170  33.830  52.732  0.00  0.00     0.000 C 
ATOM     20  C   UNL d   1      55.518  32.998  53.270  0.00  0.00     0.000 C 
ATOM     21  C   UNL d   1      55.053  33.148  54.575  0.00  0.00     0.000 A 
ATOM     22  C   UNL d   1      54.524  33.405  55.114  0.00  0.00     0.000 A 
ATOM     23  C   UNL d   1      53.857  33.813  54.884  0.00  0.00     0.003 A 
ATOM     24  C   UNL d   1      54.639  33.261  55.956  0.00  0.00     0.000 C 
ATOM     25  C   UNL d   1      53.310  34.080  55.441  0.00  0.00     0.000 C 
ENDBRANCH   3  16
TORSDOF 1
ENDMDL
MODEL 6
REMARK VINA RESULT:      -7.0      1.949      2.553
REMARK  1 active torsions:
REMARK  status: ('A' for Active; 'I' for Inactive)
REMARK    1  A    between atoms: C_9  and  C_3 
REMARK       I    between atoms: C_10  and  N_4 
ROOT
ATOM      1  N   UNL d   1      52.867  31.418  53.084  0.00  0.00    -0.047 N 
ATOM      2  N   UNL d   1      52.811  32.190  53.349  0.00  0.00    -0.188 N 
ATOM      3  C   UNL d   1      52.389  32.655  52.814  0.00  0.00     0.194 A 
ATOM      4  N   UNL d   1      53.259  30.986  53.580  0.00  0.00    -0.172 N 
ATOM      5  N   UNL d   1      52.159  32.167  52.172  0.00  0.00    -0.083 NA
ATOM      6  C   UNL d   1      53.196  32.211  54.048  0.00  0.00     0.104 A 
ATOM      7  O   UNL d   1      52.462  31.389  52.344  0.00  0.00    -0.089 OA
ATOM      8  C   UNL d   1      53.482  31.452  54.199  0.00  0.00     0.106 A 
ATOM      9  C   UNL d   1      53.419  30.160  53.476  0.00  0.00     0.282 C 
ATOM     10  O   UNL d   1      53.152  29.769  52.812  0.00  0.00    -0.265 OA
ATOM     11  C   UNL d   1      53.335  32.830  54.590  0.00  0.00     0.021 A 
ATOM     12  C   UNL d   1      53.903  31.315  54.887  0.00  0.00     0.021 A 
ATOM     13  C   UNL d   1      53.852  29.740  54.050  0.00  0.00     0.068 C 
ATOM     14  C   UNL d   1      54.051  31.895  55.426  0.00  0.00     0.002 A 
ATOM     15  C   UNL d   1      53.765  32.678  55.287  0.00  0.00     0.002 A 
ENDROOT
BRANCH   3  16
ATOM     16  C   UNL d   1      52.260  33.447  52.958  0.00  0.00     0.038 A 
ATOM     17  C   UNL d   1      52.830  33.987  52.819  0.00  0.00     0.003 A 
ATOM     18  C   UNL d   1      52.673  34.803  52.976  0.00  0.00     0.000 A 
ATOM     19  C   UNL d   1      53.573  33.777  52.526  0.00  0.00     0.000 C 
ATOM     20  C   UNL d   1      53.242  35.386  52.843  0.00  0.00     0.000 C 
ATOM     21  C   UNL d   1      51.966  35.012  53.256  0.00  0.00     0.000 A 
ATOM     22  C   UNL d   1      51.395  34.471  53.395  0.00  0.00     0.000 A 
ATOM     23  C   UNL d   1      51.524  33.680  53.251  0.00  0.00     0.003 A 
ATOM     24  C   UNL d   1      50.624  34.705  53.701  0.00  0.00     0.000 C 
ATOM     25  C   UNL d   1      50.935  33.121  53.394  0.00  0.00     0.000 C 
ENDBRANCH   3  16
TORSDOF 1
ENDMDL
MODEL 7
REMARK VINA RESULT:      -6.9      2.222      3.574
REMARK  1 active torsions:
REMARK  status: ('A' for Active; 'I' for Inactive)
REMARK    1  A    between atoms: C_9  and  C_3 
REMARK       I    between atoms: C_10  and  N_4 
ROOT
ATOM      1  N   UNL d   1      53.170  31.413  52.955  0.00  0.00    -0.047 N 
ATOM      2  N   UNL d   1      53.407  31.858  53.601  0.00  0.00    -0.188 N 
ATOM      3  C   UNL d   1      53.533  32.644  53.387  0.00  0.00     0.194 A 
ATOM      4  N   UNL d   1      53.054  30.684  53.154  0.00  0.00    -0.172 N 
ATOM      5  N   UNL d   1      53.372  32.718  52.566  0.00  0.00    -0.083 NA
ATOM      6  C   UNL d   1      53.430  31.353  54.218  0.00  0.00     0.104 A 
ATOM      7  O   UNL d   1      53.144  31.942  52.298  0.00  0.00    -0.089 OA
ATOM      8  C   UNL d   1      53.207  30.608  53.941  0.00  0.00     0.106 A 
ATOM      9  C   UNL d   1      52.805  30.075  52.619  0.00  0.00     0.282 C 
ATOM     10  O   UNL d   1      52.672  30.246  51.832  0.00  0.00    -0.265 OA
ATOM     11  C   UNL d   1      53.627  31.463  55.021  0.00  0.00     0.021 A 
ATOM     12  C   UNL d   1      53.183  29.980  54.465  0.00  0.00     0.021 A 
ATOM     13  C   UNL d   1      52.693  29.295  52.891  0.00  0.00     0.068 C 
ATOM     14  C   UNL d   1      53.368  30.059  55.244  0.00  0.00     0.002 A 
ATOM     15  C   UNL d   1      53.598  30.815  55.545  0.00  0.00     0.002 A 
ENDROOT
BRANCH   3  16
ATOM     16  C   UNL d   1      53.772  33.195  53.937  0.00  0.00     0.038 A 
ATOM     17  C   UNL d   1      54.543  33.280  54.124  0.00  0.00     0.003 A 
ATOM     18  C   UNL d   1      54.768  33.859  54.699  0.00  0.00     0.000 A 
ATOM     19  C   UNL d   1      55.133  32.820  53.775  0.00  0.00     0.000 C 
ATOM     20  C   UNL d   1      55.557  33.970  54.914  0.00  0.00     0.000 C 
ATOM     21  C   UNL d   1      54.210  34.302  55.037  0.00  0.00     0.000 A 
ATOM     22  C   UNL d   1      53.438  34.217  54.850  0.00  0.00     0.000 A 
ATOM     23  C   UNL d   1      53.199  33.666  54.299  0.00  0.00     0.003 A 
ATOM     24  C   UNL d   1      52.833  34.705  55.223  0.00  0.00     0.000 C 
ATOM     25  C   UNL d   1      52.402  33.579  54.106  0.00  0.00     0.000 C 
ENDBRANCH   3  16
TORSDOF 1
ENDMDL
MODEL 8
REMARK VINA RESULT:      -6.8      1.598      4.049
REMARK  1 active torsions:
REMARK  status: ('A' for Active; 'I' for Inactive)
REMARK    1  A    between atoms: C_9  and  C_3 
REMARK       I    between atoms: C_10  and  N_4 
ROOT
ATOM      1  N   UNL d   1      52.041  32.570  53.529  0.00  0.00    -0.047 N 
ATOM      2  N   UNL d   1      52.702  33.023  53.697  0.00  0.00    -0.188 N 
ATOM      3  C   UNL d   1      53.329  32.547  53.945  0.00  0.00     0.194 A 
ATOM      4  N   UNL d   1      51.459  33.011  53.299  0.00  0.00    -0.172 N 
ATOM      5  N   UNL d   1      53.067  31.750  53.940  0.00  0.00    -0.083 NA
ATOM      6  C   UNL d   1      52.492  33.780  53.555  0.00  0.00     0.104 A 
ATOM      7  O   UNL d   1      52.256  31.768  53.678  0.00  0.00    -0.089 OA
ATOM      8  C   UNL d   1      51.707  33.778  53.303  0.00  0.00     0.106 A 
ATOM      9  C   UNL d   1      50.693  32.720  53.082  0.00  0.00     0.282 C 
ATOM     10  O   UNL d   1      50.533  31.921  53.110  0.00  0.00    -0.265 OA
ATOM     11  C   UNL d   1      52.914  34.497  53.619  0.00  0.00     0.021 A 
ATOM     12  C   UNL d   1      51.347  34.490  53.117  0.00  0.00     0.021 A 
ATOM     13  C   UNL d   1      50.096  33.248  52.838  0.00  0.00     0.068 C 
ATOM     14  C   UNL d   1      51.731  35.195  53.171  0.00  0.00     0.002 A 
ATOM     15  C   UNL d   1      52.537  35.215  53.427  0.00  0.00     0.002 A 
ENDROOT
BRANCH   3  16
ATOM     16  C   UNL d   1      54.049  32.873  54.144  0.00  0.00     0.038 A 
ATOM     17  C   UNL d   1      54.197  33.117  54.889  0.00  0.00     0.003 A 
ATOM     18  C   UNL d   1      54.952  33.452  55.072  0.00  0.00     0.000 A 
ATOM     19  C   UNL d   1      53.637  33.052  55.492  0.00  0.00     0.000 C 
ATOM     20  C   UNL d   1      55.136  33.713  55.833  0.00  0.00     0.000 C 
ATOM     21  C   UNL d   1      55.492  33.517  54.501  0.00  0.00     0.000 A 
ATOM     22  C   UNL d   1      55.344  33.273  53.755  0.00  0.00     0.000 A 
ATOM     23  C   UNL d   1      54.624  32.947  53.557  0.00  0.00     0.003 A 
ATOM     24  C   UNL d   1      55.939  33.347  53.135  0.00  0.00     0.000 C 
ATOM     25  C   UNL d   1      54.471  32.696  52.786  0.00  0.00     0.000 C 
ENDBRANCH   3  16
TORSDOF 1
ENDMDL
