MODEL 1
REMARK VINA RESULT:      87.6      0.000      0.000
REMARK  5 active torsions:
REMARK  status: ('A' for Active; 'I' for Inactive)
REMARK       I    between atoms: C_2  and  N_1 
REMARK    1  A    between atoms: C_10  and  C_2 
REMARK    2  A    between atoms: C_7  and  C_3 
REMARK       I    between atoms: C_5  and  N_8 
REMARK    3  A    between atoms: C_15  and  C_5 
REMARK    4  A    between atoms: N_8  and  C_7 
REMARK    5  A    between atoms: N_9  and  C_10 
ROOT
ATOM      1  N   UNL d   1      58.791  49.577  51.038  0.00  0.00    -0.271 N 
ATOM      2  C   UNL d   1      58.434  49.569  50.285  0.00  0.00     0.282 C 
ATOM      3  C   UNL d   1      59.603  49.455  51.082  0.00  0.00     0.086 A 
ATOM      4  C   UNL d   1      59.970  49.459  51.795  0.00  0.00     0.018 A 
ATOM      5  C   UNL d   1      58.350  49.705  51.745  0.00  0.00     0.083 A 
ATOM      6  C   UNL d   1      59.541  49.583  52.483  0.00  0.00     0.003 A 
ATOM      7  O   UNL d   1      58.864  49.444  49.597  0.00  0.00    -0.265 OA
ATOM      8  C   UNL d   1      58.741  49.705  52.464  0.00  0.00     0.019 A 
ATOM      9  C   UNL d   1      60.789  49.337  51.844  0.00  0.00     0.002 A 
ATOM     10  C   UNL d   1      59.926  49.586  53.226  0.00  0.00     0.000 A 
ATOM     11  C   UNL d   1      61.176  49.338  52.569  0.00  0.00     0.000 A 
ATOM     12  C   UNL d   1      60.734  49.466  53.277  0.00  0.00     0.000 A 
ENDROOT
BRANCH   3  13
ATOM     13  C   UNL d   1      60.035  49.331  50.391  0.00  0.00     0.120 C 
BRANCH  13  14
ATOM     14  N   UNL d   1      60.764  49.703  50.289  0.00  0.00    -0.205 NA
ATOM     15  C   UNL d   1      61.443  49.247  50.099  0.00  0.00     0.279 C 
ATOM     16  O   UNL d   1      62.175  49.603  49.995  0.00  0.00    -0.265 OA
BRANCH  15  17
ATOM     17  C   UNL d   1      61.362  48.440  50.020  0.00  0.00     0.058 A 
ATOM     18  C   UNL d   1      61.437  47.929  50.645  0.00  0.00     0.005 A 
ATOM     19  C   UNL d   1      61.355  47.113  50.570  0.00  0.00     0.000 A 
ATOM     20  C   UNL d   1      61.186  46.797  49.806  0.00  0.00     0.000 A 
ATOM     21  C   UNL d   1      61.108  47.316  49.160  0.00  0.00     0.000 A 
ATOM     22  C   UNL d   1      61.196  48.113  49.277  0.00  0.00     0.005 A 
ENDBRANCH  15  17
ENDBRANCH  13  14
ENDBRANCH   3  13
BRANCH   2  23
ATOM     23  C   UNL d   1      57.604  49.690  50.206  0.00  0.00     0.142 C 
BRANCH  23  24
ATOM     24  N   UNL d   1      57.150  49.087  49.871  0.00  0.00    -0.295 N 
ATOM     25  C   UNL d   1      56.681  49.264  49.211  0.00  0.00     0.107 A 
ATOM     26  C   UNL d   1      56.212  48.675  48.854  0.00  0.00     0.142 A 
ATOM     27  O   UNL d   1      56.227  47.913  49.172  0.00  0.00    -0.300 OA
ATOM     28  C   UNL d   1      56.697  47.721  49.839  0.00  0.00     0.142 A 
ATOM     29  C   UNL d   1      57.160  48.320  50.186  0.00  0.00     0.107 A 
ENDBRANCH  23  24
ENDBRANCH   2  23
TORSDOF 5
ENDMDL
MODEL 2
REMARK VINA RESULT:      89.1      0.835      1.146
REMARK  5 active torsions:
REMARK  status: ('A' for Active; 'I' for Inactive)
REMARK       I    between atoms: C_2  and  N_1 
REMARK    1  A    between atoms: C_10  and  C_2 
REMARK    2  A    between atoms: C_7  and  C_3 
REMARK       I    between atoms: C_5  and  N_8 
REMARK    3  A    between atoms: C_15  and  C_5 
REMARK    4  A    between atoms: N_8  and  C_7 
REMARK    5  A    between atoms: N_9  and  C_10 
ROOT
ATOM      1  N   UNL d   1      58.746  49.593  51.775  0.00  0.00    -0.271 N 
ATOM      2  C   UNL d   1      58.368  49.559  51.034  0.00  0.00     0.282 C 
ATOM      3  C   UNL d   1      59.567  49.546  51.795  0.00  0.00     0.086 A 
ATOM      4  C   UNL d   1      59.953  49.577  52.496  0.00  0.00     0.018 A 
ATOM      5  C   UNL d   1      58.317  49.675  52.497  0.00  0.00     0.083 A 
ATOM      6  C   UNL d   1      59.536  49.656  53.197  0.00  0.00     0.003 A 
ATOM      7  O   UNL d   1      58.786  49.479  50.332  0.00  0.00    -0.265 OA
ATOM      8  C   UNL d   1      58.728  49.705  53.204  0.00  0.00     0.019 A 
ATOM      9  C   UNL d   1      60.781  49.529  52.519  0.00  0.00     0.002 A 
ATOM     10  C   UNL d   1      59.942  49.688  53.929  0.00  0.00     0.000 A 
ATOM     11  C   UNL d   1      61.188  49.559  53.233  0.00  0.00     0.000 A 
ATOM     12  C   UNL d   1      60.758  49.641  53.955  0.00  0.00     0.000 A 
ENDROOT
BRANCH   3  13
ATOM     13  C   UNL d   1      59.987  49.466  51.089  0.00  0.00     0.120 C 
BRANCH  13  14
ATOM     14  N   UNL d   1      59.645  49.707  50.379  0.00  0.00    -0.205 NA
ATOM     15  C   UNL d   1      59.989  49.474  49.649  0.00  0.00     0.279 C 
ATOM     16  O   UNL d   1      59.660  49.706  48.934  0.00  0.00    -0.265 OA
BRANCH  15  17
ATOM     17  C   UNL d   1      60.658  49.010  49.664  0.00  0.00     0.058 A 
ATOM     18  C   UNL d   1      60.671  48.271  49.998  0.00  0.00     0.005 A 
ATOM     19  C   UNL d   1      61.345  47.798  50.016  0.00  0.00     0.000 A 
ATOM     20  C   UNL d   1      62.054  48.099  49.669  0.00  0.00     0.000 A 
ATOM     21  C   UNL d   1      62.047  48.856  49.325  0.00  0.00     0.000 A 
ATOM     22  C   UNL d   1      61.362  49.289  49.329  0.00  0.00     0.005 A 
ENDBRANCH  15  17
ENDBRANCH  13  14
ENDBRANCH   3  13
BRANCH   2  23
ATOM     23  C   UNL d   1      57.529  49.605  50.980  0.00  0.00     0.142 C 
BRANCH  23  24
ATOM     24  N   UNL d   1      57.157  49.253  50.333  0.00  0.00    -0.295 N 
ATOM     25  C   UNL d   1      57.008  48.438  50.355  0.00  0.00     0.107 A 
ATOM     26  C   UNL d   1      56.635  48.056  49.716  0.00  0.00     0.142 A 
ATOM     27  O   UNL d   1      56.416  48.509  49.061  0.00  0.00    -0.300 OA
ATOM     28  C   UNL d   1      56.561  49.334  49.025  0.00  0.00     0.142 A 
ATOM     29  C   UNL d   1      56.935  49.702  49.671  0.00  0.00     0.107 A 
ENDBRANCH  23  24
ENDBRANCH   2  23
TORSDOF 5
ENDMDL
