MODEL 1
REMARK VINA RESULT:      -6.6      0.000      0.000
REMARK  1 active torsions:
REMARK  status: ('A' for Active; 'I' for Inactive)
REMARK    1  A    between atoms: C_6  and  C_2 
ROOT
ATOM      1  O   UNL d   1     -49.018  12.409  23.481  0.00  0.00    -0.260 OA
ATOM      2  C   UNL d   1     -48.250  12.102  23.410  0.00  0.00     0.207 A 
ATOM      3  N   UNL d   1     -48.306  11.282  23.487  0.00  0.00    -0.120 NA
ATOM      4  C   UNL d   1     -49.538  11.779  23.600  0.00  0.00     0.262 A 
ATOM      5  N   UNL d   1     -49.094  11.079  23.604  0.00  0.00    -0.109 NA
ATOM      6  S   UNL d   1     -50.356  11.843  23.698  0.00  0.00    -0.029 SA
ENDROOT
BRANCH   2   7
ATOM      7  C   UNL d   1     -47.567  12.537  23.287  0.00  0.00     0.062 A 
ATOM      8  C   UNL d   1     -46.876  12.351  23.697  0.00  0.00     0.102 A 
ATOM      9  N   UNL d   1     -46.188  12.798  23.566  0.00  0.00    -0.242 NA
ATOM     10  C   UNL d   1     -46.192  13.423  23.030  0.00  0.00     0.099 A 
ATOM     11  C   UNL d   1     -46.882  13.606  22.623  0.00  0.00     0.021 A 
ATOM     12  C   UNL d   1     -47.573  13.168  22.745  0.00  0.00     0.007 A 
ENDBRANCH   2   7
TORSDOF 1
ENDMDL
MODEL 2
REMARK VINA RESULT:      -6.2      1.827      2.200
REMARK  1 active torsions:
REMARK  status: ('A' for Active; 'I' for Inactive)
REMARK    1  A    between atoms: C_6  and  C_2 
ROOT
ATOM      1  O   UNL d   1     -48.305  14.096  23.083  0.00  0.00    -0.260 OA
ATOM      2  C   UNL d   1     -48.005  13.421  22.706  0.00  0.00     0.207 A 
ATOM      3  N   UNL d   1     -48.325  13.401  21.946  0.00  0.00    -0.120 NA
ATOM      4  C   UNL d   1     -48.806  14.486  22.554  0.00  0.00     0.262 A 
ATOM      5  N   UNL d   1     -48.817  14.052  21.848  0.00  0.00    -0.109 NA
ATOM      6  S   UNL d   1     -49.220  15.183  22.709  0.00  0.00    -0.029 SA
ENDROOT
BRANCH   2   7
ATOM      7  C   UNL d   1     -47.486  12.878  23.034  0.00  0.00     0.062 A 
ATOM      8  C   UNL d   1     -46.682  13.051  23.087  0.00  0.00     0.102 A 
ATOM      9  N   UNL d   1     -46.163  12.493  23.421  0.00  0.00    -0.242 NA
ATOM     10  C   UNL d   1     -46.447  11.772  23.698  0.00  0.00     0.099 A 
ATOM     11  C   UNL d   1     -47.249  11.603  23.644  0.00  0.00     0.021 A 
ATOM     12  C   UNL d   1     -47.775  12.150  23.313  0.00  0.00     0.007 A 
ENDBRANCH   2   7
TORSDOF 1
ENDMDL
MODEL 3
REMARK VINA RESULT:      -6.2      1.762      2.911
REMARK  1 active torsions:
REMARK  status: ('A' for Active; 'I' for Inactive)
REMARK    1  A    between atoms: C_6  and  C_2 
ROOT
ATOM      1  O   UNL d   1     -46.862  12.862  22.601  0.00  0.00    -0.260 OA
ATOM      2  C   UNL d   1     -47.155  12.399  23.225  0.00  0.00     0.207 A 
ATOM      3  N   UNL d   1     -46.512  12.189  23.698  0.00  0.00    -0.120 NA
ATOM      4  C   UNL d   1     -46.044  12.931  22.694  0.00  0.00     0.262 A 
ATOM      5  N   UNL d   1     -45.829  12.512  23.376  0.00  0.00    -0.109 NA
ATOM      6  S   UNL d   1     -45.537  13.347  22.191  0.00  0.00    -0.029 SA
ENDROOT
BRANCH   2   7
ATOM      7  C   UNL d   1     -47.939  12.194  23.344  0.00  0.00     0.062 A 
ATOM      8  C   UNL d   1     -48.138  11.426  23.568  0.00  0.00     0.102 A 
ATOM      9  N   UNL d   1     -48.937  11.227  23.687  0.00  0.00    -0.242 NA
ATOM     10  C   UNL d   1     -49.527  11.790  23.582  0.00  0.00     0.099 A 
ATOM     11  C   UNL d   1     -49.326  12.555  23.359  0.00  0.00     0.021 A 
ATOM     12  C   UNL d   1     -48.535  12.765  23.238  0.00  0.00     0.007 A 
ENDBRANCH   2   7
TORSDOF 1
ENDMDL
MODEL 4
REMARK VINA RESULT:      -6.1      1.974      2.632
REMARK  1 active torsions:
REMARK  status: ('A' for Active; 'I' for Inactive)
REMARK    1  A    between atoms: C_6  and  C_2 
ROOT
ATOM      1  O   UNL d   1     -47.372  12.559  23.286  0.00  0.00    -0.260 OA
ATOM      2  C   UNL d   1     -47.196  13.366  23.196  0.00  0.00     0.207 A 
ATOM      3  N   UNL d   1     -46.400  13.467  23.391  0.00  0.00    -0.120 NA
ATOM      4  C   UNL d   1     -46.686  12.172  23.535  0.00  0.00     0.262 A 
ATOM      5  N   UNL d   1     -46.083  12.738  23.600  0.00  0.00    -0.109 NA
ATOM      6  S   UNL d   1     -46.620  11.364  23.690  0.00  0.00    -0.029 SA
ENDROOT
BRANCH   2   7
ATOM      7  C   UNL d   1     -47.720  13.948  22.958  0.00  0.00     0.062 A 
ATOM      8  C   UNL d   1     -48.528  13.861  23.093  0.00  0.00     0.102 A 
ATOM      9  N   UNL d   1     -49.053  14.458  22.847  0.00  0.00    -0.242 NA
ATOM     10  C   UNL d   1     -48.769  15.133  22.471  0.00  0.00     0.099 A 
ATOM     11  C   UNL d   1     -47.963  15.217  22.338  0.00  0.00     0.021 A 
ATOM     12  C   UNL d   1     -47.432  14.630  22.578  0.00  0.00     0.007 A 
ENDBRANCH   2   7
TORSDOF 1
ENDMDL
MODEL 5
REMARK VINA RESULT:      -5.4      2.318      3.160
REMARK  1 active torsions:
REMARK  status: ('A' for Active; 'I' for Inactive)
REMARK    1  A    between atoms: C_6  and  C_2 
ROOT
ATOM      1  O   UNL d   1     -46.060  13.430  22.212  0.00  0.00    -0.260 OA
ATOM      2  C   UNL d   1     -46.581  13.208  22.819  0.00  0.00     0.207 A 
ATOM      3  N   UNL d   1     -46.153  12.748  23.354  0.00  0.00    -0.120 NA
ATOM      4  C   UNL d   1     -45.318  13.107  22.378  0.00  0.00     0.262 A 
ATOM      5  N   UNL d   1     -45.378  12.683  23.088  0.00  0.00    -0.109 NA
ATOM      6  S   UNL d   1     -44.641  13.195  21.913  0.00  0.00    -0.029 SA
ENDROOT
BRANCH   2   7
ATOM      7  C   UNL d   1     -47.373  13.411  22.872  0.00  0.00     0.062 A 
ATOM      8  C   UNL d   1     -47.949  12.825  22.934  0.00  0.00     0.102 A 
ATOM      9  N   UNL d   1     -48.751  13.040  22.986  0.00  0.00    -0.242 NA
ATOM     10  C   UNL d   1     -48.971  13.833  22.976  0.00  0.00     0.099 A 
ATOM     11  C   UNL d   1     -48.394  14.415  22.914  0.00  0.00     0.021 A 
ATOM     12  C   UNL d   1     -47.594  14.213  22.861  0.00  0.00     0.007 A 
ENDBRANCH   2   7
TORSDOF 1
ENDMDL
MODEL 6
REMARK VINA RESULT:      -5.2      8.755      9.214
REMARK  1 active torsions:
REMARK  status: ('A' for Active; 'I' for Inactive)
REMARK    1  A    between atoms: C_6  and  C_2 
ROOT
ATOM      1  O   UNL d   1     -40.515  15.221  18.357  0.00  0.00    -0.260 OA
ATOM      2  C   UNL d   1     -40.474  14.519  18.798  0.00  0.00     0.207 A 
ATOM      3  N   UNL d   1     -40.707  13.902  18.302  0.00  0.00    -0.120 NA
ATOM      4  C   UNL d   1     -40.772  15.031  17.595  0.00  0.00     0.262 A 
ATOM      5  N   UNL d   1     -40.890  14.211  17.562  0.00  0.00    -0.109 NA
ATOM      6  S   UNL d   1     -40.887  15.570  16.979  0.00  0.00    -0.029 SA
ENDROOT
BRANCH   2   7
ATOM      7  C   UNL d   1     -40.244  14.457  19.582  0.00  0.00     0.062 A 
ATOM      8  C   UNL d   1     -39.453  14.330  19.774  0.00  0.00     0.102 A 
ATOM      9  N   UNL d   1     -39.229  14.268  20.573  0.00  0.00    -0.242 NA
ATOM     10  C   UNL d   1     -39.792  14.332  21.170  0.00  0.00     0.099 A 
ATOM     11  C   UNL d   1     -40.580  14.458  20.975  0.00  0.00     0.021 A 
ATOM     12  C   UNL d   1     -40.815  14.522  20.184  0.00  0.00     0.007 A 
ENDBRANCH   2   7
TORSDOF 1
ENDMDL
MODEL 7
REMARK VINA RESULT:      -4.9      9.441     10.496
REMARK  1 active torsions:
REMARK  status: ('A' for Active; 'I' for Inactive)
REMARK    1  A    between atoms: C_6  and  C_2 
ROOT
ATOM      1  O   UNL d   1     -39.666  14.383  18.618  0.00  0.00    -0.260 OA
ATOM      2  C   UNL d   1     -39.768  13.999  17.889  0.00  0.00     0.207 A 
ATOM      3  N   UNL d   1     -40.558  13.767  17.842  0.00  0.00    -0.120 NA
ATOM      4  C   UNL d   1     -40.391  14.385  19.012  0.00  0.00     0.262 A 
ATOM      5  N   UNL d   1     -40.945  14.001  18.528  0.00  0.00    -0.109 NA
ATOM      6  S   UNL d   1     -40.532  14.712  19.757  0.00  0.00    -0.029 SA
ENDROOT
BRANCH   2   7
ATOM      7  C   UNL d   1     -39.187  13.876  17.325  0.00  0.00     0.062 A 
ATOM      8  C   UNL d   1     -39.084  14.414  16.709  0.00  0.00     0.102 A 
ATOM      9  N   UNL d   1     -38.492  14.281  16.141  0.00  0.00    -0.242 NA
ATOM     10  C   UNL d   1     -38.009  13.616  16.190  0.00  0.00     0.099 A 
ATOM     11  C   UNL d   1     -38.114  13.081  16.804  0.00  0.00     0.021 A 
ATOM     12  C   UNL d   1     -38.700  13.203  17.376  0.00  0.00     0.007 A 
ENDBRANCH   2   7
TORSDOF 1
ENDMDL
