MODEL 1
REMARK VINA RESULT:      -7.0      0.000      0.000
REMARK  5 active torsions:
REMARK  status: ('A' for Active; 'I' for Inactive)
REMARK    1  A    between atoms: C_2  and  S_1 
REMARK    2  A    between atoms: C_12  and  S_1 
REMARK    3  A    between atoms: N_5  and  C_3 
REMARK    4  A    between atoms: C_18  and  N_7 
REMARK    5  A    between atoms: O_22  and  C_20 
ROOT
ATOM      1  C   UNL d   1      53.605  33.191  54.152  0.00  0.00     0.123 A 
ATOM      2  C   UNL d   1      53.080  32.736  53.702  0.00  0.00     0.078 A 
ATOM      3  C   UNL d   1      53.232  31.937  53.578  0.00  0.00     0.036 A 
ATOM      4  C   UNL d   1      54.280  32.843  54.475  0.00  0.00     0.112 A 
ATOM      5  N   UNL d   1      54.429  32.039  54.348  0.00  0.00    -0.243 NA
ATOM      6  C   UNL d   1      53.907  31.588  53.901  0.00  0.00     0.083 A 
ATOM      7  C   UNL d   1      52.708  31.485  53.130  0.00  0.00     0.027 A 
ATOM      8  C   UNL d   1      54.057  30.789  53.776  0.00  0.00     0.021 A 
ATOM      9  C   UNL d   1      52.858  30.678  53.002  0.00  0.00     0.094 A 
ATOM     10  C   UNL d   1      53.532  30.330  53.325  0.00  0.00     0.026 A 
ENDROOT
BRANCH   2  11
ATOM     11  N   UNL d   1      52.400  33.088  53.376  0.00  0.00    -0.301 N 
ATOM     12  C   UNL d   1      52.438  33.442  52.625  0.00  0.00     0.100 A 
ATOM     13  C   UNL d   1      51.755  33.790  52.308  0.00  0.00     0.100 A 
ATOM     14  N   UNL d   1      51.045  33.786  52.731  0.00  0.00    -0.301 N 
ATOM     15  C   UNL d   1      51.011  33.430  53.483  0.00  0.00     0.100 A 
ATOM     16  C   UNL d   1      51.690  33.083  53.800  0.00  0.00     0.100 A 
BRANCH  14  17
ATOM     17  C   UNL d   1      50.371  34.134  52.408  0.00  0.00     0.064 A 
ATOM     18  C   UNL d   1      49.875  34.596  52.888  0.00  0.00     0.018 A 
ATOM     19  C   UNL d   1      49.199  34.946  52.568  0.00  0.00     0.002 A 
ATOM     20  C   UNL d   1      49.020  34.836  51.773  0.00  0.00     0.000 A 
ATOM     21  C   UNL d   1      49.514  34.376  51.296  0.00  0.00     0.002 A 
ATOM     22  C   UNL d   1      50.189  34.027  51.619  0.00  0.00     0.018 A 
ENDBRANCH  14  17
ENDBRANCH   2  11
BRANCH   1  23
ATOM     23  S   UNL d   1      53.456  33.998  54.279  0.00  0.00     0.213 S 
ATOM     24  O   UNL d   1      53.865  34.185  53.585  0.00  0.00    -0.217 OA
ATOM     25  O   UNL d   1      53.042  33.814  54.979  0.00  0.00    -0.217 OA
BRANCH  23  26
ATOM     26  C   UNL d   1      53.306  34.801  54.406  0.00  0.00     0.088 A 
ATOM     27  C   UNL d   1      53.563  35.366  53.863  0.00  0.00     0.011 A 
ATOM     28  C   UNL d   1      53.416  36.167  53.987  0.00  0.00     0.001 A 
ATOM     29  C   UNL d   1      53.003  36.417  54.667  0.00  0.00     0.000 A 
ATOM     30  C   UNL d   1      52.745  35.850  55.214  0.00  0.00     0.001 A 
ATOM     31  C   UNL d   1      52.898  35.044  55.079  0.00  0.00     0.011 A 
ENDBRANCH  23  26
ENDBRANCH   1  23
BRANCH   9  32
ATOM     32  O   UNL d   1      52.328  30.231  52.551  0.00  0.00    -0.328 OA
ATOM     33  C   UNL d   1      52.187  29.441  52.754  0.00  0.00     0.181 C 
ENDBRANCH   9  32
TORSDOF 5
ENDMDL
MODEL 2
REMARK VINA RESULT:      -4.7      1.225      3.827
REMARK  5 active torsions:
REMARK  status: ('A' for Active; 'I' for Inactive)
REMARK    1  A    between atoms: C_2  and  S_1 
REMARK    2  A    between atoms: C_12  and  S_1 
REMARK    3  A    between atoms: N_5  and  C_3 
REMARK    4  A    between atoms: C_18  and  N_7 
REMARK    5  A    between atoms: O_22  and  C_20 
ROOT
ATOM      1  C   UNL d   1      52.591  34.533  53.975  0.00  0.00     0.123 A 
ATOM      2  C   UNL d   1      52.105  34.005  53.565  0.00  0.00     0.078 A 
ATOM      3  C   UNL d   1      51.399  34.268  53.234  0.00  0.00     0.036 A 
ATOM      4  C   UNL d   1      52.368  35.324  54.052  0.00  0.00     0.112 A 
ATOM      5  N   UNL d   1      51.658  35.586  53.718  0.00  0.00    -0.243 NA
ATOM      6  C   UNL d   1      51.175  35.059  53.311  0.00  0.00     0.083 A 
ATOM      7  C   UNL d   1      50.915  33.740  52.826  0.00  0.00     0.027 A 
ATOM      8  C   UNL d   1      50.469  35.321  52.979  0.00  0.00     0.021 A 
ATOM      9  C   UNL d   1      50.202  34.002  52.490  0.00  0.00     0.094 A 
ATOM     10  C   UNL d   1      49.978  34.793  52.567  0.00  0.00     0.026 A 
ENDROOT
BRANCH   2  11
ATOM     11  N   UNL d   1      52.330  33.206  53.488  0.00  0.00    -0.301 N 
ATOM     12  C   UNL d   1      52.798  32.971  52.843  0.00  0.00     0.100 A 
ATOM     13  C   UNL d   1      53.018  32.174  52.773  0.00  0.00     0.100 A 
ATOM     14  N   UNL d   1      52.776  31.621  53.337  0.00  0.00    -0.301 N 
ATOM     15  C   UNL d   1      52.307  31.861  53.983  0.00  0.00     0.100 A 
ATOM     16  C   UNL d   1      52.088  32.653  54.052  0.00  0.00     0.100 A 
BRANCH  14  17
ATOM     17  C   UNL d   1      52.999  30.830  53.261  0.00  0.00     0.064 A 
ATOM     18  C   UNL d   1      53.671  30.550  53.662  0.00  0.00     0.018 A 
ATOM     19  C   UNL d   1      53.897  29.760  53.587  0.00  0.00     0.002 A 
ATOM     20  C   UNL d   1      53.456  29.251  53.115  0.00  0.00     0.000 A 
ATOM     21  C   UNL d   1      52.788  29.531  52.717  0.00  0.00     0.002 A 
ATOM     22  C   UNL d   1      52.564  30.322  52.793  0.00  0.00     0.018 A 
ENDBRANCH  14  17
ENDBRANCH   2  11
BRANCH   1  23
ATOM     23  S   UNL d   1      53.304  34.271  54.310  0.00  0.00     0.213 S 
ATOM     24  O   UNL d   1      53.698  34.429  53.600  0.00  0.00    -0.217 OA
ATOM     25  O   UNL d   1      52.911  34.111  55.028  0.00  0.00    -0.217 OA
BRANCH  23  26
ATOM     26  C   UNL d   1      54.014  34.010  54.645  0.00  0.00     0.088 A 
ATOM     27  C   UNL d   1      54.030  33.714  55.415  0.00  0.00     0.011 A 
ATOM     28  C   UNL d   1      54.735  33.454  55.750  0.00  0.00     0.001 A 
ATOM     29  C   UNL d   1      55.445  33.485  55.313  0.00  0.00     0.000 A 
ATOM     30  C   UNL d   1      55.430  33.782  54.539  0.00  0.00     0.001 A 
ATOM     31  C   UNL d   1      54.712  34.043  54.209  0.00  0.00     0.011 A 
ENDBRANCH  23  26
ENDBRANCH   1  23
BRANCH   9  32
ATOM     32  O   UNL d   1      49.721  33.467  52.082  0.00  0.00    -0.328 OA
ATOM     33  C   UNL d   1      49.227  33.742  51.478  0.00  0.00     0.181 C 
ENDBRANCH   9  32
TORSDOF 5
ENDMDL
