MODEL 1
REMARK VINA RESULT:      -8.1      0.000      0.000
REMARK  3 active torsions:
REMARK  status: ('A' for Active; 'I' for Inactive)
REMARK    1  A    between atoms: C_10  and  C_4 
REMARK    2  A    between atoms: C_11  and  C_7 
REMARK    3  A    between atoms: C_12  and  C_10 
ROOT
ATOM      1  N   UNL d   1     -47.847  14.002  22.897  0.00  0.00    -0.186 N 
ATOM      2  N   UNL d   1     -47.559  13.240  23.085  0.00  0.00    -0.162 NA
ATOM      3  C   UNL d   1     -47.308  14.593  22.663  0.00  0.00     0.217 A 
ATOM      4  C   UNL d   1     -48.597  14.325  22.890  0.00  0.00     0.187 A 
ATOM      5  N   UNL d   1     -48.540  15.110  22.655  0.00  0.00    -0.127 NA
ATOM      6  N   UNL d   1     -47.752  15.270  22.517  0.00  0.00    -0.120 NA
ATOM      7  C   UNL d   1     -46.756  13.077  23.040  0.00  0.00     0.108 A 
ATOM      8  S   UNL d   1     -46.509  14.411  22.624  0.00  0.00    -0.045 SA
ATOM      9  C   UNL d   1     -46.216  13.667  22.806  0.00  0.00     0.059 A 
ENDROOT
BRANCH   4  10
ATOM     10  C   UNL d   1     -49.297  13.953  23.079  0.00  0.00     0.041 C 
BRANCH  10  11
ATOM     11  C   UNL d   1     -49.881  13.888  22.520  0.00  0.00     0.003 A 
ATOM     12  C   UNL d   1     -49.960  13.202  22.074  0.00  0.00     0.000 A 
ATOM     13  C   UNL d   1     -50.551  13.126  21.503  0.00  0.00     0.000 A 
ATOM     14  C   UNL d   1     -51.064  13.748  21.382  0.00  0.00     0.000 A 
ATOM     15  C   UNL d   1     -50.988  14.434  21.825  0.00  0.00     0.000 A 
ATOM     16  C   UNL d   1     -50.407  14.511  22.388  0.00  0.00     0.000 A 
ENDBRANCH  10  11
ENDBRANCH   4  10
BRANCH   7  17
ATOM     17  C   UNL d   1     -46.479  12.317  23.229  0.00  0.00     0.020 A 
ATOM     18  C   UNL d   1     -45.675  12.134  23.139  0.00  0.00     0.002 A 
ATOM     19  C   UNL d   1     -45.386  11.376  23.325  0.00  0.00     0.000 A 
ATOM     20  C   UNL d   1     -45.918  10.795  23.606  0.00  0.00     0.000 A 
ATOM     21  C   UNL d   1     -46.711  10.971  23.697  0.00  0.00     0.000 A 
ATOM     22  C   UNL d   1     -47.000  11.734  23.509  0.00  0.00     0.002 A 
ENDBRANCH   7  17
TORSDOF 3
ENDMDL
MODEL 2
REMARK VINA RESULT:      -7.7      1.307      3.817
REMARK  3 active torsions:
REMARK  status: ('A' for Active; 'I' for Inactive)
REMARK    1  A    between atoms: C_10  and  C_4 
REMARK    2  A    between atoms: C_11  and  C_7 
REMARK    3  A    between atoms: C_12  and  C_10 
ROOT
ATOM      1  N   UNL d   1     -47.948  14.307  22.820  0.00  0.00    -0.186 N 
ATOM      2  N   UNL d   1     -48.492  13.706  23.029  0.00  0.00    -0.162 NA
ATOM      3  C   UNL d   1     -48.228  14.995  22.443  0.00  0.00     0.217 A 
ATOM      4  C   UNL d   1     -47.140  14.377  22.908  0.00  0.00     0.187 A 
ATOM      5  N   UNL d   1     -46.905  15.098  22.593  0.00  0.00    -0.127 NA
ATOM      6  N   UNL d   1     -47.572  15.473  22.310  0.00  0.00    -0.120 NA
ATOM      7  C   UNL d   1     -49.291  13.795  22.865  0.00  0.00     0.108 A 
ATOM      8  S   UNL d   1     -49.031  15.065  22.288  0.00  0.00    -0.045 SA
ATOM      9  C   UNL d   1     -49.573  14.484  22.488  0.00  0.00     0.059 A 
ENDROOT
BRANCH   4  10
ATOM     10  C   UNL d   1     -46.630  13.837  23.246  0.00  0.00     0.041 C 
BRANCH  10  11
ATOM     11  C   UNL d   1     -46.042  13.505  22.799  0.00  0.00     0.003 A 
ATOM     12  C   UNL d   1     -46.020  12.693  22.671  0.00  0.00     0.000 A 
ATOM     13  C   UNL d   1     -45.425  12.346  22.217  0.00  0.00     0.000 A 
ATOM     14  C   UNL d   1     -44.849  12.821  21.890  0.00  0.00     0.000 A 
ATOM     15  C   UNL d   1     -44.868  13.632  22.016  0.00  0.00     0.000 A 
ATOM     16  C   UNL d   1     -45.453  13.977  22.463  0.00  0.00     0.000 A 
ENDBRANCH  10  11
ENDBRANCH   4  10
BRANCH   7  17
ATOM     17  C   UNL d   1     -49.824  13.195  23.076  0.00  0.00     0.020 A 
ATOM     18  C   UNL d   1     -50.523  13.383  23.481  0.00  0.00     0.002 A 
ATOM     19  C   UNL d   1     -51.064  12.789  23.698  0.00  0.00     0.000 A 
ATOM     20  C   UNL d   1     -50.896  11.993  23.502  0.00  0.00     0.000 A 
ATOM     21  C   UNL d   1     -50.209  11.803  23.103  0.00  0.00     0.000 A 
ATOM     22  C   UNL d   1     -49.665  12.402  22.885  0.00  0.00     0.002 A 
ENDBRANCH   7  17
TORSDOF 3
ENDMDL
MODEL 3
REMARK VINA RESULT:      -7.4      8.243      9.944
REMARK  3 active torsions:
REMARK  status: ('A' for Active; 'I' for Inactive)
REMARK    1  A    between atoms: C_10  and  C_4 
REMARK    2  A    between atoms: C_11  and  C_7 
REMARK    3  A    between atoms: C_12  and  C_10 
ROOT
ATOM      1  N   UNL d   1     -39.958  14.427  18.959  0.00  0.00    -0.186 N 
ATOM      2  N   UNL d   1     -39.623  14.650  19.693  0.00  0.00    -0.162 NA
ATOM      3  C   UNL d   1     -40.770  14.242  18.925  0.00  0.00     0.217 A 
ATOM      4  C   UNL d   1     -39.647  14.344  18.210  0.00  0.00     0.187 A 
ATOM      5  N   UNL d   1     -40.249  14.109  17.703  0.00  0.00    -0.127 NA
ATOM      6  N   UNL d   1     -40.933  14.047  18.143  0.00  0.00    -0.120 NA
ATOM      7  C   UNL d   1     -40.087  14.685  20.369  0.00  0.00     0.108 A 
ATOM      8  S   UNL d   1     -41.218  14.282  19.612  0.00  0.00    -0.045 SA
ATOM      9  C   UNL d   1     -40.899  14.499  20.335  0.00  0.00     0.059 A 
ENDROOT
BRANCH   4  10
ATOM     10  C   UNL d   1     -38.875  14.467  17.979  0.00  0.00     0.041 C 
BRANCH  10  11
ATOM     11  C   UNL d   1     -38.585  14.084  17.326  0.00  0.00     0.003 A 
ATOM     12  C   UNL d   1     -38.252  13.336  17.392  0.00  0.00     0.000 A 
ATOM     13  C   UNL d   1     -37.954  12.938  16.733  0.00  0.00     0.000 A 
ATOM     14  C   UNL d   1     -37.994  13.299  16.003  0.00  0.00     0.000 A 
ATOM     15  C   UNL d   1     -38.327  14.046  15.933  0.00  0.00     0.000 A 
ATOM     16  C   UNL d   1     -38.620  14.440  16.581  0.00  0.00     0.000 A 
ENDBRANCH  10  11
ENDBRANCH   4  10
BRANCH   7  17
ATOM     17  C   UNL d   1     -39.745  14.907  21.092  0.00  0.00     0.020 A 
ATOM     18  C   UNL d   1     -39.355  14.341  21.558  0.00  0.00     0.002 A 
ATOM     19  C   UNL d   1     -39.009  14.552  22.284  0.00  0.00     0.000 A 
ATOM     20  C   UNL d   1     -39.057  15.347  22.543  0.00  0.00     0.000 A 
ATOM     21  C   UNL d   1     -39.440  15.907  22.088  0.00  0.00     0.000 A 
ATOM     22  C   UNL d   1     -39.788  15.693  21.357  0.00  0.00     0.002 A 
ENDBRANCH   7  17
TORSDOF 3
ENDMDL
MODEL 4
REMARK VINA RESULT:      -7.4      1.478      2.078
REMARK  3 active torsions:
REMARK  status: ('A' for Active; 'I' for Inactive)
REMARK    1  A    between atoms: C_10  and  C_4 
REMARK    2  A    between atoms: C_11  and  C_7 
REMARK    3  A    between atoms: C_12  and  C_10 
ROOT
ATOM      1  N   UNL d   1     -47.269  13.426  22.547  0.00  0.00    -0.186 N 
ATOM      2  N   UNL d   1     -46.551  13.031  22.378  0.00  0.00    -0.162 NA
ATOM      3  C   UNL d   1     -47.249  14.231  22.761  0.00  0.00     0.217 A 
ATOM      4  C   UNL d   1     -48.048  13.182  22.550  0.00  0.00     0.187 A 
ATOM      5  N   UNL d   1     -48.520  13.821  22.762  0.00  0.00    -0.127 NA
ATOM      6  N   UNL d   1     -48.029  14.459  22.890  0.00  0.00    -0.120 NA
ATOM      7  C   UNL d   1     -45.836  13.432  22.423  0.00  0.00     0.108 A 
ATOM      8  S   UNL d   1     -46.524  14.615  22.800  0.00  0.00    -0.045 SA
ATOM      9  C   UNL d   1     -45.815  14.238  22.637  0.00  0.00     0.059 A 
ENDROOT
BRANCH   4  10
ATOM     10  C   UNL d   1     -48.334  12.439  22.376  0.00  0.00     0.041 C 
BRANCH  10  11
ATOM     11  C   UNL d   1     -49.043  12.199  22.687  0.00  0.00     0.003 A 
ATOM     12  C   UNL d   1     -49.749  12.371  22.303  0.00  0.00     0.000 A 
ATOM     13  C   UNL d   1     -50.476  12.131  22.611  0.00  0.00     0.000 A 
ATOM     14  C   UNL d   1     -50.489  11.714  23.312  0.00  0.00     0.000 A 
ATOM     15  C   UNL d   1     -49.786  11.541  23.698  0.00  0.00     0.000 A 
ATOM     16  C   UNL d   1     -49.069  11.776  23.396  0.00  0.00     0.000 A 
ENDBRANCH  10  11
ENDBRANCH   4  10
BRANCH   7  17
ATOM     17  C   UNL d   1     -45.129  13.032  22.255  0.00  0.00     0.020 A 
ATOM     18  C   UNL d   1     -44.936  12.338  22.666  0.00  0.00     0.002 A 
ATOM     19  C   UNL d   1     -44.230  11.928  22.505  0.00  0.00     0.000 A 
ATOM     20  C   UNL d   1     -43.711  12.226  21.920  0.00  0.00     0.000 A 
ATOM     21  C   UNL d   1     -43.896  12.909  21.512  0.00  0.00     0.000 A 
ATOM     22  C   UNL d   1     -44.608  13.320  21.675  0.00  0.00     0.002 A 
ENDBRANCH   7  17
TORSDOF 3
ENDMDL
MODEL 5
REMARK VINA RESULT:      -7.2      8.810     10.181
REMARK  3 active torsions:
REMARK  status: ('A' for Active; 'I' for Inactive)
REMARK    1  A    between atoms: C_10  and  C_4 
REMARK    2  A    between atoms: C_11  and  C_7 
REMARK    3  A    between atoms: C_12  and  C_10 
ROOT
ATOM      1  N   UNL d   1     -39.816  15.336  18.650  0.00  0.00    -0.186 N 
ATOM      2  N   UNL d   1     -39.292  14.959  18.119  0.00  0.00    -0.162 NA
ATOM      3  C   UNL d   1     -40.580  15.543  18.388  0.00  0.00     0.217 A 
ATOM      4  C   UNL d   1     -39.744  15.567  19.430  0.00  0.00     0.187 A 
ATOM      5  N   UNL d   1     -40.450  15.915  19.664  0.00  0.00    -0.127 NA
ATOM      6  N   UNL d   1     -40.958  15.899  19.026  0.00  0.00    -0.120 NA
ATOM      7  C   UNL d   1     -39.527  14.794  17.350  0.00  0.00     0.108 A 
ATOM      8  S   UNL d   1     -40.797  15.370  17.615  0.00  0.00    -0.045 SA
ATOM      9  C   UNL d   1     -40.291  15.001  17.087  0.00  0.00     0.059 A 
ENDROOT
BRANCH   4  10
ATOM     10  C   UNL d   1     -39.095  15.477  19.914  0.00  0.00     0.041 C 
BRANCH  10  11
ATOM     11  C   UNL d   1     -39.200  15.311  20.700  0.00  0.00     0.003 A 
ATOM     12  C   UNL d   1     -39.233  15.917  21.256  0.00  0.00     0.000 A 
ATOM     13  C   UNL d   1     -39.339  15.758  22.058  0.00  0.00     0.000 A 
ATOM     14  C   UNL d   1     -39.413  14.983  22.301  0.00  0.00     0.000 A 
ATOM     15  C   UNL d   1     -39.380  14.377  21.750  0.00  0.00     0.000 A 
ATOM     16  C   UNL d   1     -39.275  14.531  20.958  0.00  0.00     0.000 A 
ENDBRANCH  10  11
ENDBRANCH   4  10
BRANCH   7  17
ATOM     17  C   UNL d   1     -39.000  14.420  16.830  0.00  0.00     0.020 A 
ATOM     18  C   UNL d   1     -38.640  14.852  16.220  0.00  0.00     0.002 A 
ATOM     19  C   UNL d   1     -38.110  14.487  15.692  0.00  0.00     0.000 A 
ATOM     20  C   UNL d   1     -37.941  13.673  15.783  0.00  0.00     0.000 A 
ATOM     21  C   UNL d   1     -38.293  13.243  16.382  0.00  0.00     0.000 A 
ATOM     22  C   UNL d   1     -38.826  13.611  16.912  0.00  0.00     0.002 A 
ENDBRANCH   7  17
TORSDOF 3
ENDMDL
MODEL 6
REMARK VINA RESULT:      -6.2      9.036     10.426
REMARK  3 active torsions:
REMARK  status: ('A' for Active; 'I' for Inactive)
REMARK    1  A    between atoms: C_10  and  C_4 
REMARK    2  A    between atoms: C_11  and  C_7 
REMARK    3  A    between atoms: C_12  and  C_10 
ROOT
ATOM      1  N   UNL d   1     -38.727  13.956  19.025  0.00  0.00    -0.186 N 
ATOM      2  N   UNL d   1     -39.241  14.478  18.620  0.00  0.00    -0.162 NA
ATOM      3  C   UNL d   1     -38.417  13.297  18.619  0.00  0.00     0.217 A 
ATOM      4  C   UNL d   1     -38.438  13.943  19.788  0.00  0.00     0.187 A 
ATOM      5  N   UNL d   1     -37.950  13.288  19.870  0.00  0.00    -0.127 NA
ATOM      6  N   UNL d   1     -37.939  12.896  19.155  0.00  0.00    -0.120 NA
ATOM      7  C   UNL d   1     -39.436  14.343  17.834  0.00  0.00     0.108 A 
ATOM      8  S   UNL d   1     -38.624  13.179  17.833  0.00  0.00    -0.045 SA
ATOM      9  C   UNL d   1     -39.125  13.684  17.428  0.00  0.00     0.059 A 
ENDROOT
BRANCH   4  10
ATOM     10  C   UNL d   1     -38.592  14.478  20.384  0.00  0.00     0.041 C 
BRANCH  10  11
ATOM     11  C   UNL d   1     -38.628  14.223  21.152  0.00  0.00     0.003 A 
ATOM     12  C   UNL d   1     -37.949  14.187  21.614  0.00  0.00     0.000 A 
ATOM     13  C   UNL d   1     -37.975  13.930  22.397  0.00  0.00     0.000 A 
ATOM     14  C   UNL d   1     -38.691  13.706  22.716  0.00  0.00     0.000 A 
ATOM     15  C   UNL d   1     -39.371  13.740  22.258  0.00  0.00     0.000 A 
ATOM     16  C   UNL d   1     -39.348  13.994  21.486  0.00  0.00     0.000 A 
ENDBRANCH  10  11
ENDBRANCH   4  10
BRANCH   7  17
ATOM     17  C   UNL d   1     -39.946  14.866  17.441  0.00  0.00     0.020 A 
ATOM     18  C   UNL d   1     -39.645  15.392  16.874  0.00  0.00     0.002 A 
ATOM     19  C   UNL d   1     -40.147  15.922  16.474  0.00  0.00     0.000 A 
ATOM     20  C   UNL d   1     -40.965  15.919  16.649  0.00  0.00     0.000 A 
ATOM     21  C   UNL d   1     -41.266  15.403  17.207  0.00  0.00     0.000 A 
ATOM     22  C   UNL d   1     -40.759  14.871  17.609  0.00  0.00     0.002 A 
ENDBRANCH   7  17
TORSDOF 3
ENDMDL
MODEL 7
REMARK VINA RESULT:      -6.1      8.982      9.758
REMARK  3 active torsions:
REMARK  status: ('A' for Active; 'I' for Inactive)
REMARK    1  A    between atoms: C_10  and  C_4 
REMARK    2  A    between atoms: C_11  and  C_7 
REMARK    3  A    between atoms: C_12  and  C_10 
ROOT
ATOM      1  N   UNL d   1     -39.124  14.765  18.898  0.00  0.00    -0.186 N 
ATOM      2  N   UNL d   1     -39.109  15.145  19.644  0.00  0.00    -0.162 NA
ATOM      3  C   UNL d   1     -38.873  13.972  18.842  0.00  0.00     0.217 A 
ATOM      4  C   UNL d   1     -39.347  15.014  18.154  0.00  0.00     0.187 A 
ATOM      5  N   UNL d   1     -39.240  14.391  17.628  0.00  0.00    -0.127 NA
ATOM      6  N   UNL d   1     -38.951  13.757  18.052  0.00  0.00    -0.120 NA
ATOM      7  C   UNL d   1     -38.849  14.741  20.310  0.00  0.00     0.108 A 
ATOM      8  S   UNL d   1     -38.617  13.586  19.520  0.00  0.00    -0.045 SA
ATOM      9  C   UNL d   1     -38.598  13.948  20.254  0.00  0.00     0.059 A 
ENDROOT
BRANCH   4  10
ATOM     10  C   UNL d   1     -39.630  15.749  17.943  0.00  0.00     0.041 C 
BRANCH  10  11
ATOM     11  C   UNL d   1     -40.267  15.806  17.444  0.00  0.00     0.003 A 
ATOM     12  C   UNL d   1     -40.160  15.835  16.630  0.00  0.00     0.000 A 
ATOM     13  C   UNL d   1     -40.801  15.893  16.114  0.00  0.00     0.000 A 
ATOM     14  C   UNL d   1     -41.555  15.921  16.423  0.00  0.00     0.000 A 
ATOM     15  C   UNL d   1     -41.665  15.893  17.236  0.00  0.00     0.000 A 
ATOM     16  C   UNL d   1     -41.034  15.836  17.746  0.00  0.00     0.000 A 
ENDBRANCH  10  11
ENDBRANCH   4  10
BRANCH   7  17
ATOM     17  C   UNL d   1     -38.838  15.126  21.045  0.00  0.00     0.020 A 
ATOM     18  C   UNL d   1     -39.508  15.107  21.535  0.00  0.00     0.002 A 
ATOM     19  C   UNL d   1     -39.508  15.490  22.274  0.00  0.00     0.000 A 
ATOM     20  C   UNL d   1     -38.820  15.898  22.521  0.00  0.00     0.000 A 
ATOM     21  C   UNL d   1     -38.158  15.919  22.043  0.00  0.00     0.000 A 
ATOM     22  C   UNL d   1     -38.159  15.534  21.299  0.00  0.00     0.002 A 
ENDBRANCH   7  17
TORSDOF 3
ENDMDL
MODEL 8
REMARK VINA RESULT:      -6.0      8.762     10.375
REMARK  3 active torsions:
REMARK  status: ('A' for Active; 'I' for Inactive)
REMARK    1  A    between atoms: C_10  and  C_4 
REMARK    2  A    between atoms: C_11  and  C_7 
REMARK    3  A    between atoms: C_12  and  C_10 
ROOT
ATOM      1  N   UNL d   1     -39.075  15.099  18.359  0.00  0.00    -0.186 N 
ATOM      2  N   UNL d   1     -39.702  14.837  18.848  0.00  0.00    -0.162 NA
ATOM      3  C   UNL d   1     -38.529  15.651  18.662  0.00  0.00     0.217 A 
ATOM      4  C   UNL d   1     -38.860  14.923  17.592  0.00  0.00     0.187 A 
ATOM      5  N   UNL d   1     -38.186  15.355  17.405  0.00  0.00    -0.127 NA
ATOM      6  N   UNL d   1     -37.987  15.798  18.061  0.00  0.00    -0.120 NA
ATOM      7  C   UNL d   1     -39.776  15.120  19.615  0.00  0.00     0.108 A 
ATOM      8  S   UNL d   1     -38.620  15.922  19.432  0.00  0.00    -0.045 SA
ATOM      9  C   UNL d   1     -39.230  15.672  19.918  0.00  0.00     0.059 A 
ENDROOT
BRANCH   4  10
ATOM     10  C   UNL d   1     -39.233  14.411  17.079  0.00  0.00     0.041 C 
BRANCH  10  11
ATOM     11  C   UNL d   1     -38.806  14.049  16.492  0.00  0.00     0.003 A 
ATOM     12  C   UNL d   1     -38.760  14.381  15.742  0.00  0.00     0.000 A 
ATOM     13  C   UNL d   1     -38.328  14.021  15.138  0.00  0.00     0.000 A 
ATOM     14  C   UNL d   1     -37.941  13.321  15.294  0.00  0.00     0.000 A 
ATOM     15  C   UNL d   1     -37.984  12.987  16.042  0.00  0.00     0.000 A 
ATOM     16  C   UNL d   1     -38.409  13.340  16.638  0.00  0.00     0.000 A 
ENDBRANCH  10  11
ENDBRANCH   4  10
BRANCH   7  17
ATOM     17  C   UNL d   1     -40.401  14.854  20.092  0.00  0.00     0.020 A 
ATOM     18  C   UNL d   1     -41.064  15.338  20.217  0.00  0.00     0.002 A 
ATOM     19  C   UNL d   1     -41.697  15.082  20.693  0.00  0.00     0.000 A 
ATOM     20  C   UNL d   1     -41.658  14.325  21.049  0.00  0.00     0.000 A 
ATOM     21  C   UNL d   1     -41.008  13.845  20.929  0.00  0.00     0.000 A 
ATOM     22  C   UNL d   1     -40.372  14.104  20.449  0.00  0.00     0.002 A 
ENDBRANCH   7  17
TORSDOF 3
ENDMDL
MODEL 9
REMARK VINA RESULT:      -5.9      9.019     10.536
REMARK  3 active torsions:
REMARK  status: ('A' for Active; 'I' for Inactive)
REMARK    1  A    between atoms: C_10  and  C_4 
REMARK    2  A    between atoms: C_11  and  C_7 
REMARK    3  A    between atoms: C_12  and  C_10 
ROOT
ATOM      1  N   UNL d   1     -38.567  14.334  18.963  0.00  0.00    -0.186 N 
ATOM      2  N   UNL d   1     -38.510  14.566  18.161  0.00  0.00    -0.162 NA
ATOM      3  C   UNL d   1     -38.321  13.569  19.183  0.00  0.00     0.217 A 
ATOM      4  C   UNL d   1     -38.831  14.718  19.633  0.00  0.00     0.187 A 
ATOM      5  N   UNL d   1     -38.755  14.208  20.272  0.00  0.00    -0.127 NA
ATOM      6  N   UNL d   1     -38.444  13.507  19.993  0.00  0.00    -0.120 NA
ATOM      7  C   UNL d   1     -38.215  14.046  17.599  0.00  0.00     0.108 A 
ATOM      8  S   UNL d   1     -38.029  13.063  18.606  0.00  0.00    -0.045 SA
ATOM      9  C   UNL d   1     -37.968  13.280  17.818  0.00  0.00     0.059 A 
ENDROOT
BRANCH   4  10
ATOM     10  C   UNL d   1     -39.124  15.477  19.685  0.00  0.00     0.041 C 
BRANCH  10  11
ATOM     11  C   UNL d   1     -39.783  15.624  20.133  0.00  0.00     0.003 A 
ATOM     12  C   UNL d   1     -39.718  15.772  20.939  0.00  0.00     0.000 A 
ATOM     13  C   UNL d   1     -40.383  15.922  21.404  0.00  0.00     0.000 A 
ATOM     14  C   UNL d   1     -41.118  15.922  21.052  0.00  0.00     0.000 A 
ATOM     15  C   UNL d   1     -41.187  15.775  20.248  0.00  0.00     0.000 A 
ATOM     16  C   UNL d   1     -40.533  15.627  19.788  0.00  0.00     0.000 A 
ENDBRANCH  10  11
ENDBRANCH   4  10
BRANCH   7  17
ATOM     17  C   UNL d   1     -38.161  14.284  16.806  0.00  0.00     0.020 A 
ATOM     18  C   UNL d   1     -38.265  13.730  16.197  0.00  0.00     0.002 A 
ATOM     19  C   UNL d   1     -38.214  13.957  15.398  0.00  0.00     0.000 A 
ATOM     20  C   UNL d   1     -38.055  14.758  15.212  0.00  0.00     0.000 A 
ATOM     21  C   UNL d   1     -37.953  15.307  15.808  0.00  0.00     0.000 A 
ATOM     22  C   UNL d   1     -38.005  15.077  16.611  0.00  0.00     0.002 A 
ENDBRANCH   7  17
TORSDOF 3
ENDMDL
