MODEL 1
REMARK VINA RESULT:       2.4      0.000      0.000
REMARK  5 active torsions:
REMARK  status: ('A' for Active; 'I' for Inactive)
REMARK    1  A    between atoms: C_10  and  C_3 
REMARK    2  A    between atoms: S_11  and  C_4 
REMARK    3  A    between atoms: C_17  and  S_11 
REMARK    4  A    between atoms: C_13  and  C_17 
REMARK       I    between atoms: N_14  and  C_13 
REMARK    5  A    between atoms: C_15  and  N_14 
ROOT
ATOM      1  C   UNL d   1     -43.130-122.701 -49.297  0.00  0.00     0.150 A 
ATOM      2  N   UNL d   1     -42.384-122.623 -49.650  0.00  0.00    -0.285 N 
ATOM      3  C   UNL d   1     -43.794-122.462 -49.701  0.00  0.00     0.056 A 
ATOM      4  C   UNL d   1     -42.325-122.309 -50.395  0.00  0.00     0.096 A 
ATOM      5  N   UNL d   1     -43.199-123.017 -48.544  0.00  0.00    -0.227 NA
ATOM      6  C   UNL d   1     -43.727-122.143 -50.460  0.00  0.00     0.006 A 
ATOM      7  C   UNL d   1     -42.988-122.070 -50.799  0.00  0.00     0.025 A 
ATOM      8  C   UNL d   1     -41.786-123.182 -48.485  0.00  0.00     0.084 A 
ATOM      9  C   UNL d   1     -42.533-123.260 -48.132  0.00  0.00     0.099 A 
ATOM     10  C   UNL d   1     -44.387-121.907 -50.857  0.00  0.00     0.000 C 
ATOM     11  C   UNL d   1     -41.123-123.422 -48.080  0.00  0.00     0.019 A 
ATOM     12  C   UNL d   1     -42.591-123.574 -47.387  0.00  0.00     0.021 A 
ATOM     13  C   UNL d   1     -41.193-123.737 -47.329  0.00  0.00     0.002 A 
ATOM     14  C   UNL d   1     -41.928-123.813 -46.982  0.00  0.00     0.002 A 
ENDROOT
BRANCH   4  15
ATOM     15  S   UNL d   1     -41.563-122.230 -50.755  0.00  0.00    -0.064 SA
BRANCH  15  16
ATOM     16  C   UNL d   1     -41.123-121.985 -51.441  0.00  0.00     0.099 C 
BRANCH  16  17
ATOM     17  C   UNL d   1     -41.237-122.378 -52.179  0.00  0.00     0.286 C 
ATOM     18  N   UNL d   1     -41.351-121.924 -52.889  0.00  0.00    -0.208 NA
ATOM     19  O   UNL d   1     -41.238-123.230 -52.218  0.00  0.00    -0.265 OA
BRANCH  18  20
ATOM     20  C   UNL d   1     -41.467-122.322 -53.639  0.00  0.00     0.085 A 
ATOM     21  C   UNL d   1     -41.849-121.917 -54.269  0.00  0.00     0.019 A 
ATOM     22  C   UNL d   1     -41.964-122.310 -55.010  0.00  0.00     0.002 A 
ATOM     23  C   UNL d   1     -42.349-121.906 -55.648  0.00  0.00     0.000 C 
ATOM     24  C   UNL d   1     -41.695-123.113 -55.127  0.00  0.00     0.000 A 
ATOM     25  C   UNL d   1     -41.309-123.508 -54.477  0.00  0.00     0.002 A 
ATOM     26  C   UNL d   1     -41.195-123.114 -53.735  0.00  0.00     0.019 A 
ENDBRANCH  18  20
ENDBRANCH  16  17
ENDBRANCH  15  16
ENDBRANCH   4  15
BRANCH   3  27
ATOM     27  C   UNL d   1     -44.532-122.534 -49.362  0.00  0.00     0.125 C 
ATOM     28  N   UNL d   1     -45.074-123.006 -49.749  0.00  0.00    -0.146 N 
ENDBRANCH   3  27
TORSDOF 5
ENDMDL
MODEL 2
REMARK VINA RESULT:       4.2      1.531      5.466
REMARK  5 active torsions:
REMARK  status: ('A' for Active; 'I' for Inactive)
REMARK    1  A    between atoms: C_10  and  C_3 
REMARK    2  A    between atoms: S_11  and  C_4 
REMARK    3  A    between atoms: C_17  and  S_11 
REMARK    4  A    between atoms: C_13  and  C_17 
REMARK       I    between atoms: N_14  and  C_13 
REMARK    5  A    between atoms: C_15  and  N_14 
ROOT
ATOM      1  C   UNL d   1     -41.682-121.345 -53.163  0.00  0.00     0.150 A 
ATOM      2  N   UNL d   1     -41.526-122.134 -52.960  0.00  0.00    -0.285 N 
ATOM      3  C   UNL d   1     -41.598-120.761 -52.604  0.00  0.00     0.056 A 
ATOM      4  C   UNL d   1     -41.292-122.313 -52.205  0.00  0.00     0.096 A 
ATOM      5  N   UNL d   1     -41.919-121.154 -53.925  0.00  0.00    -0.227 NA
ATOM      6  C   UNL d   1     -41.360-120.951 -51.837  0.00  0.00     0.006 A 
ATOM      7  C   UNL d   1     -41.209-121.730 -51.646  0.00  0.00     0.025 A 
ATOM      8  C   UNL d   1     -41.848-122.529 -54.290  0.00  0.00     0.084 A 
ATOM      9  C   UNL d   1     -42.004-121.740 -54.492  0.00  0.00     0.099 A 
ATOM     10  C   UNL d   1     -41.279-120.369 -51.285  0.00  0.00     0.000 C 
ATOM     11  C   UNL d   1     -41.932-123.113 -54.850  0.00  0.00     0.019 A 
ATOM     12  C   UNL d   1     -42.238-121.561 -55.248  0.00  0.00     0.021 A 
ATOM     13  C   UNL d   1     -42.168-122.921 -55.608  0.00  0.00     0.002 A 
ATOM     14  C   UNL d   1     -42.321-122.144 -55.808  0.00  0.00     0.002 A 
ENDROOT
BRANCH   4  15
ATOM     15  S   UNL d   1     -41.133-123.118 -51.998  0.00  0.00    -0.064 SA
BRANCH  15  16
ATOM     16  C   UNL d   1     -41.409-123.817 -51.598  0.00  0.00     0.099 C 
BRANCH  16  17
ATOM     17  C   UNL d   1     -41.782-123.753 -50.844  0.00  0.00     0.286 C 
ATOM     18  N   UNL d   1     -41.315-123.799 -50.134  0.00  0.00    -0.208 NA
ATOM     19  O   UNL d   1     -42.625-123.641 -50.788  0.00  0.00    -0.265 OA
BRANCH  18  20
ATOM     20  C   UNL d   1     -41.693-123.733 -49.367  0.00  0.00     0.085 A 
ATOM     21  C   UNL d   1     -41.225-123.771 -48.670  0.00  0.00     0.019 A 
ATOM     22  C   UNL d   1     -41.597-123.707 -47.912  0.00  0.00     0.002 A 
ATOM     23  C   UNL d   1     -41.130-123.745 -47.206  0.00  0.00     0.000 C 
ATOM     24  C   UNL d   1     -42.443-123.602 -47.846  0.00  0.00     0.000 A 
ATOM     25  C   UNL d   1     -42.901-123.566 -48.565  0.00  0.00     0.002 A 
ATOM     26  C   UNL d   1     -42.528-123.631 -49.323  0.00  0.00     0.019 A 
ENDBRANCH  18  20
ENDBRANCH  16  17
ENDBRANCH  15  16
ENDBRANCH   4  15
BRANCH   3  27
ATOM     27  C   UNL d   1     -41.750-119.983 -52.795  0.00  0.00     0.125 C 
ATOM     28  N   UNL d   1     -41.123-119.462 -52.754  0.00  0.00    -0.146 N 
ENDBRANCH   3  27
TORSDOF 5
ENDMDL
