MODEL 1
REMARK VINA RESULT:      57.4      0.000      0.000
REMARK  5 active torsions:
REMARK  status: ('A' for Active; 'I' for Inactive)
REMARK    1  A    between atoms: C_11  and  N_1 
REMARK    2  A    between atoms: C_2  and  S_13 
REMARK       I    between atoms: C_12  and  N_14 
REMARK    3  A    between atoms: C_18  and  C_12 
REMARK    4  A    between atoms: S_13  and  C_18 
REMARK    5  A    between atoms: N_14  and  C_19 
ROOT
ATOM      1  C   UNL d   1     -48.520  28.590  35.369  0.00  0.00     0.286 C 
ATOM      2  N   UNL d   1     -48.089  29.199  35.722  0.00  0.00    -0.208 NA
ATOM      3  O   UNL d   1     -48.599  27.865  35.755  0.00  0.00    -0.265 OA
ENDROOT
BRANCH   1   4
ATOM      4  C   UNL d   1     -48.872  28.711  34.627  0.00  0.00     0.101 C 
BRANCH   4   5
ATOM      5  S   UNL d   1     -48.793  28.130  34.041  0.00  0.00    -0.037 SA
BRANCH   5   6
ATOM      6  C   UNL d   1     -49.440  27.630  33.873  0.00  0.00     0.215 A 
ATOM      7  N   UNL d   1     -50.220  27.876  33.737  0.00  0.00    -0.214 NA
ATOM      8  C   UNL d   1     -50.678  27.203  33.593  0.00  0.00     0.107 A 
ATOM      9  C   UNL d   1     -51.477  27.111  33.427  0.00  0.00     0.021 A 
ATOM     10  C   UNL d   1     -50.185  26.550  33.640  0.00  0.00     0.120 A 
ATOM     11  C   UNL d   1     -51.787  26.355  33.306  0.00  0.00     0.002 A 
ATOM     12  C   UNL d   1     -51.293  25.694  33.353  0.00  0.00     0.002 A 
ATOM     13  C   UNL d   1     -50.487  25.791  33.521  0.00  0.00     0.026 A 
ATOM     14  O   UNL d   1     -49.418  26.805  33.813  0.00  0.00    -0.283 OA
ENDBRANCH   5   6
ENDBRANCH   4   5
ENDBRANCH   1   4
BRANCH   2  15
ATOM     15  C   UNL d   1     -48.008  29.922  35.341  0.00  0.00     0.085 A 
ATOM     16  C   UNL d   1     -47.334  30.397  35.488  0.00  0.00     0.021 A 
ATOM     17  C   UNL d   1     -47.255  31.112  35.110  0.00  0.00     0.021 A 
ATOM     18  C   UNL d   1     -47.831  31.382  34.581  0.00  0.00     0.086 A 
ATOM     19  C   UNL d   1     -48.493  30.913  34.438  0.00  0.00     0.021 A 
ATOM     20  C   UNL d   1     -48.582  30.181  34.819  0.00  0.00     0.021 A 
BRANCH  18  21
ATOM     21  N   UNL d   1     -47.750  32.105  34.200  0.00  0.00    -0.189 N 
ATOM     22  N   UNL d   1     -47.051  32.527  34.093  0.00  0.00    -0.038 NA
ATOM     23  N   UNL d   1     -47.232  33.217  33.683  0.00  0.00    -0.022 NA
ATOM     24  N   UNL d   1     -48.040  33.228  33.534  0.00  0.00    -0.104 NA
ATOM     25  C   UNL d   1     -48.362  32.537  33.855  0.00  0.00     0.226 A 
ENDBRANCH  18  21
ENDBRANCH   2  15
TORSDOF 5
ENDMDL
MODEL 2
REMARK VINA RESULT:      58.1      3.961      6.494
REMARK  5 active torsions:
REMARK  status: ('A' for Active; 'I' for Inactive)
REMARK    1  A    between atoms: C_11  and  N_1 
REMARK    2  A    between atoms: C_2  and  S_13 
REMARK       I    between atoms: C_12  and  N_14 
REMARK    3  A    between atoms: C_18  and  C_12 
REMARK    4  A    between atoms: S_13  and  C_18 
REMARK    5  A    between atoms: N_14  and  C_19 
ROOT
ATOM      1  C   UNL d   1     -50.299  26.968  33.970  0.00  0.00     0.286 C 
ATOM      2  N   UNL d   1     -50.698  26.620  33.337  0.00  0.00    -0.208 NA
ATOM      3  O   UNL d   1     -49.771  27.588  33.832  0.00  0.00    -0.265 OA
ENDROOT
BRANCH   1   4
ATOM      4  C   UNL d   1     -50.430  26.693  34.741  0.00  0.00     0.101 C 
BRANCH   4   5
ATOM      5  S   UNL d   1     -50.340  27.215  35.380  0.00  0.00    -0.037 SA
BRANCH   5   6
ATOM      6  C   UNL d   1     -50.634  26.996  36.130  0.00  0.00     0.215 A 
ATOM      7  N   UNL d   1     -50.245  27.109  36.853  0.00  0.00    -0.214 NA
ATOM      8  C   UNL d   1     -50.732  26.813  37.453  0.00  0.00     0.107 A 
ATOM      9  C   UNL d   1     -50.635  26.776  38.268  0.00  0.00     0.021 A 
ATOM     10  C   UNL d   1     -51.413  26.520  37.102  0.00  0.00     0.120 A 
ATOM     11  C   UNL d   1     -51.227  26.442  38.737  0.00  0.00     0.002 A 
ATOM     12  C   UNL d   1     -51.915  26.146  38.386  0.00  0.00     0.002 A 
ATOM     13  C   UNL d   1     -52.008  26.185  37.563  0.00  0.00     0.026 A 
ATOM     14  O   UNL d   1     -51.360  26.630  36.283  0.00  0.00    -0.283 OA
ENDBRANCH   5   6
ENDBRANCH   4   5
ENDBRANCH   1   4
BRANCH   2  15
ATOM     15  C   UNL d   1     -51.224  26.003  33.470  0.00  0.00     0.085 A 
ATOM     16  C   UNL d   1     -52.017  26.170  33.683  0.00  0.00     0.021 A 
ATOM     17  C   UNL d   1     -52.536  25.560  33.815  0.00  0.00     0.021 A 
ATOM     18  C   UNL d   1     -52.295  24.771  33.743  0.00  0.00     0.086 A 
ATOM     19  C   UNL d   1     -51.515  24.609  33.534  0.00  0.00     0.021 A 
ATOM     20  C   UNL d   1     -50.978  25.227  33.397  0.00  0.00     0.021 A 
BRANCH  18  21
ATOM     21  N   UNL d   1     -52.821  24.154  33.876  0.00  0.00    -0.189 N 
ATOM     22  N   UNL d   1     -53.275  23.765  33.309  0.00  0.00    -0.038 NA
ATOM     23  N   UNL d   1     -53.718  23.188  33.692  0.00  0.00    -0.022 NA
ATOM     24  N   UNL d   1     -53.545  23.214  34.494  0.00  0.00    -0.104 NA
ATOM     25  C   UNL d   1     -52.987  23.814  34.609  0.00  0.00     0.226 A 
ENDBRANCH  18  21
ENDBRANCH   2  15
TORSDOF 5
ENDMDL
MODEL 3
REMARK VINA RESULT:      58.4      2.648      6.416
REMARK  5 active torsions:
REMARK  status: ('A' for Active; 'I' for Inactive)
REMARK    1  A    between atoms: C_11  and  N_1 
REMARK    2  A    between atoms: C_2  and  S_13 
REMARK       I    between atoms: C_12  and  N_14 
REMARK    3  A    between atoms: C_18  and  C_12 
REMARK    4  A    between atoms: S_13  and  C_18 
REMARK    5  A    between atoms: N_14  and  C_19 
ROOT
ATOM      1  C   UNL d   1     -49.212  25.824  33.493  0.00  0.00     0.286 C 
ATOM      2  N   UNL d   1     -49.386  25.021  33.416  0.00  0.00    -0.208 NA
ATOM      3  O   UNL d   1     -48.426  26.076  33.494  0.00  0.00    -0.265 OA
ENDROOT
BRANCH   1   4
ATOM      4  C   UNL d   1     -49.828  26.374  33.569  0.00  0.00     0.101 C 
BRANCH   4   5
ATOM      5  S   UNL d   1     -49.686  27.171  33.392  0.00  0.00    -0.037 SA
BRANCH   5   6
ATOM      6  C   UNL d   1     -49.306  27.653  33.959  0.00  0.00     0.215 A 
ATOM      7  N   UNL d   1     -49.250  27.494  34.770  0.00  0.00    -0.214 NA
ATOM      8  C   UNL d   1     -48.831  28.113  35.123  0.00  0.00     0.107 A 
ATOM      9  C   UNL d   1     -48.611  28.249  35.903  0.00  0.00     0.021 A 
ATOM     10  C   UNL d   1     -48.631  28.648  34.535  0.00  0.00     0.120 A 
ATOM     11  C   UNL d   1     -48.185  28.930  36.096  0.00  0.00     0.002 A 
ATOM     12  C   UNL d   1     -47.982  29.471  35.506  0.00  0.00     0.002 A 
ATOM     13  C   UNL d   1     -48.206  29.330  34.720  0.00  0.00     0.026 A 
ATOM     14  O   UNL d   1     -48.921  28.371  33.812  0.00  0.00    -0.283 OA
ENDBRANCH   5   6
ENDBRANCH   4   5
ENDBRANCH   1   4
BRANCH   2  15
ATOM     15  C   UNL d   1     -50.167  24.767  33.414  0.00  0.00     0.085 A 
ATOM     16  C   UNL d   1     -50.341  23.954  33.307  0.00  0.00     0.021 A 
ATOM     17  C   UNL d   1     -51.113  23.704  33.306  0.00  0.00     0.021 A 
ATOM     18  C   UNL d   1     -51.736  24.239  33.409  0.00  0.00     0.086 A 
ATOM     19  C   UNL d   1     -51.563  25.038  33.514  0.00  0.00     0.021 A 
ATOM     20  C   UNL d   1     -50.777  25.302  33.516  0.00  0.00     0.021 A 
BRANCH  18  21
ATOM     21  N   UNL d   1     -52.517  23.985  33.407  0.00  0.00    -0.189 N 
ATOM     22  N   UNL d   1     -52.779  23.205  33.455  0.00  0.00    -0.038 NA
ATOM     23  N   UNL d   1     -53.601  23.213  33.434  0.00  0.00    -0.022 NA
ATOM     24  N   UNL d   1     -53.854  23.992  33.373  0.00  0.00    -0.104 NA
ATOM     25  C   UNL d   1     -53.181  24.471  33.356  0.00  0.00     0.226 A 
ENDBRANCH  18  21
ENDBRANCH   2  15
TORSDOF 5
ENDMDL
