MODEL 1
REMARK VINA RESULT:       8.0      0.000      0.000
REMARK  4 active torsions:
REMARK  status: ('A' for Active; 'I' for Inactive)
REMARK    1  A    between atoms: N_10  and  C_3 
REMARK    2  A    between atoms: C_11  and  C_5 
REMARK    3  A    between atoms: C_13  and  N_10 
REMARK    4  A    between atoms: C_15  and  C_13 
ROOT
ATOM      1  N   UNL d   1     -42.057-122.112 -51.704  0.00  0.00    -0.195 N 
ATOM      2  C   UNL d   1     -41.944-121.948 -50.889  0.00  0.00     0.167 A 
ATOM      3  C   UNL d   1     -41.878-121.533 -52.266  0.00  0.00     0.167 A 
ATOM      4  N   UNL d   1     -42.522-123.413 -51.377  0.00  0.00    -0.163 NA
ATOM      5  C   UNL d   1     -42.119-122.512 -50.339  0.00  0.00     0.055 A 
ATOM      6  N   UNL d   1     -41.654-121.211 -50.666  0.00  0.00    -0.227 NA
ATOM      7  C   UNL d   1     -41.593-120.811 -52.031  0.00  0.00     0.054 A 
ATOM      8  C   UNL d   1     -42.410-123.251 -50.575  0.00  0.00     0.104 A 
ATOM      9  C   UNL d   1     -41.476-120.639 -51.218  0.00  0.00     0.086 A 
ATOM     10  C   UNL d   1     -41.372-120.148 -52.443  0.00  0.00     0.005 A 
ATOM     11  C   UNL d   1     -42.585-123.817 -50.011  0.00  0.00     0.023 C 
ATOM     12  C   UNL d   1     -41.187-119.875 -51.150  0.00  0.00     0.019 A 
ATOM     13  C   UNL d   1     -41.123-119.571 -51.921  0.00  0.00     0.002 A 
ENDROOT
BRANCH   3  14
ATOM     14  N   UNL d   1     -41.991-121.695 -53.090  0.00  0.00    -0.224 NA
BRANCH  14  15
ATOM     15  C   UNL d   1     -42.132-122.335 -53.625  0.00  0.00     0.120 C 
BRANCH  15  16
ATOM     16  C   UNL d   1     -42.168-122.191 -54.446  0.00  0.00     0.101 A 
ATOM     17  N   UNL d   1     -42.913-122.018 -54.812  0.00  0.00    -0.242 NA
ATOM     18  C   UNL d   1     -42.954-121.872 -55.641  0.00  0.00     0.099 A 
ATOM     19  C   UNL d   1     -42.248-121.900 -56.105  0.00  0.00     0.021 A 
ATOM     20  C   UNL d   1     -41.504-122.072 -55.741  0.00  0.00     0.003 A 
ATOM     21  C   UNL d   1     -41.471-122.218 -54.907  0.00  0.00     0.021 A 
ENDBRANCH  15  16
ENDBRANCH  14  15
ENDBRANCH   3  14
BRANCH   5  22
ATOM     22  C   UNL d   1     -42.008-122.352 -49.541  0.00  0.00     0.004 A 
ATOM     23  C   UNL d   1     -42.633-122.100 -49.080  0.00  0.00     0.000 A 
ATOM     24  C   UNL d   1     -42.521-121.937 -48.273  0.00  0.00     0.000 A 
ATOM     25  C   UNL d   1     -41.785-122.030 -47.945  0.00  0.00     0.000 A 
ATOM     26  C   UNL d   1     -41.151-122.285 -48.407  0.00  0.00     0.000 A 
ATOM     27  C   UNL d   1     -41.266-122.444 -49.201  0.00  0.00     0.000 A 
ENDBRANCH   5  22
TORSDOF 4
ENDMDL
MODEL 2
REMARK VINA RESULT:       9.8      0.895      4.796
REMARK  4 active torsions:
REMARK  status: ('A' for Active; 'I' for Inactive)
REMARK    1  A    between atoms: N_10  and  C_3 
REMARK    2  A    between atoms: C_11  and  C_5 
REMARK    3  A    between atoms: C_13  and  N_10 
REMARK    4  A    between atoms: C_15  and  C_13 
ROOT
ATOM      1  N   UNL d   1     -41.972-122.512 -52.635  0.00  0.00    -0.195 N 
ATOM      2  C   UNL d   1     -41.910-122.076 -53.350  0.00  0.00     0.167 A 
ATOM      3  C   UNL d   1     -41.823-122.137 -51.913  0.00  0.00     0.167 A 
ATOM      4  N   UNL d   1     -42.326-123.671 -53.374  0.00  0.00    -0.163 NA
ATOM      5  C   UNL d   1     -42.055-122.440 -54.055  0.00  0.00     0.055 A 
ATOM      6  N   UNL d   1     -41.700-121.281 -53.316  0.00  0.00    -0.227 NA
ATOM      7  C   UNL d   1     -41.618-121.352 -51.896  0.00  0.00     0.054 A 
ATOM      8  C   UNL d   1     -42.264-123.241 -54.077  0.00  0.00     0.104 A 
ATOM      9  C   UNL d   1     -41.553-120.909 -52.606  0.00  0.00     0.086 A 
ATOM     10  C   UNL d   1     -41.443-120.844 -51.288  0.00  0.00     0.005 A 
ATOM     11  C   UNL d   1     -42.410-123.603 -54.796  0.00  0.00     0.023 C 
ATOM     12  C   UNL d   1     -41.340-120.141 -52.417  0.00  0.00     0.019 A 
ATOM     13  C   UNL d   1     -41.272-120.104 -51.590  0.00  0.00     0.002 A 
ENDROOT
BRANCH   3  14
ATOM     14  N   UNL d   1     -41.886-122.574 -51.190  0.00  0.00    -0.224 NA
BRANCH  14  15
ATOM     15  C   UNL d   1     -42.400-122.688 -50.528  0.00  0.00     0.120 C 
BRANCH  15  16
ATOM     16  C   UNL d   1     -42.082-122.892 -49.784  0.00  0.00     0.101 A 
ATOM     17  N   UNL d   1     -42.364-123.583 -49.381  0.00  0.00    -0.242 NA
ATOM     18  C   UNL d   1     -42.046-123.792 -48.629  0.00  0.00     0.099 A 
ATOM     19  C   UNL d   1     -41.446-123.310 -48.280  0.00  0.00     0.021 A 
ATOM     20  C   UNL d   1     -41.165-122.620 -48.682  0.00  0.00     0.003 A 
ATOM     21  C   UNL d   1     -41.489-122.416 -49.437  0.00  0.00     0.021 A 
ENDBRANCH  15  16
ENDBRANCH  14  15
ENDBRANCH   3  14
BRANCH   5  22
ATOM     22  C   UNL d   1     -41.993-122.014 -54.754  0.00  0.00     0.004 A 
ATOM     23  C   UNL d   1     -42.601-122.025 -55.299  0.00  0.00     0.000 A 
ATOM     24  C   UNL d   1     -42.539-121.594 -56.007  0.00  0.00     0.000 A 
ATOM     25  C   UNL d   1     -41.870-121.160 -56.153  0.00  0.00     0.000 A 
ATOM     26  C   UNL d   1     -41.254-121.145 -55.605  0.00  0.00     0.000 A 
ATOM     27  C   UNL d   1     -41.319-121.571 -54.910  0.00  0.00     0.000 A 
ENDBRANCH   5  22
TORSDOF 4
ENDMDL
