MODEL 1
REMARK VINA RESULT:      -4.6      0.000      0.000
REMARK  4 active torsions:
REMARK  status: ('A' for Active; 'I' for Inactive)
REMARK       I    between atoms: N_3  and  C_1 
REMARK    1  A    between atoms: C_4  and  C_1 
REMARK    2  A    between atoms: N_2  and  C_4 
REMARK    3  A    between atoms: C_6  and  N_3 
REMARK    4  A    between atoms: O_17  and  C_9 
ROOT
ATOM      1  C   UNL d   1      57.896   0.423  30.773  0.00  0.00     0.297 C 
ATOM      2  N   UNL d   1      57.110   0.171  30.823  0.00  0.00    -0.207 NA
ATOM      3  O   UNL d   1      58.332   0.543  31.461  0.00  0.00    -0.264 OA
ENDROOT
BRANCH   1   4
ATOM      4  C   UNL d   1      58.242   0.552  30.040  0.00  0.00     0.144 C 
BRANCH   4   5
ATOM      5  N   UNL d   1      58.962   0.176  29.845  0.00  0.00    -0.299 N 
ATOM      6  C   UNL d   1      58.957  -0.554  29.437  0.00  0.00     0.080 A 
ATOM      7  C   UNL d   1      59.665  -0.933  29.240  0.00  0.00     0.019 A 
ATOM      8  C   UNL d   1      60.396  -0.583  29.451  0.00  0.00     0.003 A 
ATOM      9  C   UNL d   1      60.410   0.151  29.862  0.00  0.00     0.019 A 
ATOM     10  C   UNL d   1      61.104  -0.957  29.258  0.00  0.00     0.000 C 
ATOM     11  C   UNL d   1      59.683   0.531  30.059  0.00  0.00     0.080 A 
ENDBRANCH   4   5
ENDBRANCH   1   4
BRANCH   2  12
ATOM     12  C   UNL d   1      56.764   0.042  31.557  0.00  0.00     0.085 A 
ATOM     13  C   UNL d   1      56.708  -0.716  31.847  0.00  0.00     0.021 A 
ATOM     14  C   UNL d   1      56.359  -0.850  32.586  0.00  0.00     0.026 A 
ATOM     15  C   UNL d   1      56.072  -0.215  33.024  0.00  0.00     0.094 A 
ATOM     16  C   UNL d   1      56.130   0.548  32.727  0.00  0.00     0.026 A 
ATOM     17  C   UNL d   1      56.478   0.682  31.989  0.00  0.00     0.021 A 
BRANCH  15  18
ATOM     18  O   UNL d   1      55.724  -0.341  33.759  0.00  0.00    -0.328 OA
ATOM     19  C   UNL d   1      55.221   0.224  34.082  0.00  0.00     0.181 C 
ENDBRANCH  15  18
ENDBRANCH   2  12
TORSDOF 4
ENDMDL
MODEL 2
REMARK VINA RESULT:      -3.9      0.745      1.074
REMARK  4 active torsions:
REMARK  status: ('A' for Active; 'I' for Inactive)
REMARK       I    between atoms: N_3  and  C_1 
REMARK    1  A    between atoms: C_4  and  C_1 
REMARK    2  A    between atoms: N_2  and  C_4 
REMARK    3  A    between atoms: C_6  and  N_3 
REMARK    4  A    between atoms: O_17  and  C_9 
ROOT
ATOM      1  C   UNL d   1      57.664   0.091  30.660  0.00  0.00     0.297 C 
ATOM      2  N   UNL d   1      57.502   0.682  31.216  0.00  0.00    -0.207 NA
ATOM      3  O   UNL d   1      57.438  -0.686  30.812  0.00  0.00    -0.264 OA
ENDROOT
BRANCH   1   4
ATOM      4  C   UNL d   1      58.048   0.277  29.959  0.00  0.00     0.144 C 
BRANCH   4   5
ATOM      5  N   UNL d   1      58.684  -0.193  29.693  0.00  0.00    -0.299 N 
ATOM      6  C   UNL d   1      59.470   0.084  29.765  0.00  0.00     0.080 A 
ATOM      7  C   UNL d   1      60.106  -0.377  29.504  0.00  0.00     0.019 A 
ATOM      8  C   UNL d   1      59.963  -1.129  29.164  0.00  0.00     0.003 A 
ATOM      9  C   UNL d   1      59.176  -1.414  29.088  0.00  0.00     0.019 A 
ATOM     10  C   UNL d   1      60.593  -1.590  28.904  0.00  0.00     0.000 C 
ATOM     11  C   UNL d   1      58.533  -0.939  29.357  0.00  0.00     0.080 A 
ENDBRANCH   4   5
ENDBRANCH   1   4
BRANCH   2  12
ATOM     12  C   UNL d   1      57.118   0.495  31.917  0.00  0.00     0.085 A 
ATOM     13  C   UNL d   1      57.531   0.508  32.618  0.00  0.00     0.021 A 
ATOM     14  C   UNL d   1      57.147   0.320  33.327  0.00  0.00     0.026 A 
ATOM     15  C   UNL d   1      56.349   0.122  33.319  0.00  0.00     0.094 A 
ATOM     16  C   UNL d   1      55.935   0.111  32.610  0.00  0.00     0.026 A 
ATOM     17  C   UNL d   1      56.319   0.298  31.902  0.00  0.00     0.021 A 
BRANCH  15  18
ATOM     18  O   UNL d   1      55.960  -0.065  34.020  0.00  0.00    -0.328 OA
ATOM     19  C   UNL d   1      55.421   0.462  34.349  0.00  0.00     0.181 C 
ENDBRANCH  15  18
ENDBRANCH   2  12
TORSDOF 4
ENDMDL
MODEL 3
REMARK VINA RESULT:      -3.6      1.081      4.580
REMARK  4 active torsions:
REMARK  status: ('A' for Active; 'I' for Inactive)
REMARK       I    between atoms: N_3  and  C_1 
REMARK    1  A    between atoms: C_4  and  C_1 
REMARK    2  A    between atoms: N_2  and  C_4 
REMARK    3  A    between atoms: C_6  and  N_3 
REMARK    4  A    between atoms: O_17  and  C_9 
ROOT
ATOM      1  C   UNL d   1      57.713   0.343  30.815  0.00  0.00     0.297 C 
ATOM      2  N   UNL d   1      57.788   0.160  30.012  0.00  0.00    -0.207 NA
ATOM      3  O   UNL d   1      58.372   0.306  31.306  0.00  0.00    -0.264 OA
ENDROOT
BRANCH   1   4
ATOM      4  C   UNL d   1      56.983   0.561  31.122  0.00  0.00     0.144 C 
BRANCH   4   5
ATOM      5  N   UNL d   1      56.707   0.214  31.830  0.00  0.00    -0.299 N 
ATOM      6  C   UNL d   1      56.624   0.677  32.521  0.00  0.00     0.080 A 
ATOM      7  C   UNL d   1      56.351   0.341  33.225  0.00  0.00     0.019 A 
ATOM      8  C   UNL d   1      56.155  -0.473  33.248  0.00  0.00     0.003 A 
ATOM      9  C   UNL d   1      56.236  -0.946  32.558  0.00  0.00     0.019 A 
ATOM     10  C   UNL d   1      55.883  -0.812  33.947  0.00  0.00     0.000 C 
ATOM     11  C   UNL d   1      56.515  -0.596  31.844  0.00  0.00     0.080 A 
ENDBRANCH   4   5
ENDBRANCH   1   4
BRANCH   2  12
ATOM     12  C   UNL d   1      58.517  -0.059  29.704  0.00  0.00     0.085 A 
ATOM     13  C   UNL d   1      58.663  -0.840  29.531  0.00  0.00     0.021 A 
ATOM     14  C   UNL d   1      59.398  -1.064  29.221  0.00  0.00     0.026 A 
ATOM     15  C   UNL d   1      59.977  -0.494  29.090  0.00  0.00     0.094 A 
ATOM     16  C   UNL d   1      59.825   0.294  29.267  0.00  0.00     0.026 A 
ATOM     17  C   UNL d   1      59.091   0.517  29.577  0.00  0.00     0.021 A 
BRANCH  15  18
ATOM     18  O   UNL d   1      60.709  -0.708  28.782  0.00  0.00    -0.328 OA
ATOM     19  C   UNL d   1      60.988  -1.477  28.873  0.00  0.00     0.181 C 
ENDBRANCH  15  18
ENDBRANCH   2  12
TORSDOF 4
ENDMDL
MODEL 4
REMARK VINA RESULT:      -3.1      1.036      4.685
REMARK  4 active torsions:
REMARK  status: ('A' for Active; 'I' for Inactive)
REMARK       I    between atoms: N_3  and  C_1 
REMARK    1  A    between atoms: C_4  and  C_1 
REMARK    2  A    between atoms: N_2  and  C_4 
REMARK    3  A    between atoms: C_6  and  N_3 
REMARK    4  A    between atoms: O_17  and  C_9 
ROOT
ATOM      1  C   UNL d   1      57.106  -0.542  31.568  0.00  0.00     0.297 C 
ATOM      2  N   UNL d   1      57.261  -0.736  30.779  0.00  0.00    -0.207 NA
ATOM      3  O   UNL d   1      57.620  -0.046  31.976  0.00  0.00    -0.264 OA
ENDROOT
BRANCH   1   4
ATOM      4  C   UNL d   1      56.441  -0.845  31.945  0.00  0.00     0.144 C 
BRANCH   4   5
ATOM      5  N   UNL d   1      56.131  -0.459  32.617  0.00  0.00    -0.299 N 
ATOM      6  C   UNL d   1      56.231  -0.794  33.377  0.00  0.00     0.080 A 
ATOM      7  C   UNL d   1      55.926  -0.419  34.048  0.00  0.00     0.019 A 
ATOM      8  C   UNL d   1      55.513   0.305  33.967  0.00  0.00     0.003 A 
ATOM      9  C   UNL d   1      55.408   0.648  33.207  0.00  0.00     0.019 A 
ATOM     10  C   UNL d   1      55.208   0.682  34.633  0.00  0.00     0.000 C 
ATOM     11  C   UNL d   1      55.721   0.259  32.528  0.00  0.00     0.080 A 
ENDBRANCH   4   5
ENDBRANCH   1   4
BRANCH   2  12
ATOM     12  C   UNL d   1      57.925  -0.434  30.403  0.00  0.00     0.085 A 
ATOM     13  C   UNL d   1      58.461  -0.943  30.063  0.00  0.00     0.021 A 
ATOM     14  C   UNL d   1      59.132  -0.642  29.683  0.00  0.00     0.026 A 
ATOM     15  C   UNL d   1      59.253   0.171  29.650  0.00  0.00     0.094 A 
ATOM     16  C   UNL d   1      58.710   0.682  29.994  0.00  0.00     0.026 A 
ATOM     17  C   UNL d   1      58.039   0.381  30.374  0.00  0.00     0.021 A 
BRANCH  15  18
ATOM     18  O   UNL d   1      59.918   0.477  29.274  0.00  0.00    -0.328 OA
ATOM     19  C   UNL d   1      60.563  -0.007  29.111  0.00  0.00     0.181 C 
ENDBRANCH  15  18
ENDBRANCH   2  12
TORSDOF 4
ENDMDL
MODEL 5
REMARK VINA RESULT:      -1.9      9.469     10.225
REMARK  4 active torsions:
REMARK  status: ('A' for Active; 'I' for Inactive)
REMARK       I    between atoms: N_3  and  C_1 
REMARK    1  A    between atoms: C_4  and  C_1 
REMARK    2  A    between atoms: N_2  and  C_4 
REMARK    3  A    between atoms: C_6  and  N_3 
REMARK    4  A    between atoms: O_17  and  C_9 
ROOT
ATOM      1  C   UNL d   1      59.946  -9.674  33.953  0.00  0.00     0.297 C 
ATOM      2  N   UNL d   1      59.148  -9.772  33.760  0.00  0.00    -0.207 NA
ATOM      3  O   UNL d   1      60.504  -9.588  33.354  0.00  0.00    -0.264 OA
ENDROOT
BRANCH   1   4
ATOM      4  C   UNL d   1      60.183  -9.663  34.740  0.00  0.00     0.144 C 
BRANCH   4   5
ATOM      5  N   UNL d   1      60.292  -8.934  35.132  0.00  0.00    -0.299 N 
ATOM      6  C   UNL d   1      59.680  -8.615  35.604  0.00  0.00     0.080 A 
ATOM      7  C   UNL d   1      59.781  -7.894  35.997  0.00  0.00     0.019 A 
ATOM      8  C   UNL d   1      60.504  -7.477  35.921  0.00  0.00     0.003 A 
ATOM      9  C   UNL d   1      61.124  -7.791  35.449  0.00  0.00     0.019 A 
ATOM     10  C   UNL d   1      60.608  -6.759  36.310  0.00  0.00     0.000 C 
ATOM     11  C   UNL d   1      61.014  -8.527  35.052  0.00  0.00     0.080 A 
ENDBRANCH   4   5
ENDBRANCH   1   4
BRANCH   2  12
ATOM     12  C   UNL d   1      58.911  -9.783  32.974  0.00  0.00     0.085 A 
ATOM     13  C   UNL d   1      58.118  -9.782  32.793  0.00  0.00     0.021 A 
ATOM     14  C   UNL d   1      57.876  -9.794  32.001  0.00  0.00     0.026 A 
ATOM     15  C   UNL d   1      58.440  -9.806  31.401  0.00  0.00     0.094 A 
ATOM     16  C   UNL d   1      59.239  -9.807  31.589  0.00  0.00     0.026 A 
ATOM     17  C   UNL d   1      59.481  -9.796  32.380  0.00  0.00     0.021 A 
BRANCH  15  18
ATOM     18  O   UNL d   1      58.207  -9.818  30.613  0.00  0.00    -0.328 OA
ATOM     19  C   UNL d   1      57.421  -9.681  30.410  0.00  0.00     0.181 C 
ENDBRANCH  15  18
ENDBRANCH   2  12
TORSDOF 4
ENDMDL
