MODEL 1
REMARK VINA RESULT:      -2.2      0.000      0.000
REMARK  5 active torsions:
REMARK  status: ('A' for Active; 'I' for Inactive)
REMARK    1  A    between atoms: S_3  and  N_1 
REMARK    2  A    between atoms: C_7  and  C_4 
REMARK    3  A    between atoms: C_8  and  C_5 
REMARK    4  A    between atoms: O_17  and  C_12 
REMARK    5  A    between atoms: C_20  and  O_17 
ROOT
ATOM      1  N   UNL d   1      56.311  -0.844  32.463  0.00  0.00    -0.155 N 
ATOM      2  N   UNL d   1      56.838  -0.865  31.816  0.00  0.00    -0.155 NA
ATOM      3  C   UNL d   1      56.303  -0.091  32.752  0.00  0.00     0.098 A 
ATOM      4  C   UNL d   1      57.141  -0.113  31.727  0.00  0.00     0.110 A 
ATOM      5  C   UNL d   1      56.810   0.394  32.317  0.00  0.00     0.041 A 
ENDROOT
BRANCH   3   6
ATOM      6  C   UNL d   1      55.853   0.167  33.395  0.00  0.00     0.041 A 
ATOM      7  C   UNL d   1      56.218   0.407  34.084  0.00  0.00     0.102 A 
ATOM      8  C   UNL d   1      55.768   0.664  34.726  0.00  0.00     0.025 A 
ATOM      9  C   UNL d   1      54.953   0.682  34.677  0.00  0.00     0.002 A 
ATOM     10  C   UNL d   1      54.580   0.441  33.983  0.00  0.00     0.000 A 
ATOM     11  C   UNL d   1      55.030   0.183  33.341  0.00  0.00     0.004 A 
BRANCH   7  12
ATOM     12  O   UNL d   1      57.045   0.391  34.140  0.00  0.00    -0.305 OA
BRANCH  12  13
ATOM     13  C   UNL d   1      57.417   0.682  34.812  0.00  0.00     0.123 C 
ATOM     14  C   UNL d   1      58.239   0.614  34.894  0.00  0.00     0.029 C 
ENDBRANCH  12  13
ENDBRANCH   7  12
ENDBRANCH   3   6
BRANCH   1  15
ATOM     15  S   UNL d   1      55.892  -1.477  32.736  0.00  0.00     0.266 S 
ATOM     16  O   UNL d   1      56.576  -1.773  33.120  0.00  0.00    -0.203 OA
ATOM     17  O   UNL d   1      55.207  -1.222  32.377  0.00  0.00    -0.203 OA
ATOM     18  C   UNL d   1      55.473  -2.150  33.034  0.00  0.00     0.165 C 
ENDBRANCH   1  15
BRANCH   4  19
ATOM     19  C   UNL d   1      57.688   0.142  31.158  0.00  0.00     0.049 A 
ATOM     20  S   UNL d   1      57.584   0.019  30.356  0.00  0.00    -0.085 SA
ATOM     21  C   UNL d   1      58.240   0.350  29.979  0.00  0.00     0.035 A 
ATOM     22  C   UNL d   1      58.745   0.676  30.550  0.00  0.00     0.007 A 
ATOM     23  C   UNL d   1      58.393   0.543  31.292  0.00  0.00     0.009 A 
ENDBRANCH   4  19
TORSDOF 5
ENDMDL
MODEL 2
REMARK VINA RESULT:      -1.6      2.079      4.385
REMARK  5 active torsions:
REMARK  status: ('A' for Active; 'I' for Inactive)
REMARK    1  A    between atoms: S_3  and  N_1 
REMARK    2  A    between atoms: C_7  and  C_4 
REMARK    3  A    between atoms: C_8  and  C_5 
REMARK    4  A    between atoms: O_17  and  C_12 
REMARK    5  A    between atoms: C_20  and  O_17 
ROOT
ATOM      1  N   UNL d   1      58.136  -0.857  30.124  0.00  0.00    -0.155 N 
ATOM      2  N   UNL d   1      57.518  -0.892  30.684  0.00  0.00    -0.155 NA
ATOM      3  C   UNL d   1      58.487  -0.134  30.189  0.00  0.00     0.098 A 
ATOM      4  C   UNL d   1      57.510  -0.180  31.080  0.00  0.00     0.110 A 
ATOM      5  C   UNL d   1      58.122   0.317  30.777  0.00  0.00     0.041 A 
ENDROOT
BRANCH   3   6
ATOM      6  C   UNL d   1      59.125   0.127  29.733  0.00  0.00     0.041 A 
ATOM      7  C   UNL d   1      59.796   0.422  30.094  0.00  0.00     0.102 A 
ATOM      8  C   UNL d   1      60.433   0.682  29.639  0.00  0.00     0.025 A 
ATOM      9  C   UNL d   1      60.399   0.647  28.824  0.00  0.00     0.002 A 
ATOM     10  C   UNL d   1      59.723   0.350  28.456  0.00  0.00     0.000 A 
ATOM     11  C   UNL d   1      59.086   0.090  28.911  0.00  0.00     0.004 A 
BRANCH   7  12
ATOM     12  O   UNL d   1      59.837   0.460  30.921  0.00  0.00    -0.305 OA
BRANCH  12  13
ATOM     13  C   UNL d   1      60.559   0.588  31.291  0.00  0.00     0.123 C 
ATOM     14  C   UNL d   1      60.594   0.671  32.115  0.00  0.00     0.029 C 
ENDBRANCH  12  13
ENDBRANCH   7  12
ENDBRANCH   3   6
BRANCH   1  15
ATOM     15  S   UNL d   1      58.331  -1.452  29.616  0.00  0.00     0.266 S 
ATOM     16  O   UNL d   1      58.628  -1.908  30.254  0.00  0.00    -0.203 OA
ATOM     17  O   UNL d   1      58.052  -1.040  28.972  0.00  0.00    -0.203 OA
ATOM     18  C   UNL d   1      58.544  -2.090  29.101  0.00  0.00     0.165 C 
ENDBRANCH   1  15
BRANCH   4  19
ATOM     19  C   UNL d   1      56.994   0.050  31.688  0.00  0.00     0.049 A 
ATOM     20  S   UNL d   1      56.951  -0.344  32.405  0.00  0.00    -0.085 SA
ATOM     21  C   UNL d   1      56.380   0.049  32.855  0.00  0.00     0.035 A 
ATOM     22  C   UNL d   1      56.075   0.681  32.415  0.00  0.00     0.007 A 
ATOM     23  C   UNL d   1      56.465   0.678  31.680  0.00  0.00     0.009 A 
ENDBRANCH   4  19
TORSDOF 5
ENDMDL
MODEL 3
REMARK VINA RESULT:      -1.5      2.762      5.209
REMARK  5 active torsions:
REMARK  status: ('A' for Active; 'I' for Inactive)
REMARK    1  A    between atoms: S_3  and  N_1 
REMARK    2  A    between atoms: C_7  and  C_4 
REMARK    3  A    between atoms: C_8  and  C_5 
REMARK    4  A    between atoms: O_17  and  C_12 
REMARK    5  A    between atoms: C_20  and  O_17 
ROOT
ATOM      1  N   UNL d   1      58.472  -0.210  29.764  0.00  0.00    -0.155 N 
ATOM      2  N   UNL d   1      57.800  -0.047  30.231  0.00  0.00    -0.155 NA
ATOM      3  C   UNL d   1      58.837  -0.858  30.074  0.00  0.00     0.098 A 
ATOM      4  C   UNL d   1      57.773  -0.608  30.821  0.00  0.00     0.110 A 
ATOM      5  C   UNL d   1      58.428  -1.135  30.736  0.00  0.00     0.041 A 
ENDROOT
BRANCH   3   6
ATOM      6  C   UNL d   1      59.526  -1.204  29.776  0.00  0.00     0.041 A 
ATOM      7  C   UNL d   1      59.492  -1.924  29.393  0.00  0.00     0.102 A 
ATOM      8  C   UNL d   1      60.180  -2.270  29.095  0.00  0.00     0.025 A 
ATOM      9  C   UNL d   1      60.900  -1.894  29.181  0.00  0.00     0.002 A 
ATOM     10  C   UNL d   1      60.938  -1.167  29.568  0.00  0.00     0.000 A 
ATOM     11  C   UNL d   1      60.250  -0.822  29.865  0.00  0.00     0.004 A 
BRANCH   7  12
ATOM     12  O   UNL d   1      58.765  -2.311  29.302  0.00  0.00    -0.305 OA
BRANCH  12  13
ATOM     13  C   UNL d   1      58.742  -3.089  29.042  0.00  0.00     0.123 C 
ATOM     14  C   UNL d   1      58.036  -3.408  28.748  0.00  0.00     0.029 C 
ENDBRANCH  12  13
ENDBRANCH   7  12
ENDBRANCH   3   6
BRANCH   1  15
ATOM     15  S   UNL d   1      58.699   0.218  29.119  0.00  0.00     0.266 S 
ATOM     16  O   UNL d   1      59.256   0.637  29.584  0.00  0.00    -0.203 OA
ATOM     17  O   UNL d   1      58.169  -0.167  28.635  0.00  0.00    -0.203 OA
ATOM     18  C   UNL d   1      58.954   0.679  28.455  0.00  0.00     0.165 C 
ENDBRANCH   1  15
BRANCH   4  19
ATOM     19  C   UNL d   1      57.206  -0.676  31.423  0.00  0.00     0.049 A 
ATOM     20  S   UNL d   1      56.947  -0.037  31.862  0.00  0.00    -0.085 SA
ATOM     21  C   UNL d   1      56.390  -0.329  32.398  0.00  0.00     0.035 A 
ATOM     22  C   UNL d   1      56.309  -1.146  32.286  0.00  0.00     0.007 A 
ATOM     23  C   UNL d   1      56.825  -1.361  31.670  0.00  0.00     0.009 A 
ENDBRANCH   4  19
TORSDOF 5
ENDMDL
