MODEL 1
REMARK VINA RESULT:      11.3      0.000      0.000
REMARK  2 active torsions:
REMARK  status: ('A' for Active; 'I' for Inactive)
REMARK    1  A    between atoms: C_9  and  N_1 
REMARK    2  A    between atoms: C_11  and  C_9 
ROOT
ATOM      1  N   UNL d   1     -51.849  23.824  33.318  0.00  0.00    -0.287 N 
ATOM      2  N   UNL d   1     -50.496  23.801  33.329  0.00  0.00    -0.224 NA
ATOM      3  C   UNL d   1     -51.574  24.620  33.317  0.00  0.00     0.083 A 
ATOM      4  C   UNL d   1     -51.181  23.322  33.325  0.00  0.00     0.183 A 
ATOM      5  C   UNL d   1     -50.743  24.603  33.324  0.00  0.00     0.099 A 
ATOM      6  C   UNL d   1     -51.973  25.343  33.311  0.00  0.00     0.019 A 
ATOM      7  C   UNL d   1     -50.317  25.310  33.324  0.00  0.00     0.021 A 
ATOM      8  C   UNL d   1     -51.546  26.047  33.312  0.00  0.00     0.002 A 
ATOM      9  C   UNL d   1     -50.714  26.031  33.318  0.00  0.00     0.002 A 
ATOM     10  C   UNL d   1     -51.944  26.774  33.306  0.00  0.00     0.000 C 
ATOM     11  C   UNL d   1     -50.292  26.737  33.319  0.00  0.00     0.000 C 
ENDROOT
BRANCH   1  12
ATOM     12  C   UNL d   1     -52.570  23.426  33.314  0.00  0.00     0.082 C 
BRANCH  12  13
ATOM     13  C   UNL d   1     -52.996  23.340  34.014  0.00  0.00     0.018 C 
ATOM     14  C   UNL d   1     -53.821  23.381  34.003  0.00  0.00     0.002 C 
ATOM     15  C   UNL d   1     -52.599  23.212  34.727  0.00  0.00     0.002 C 
ENDBRANCH  12  13
ENDBRANCH   1  12
TORSDOF 2
ENDMDL
