MODEL 1
REMARK VINA RESULT:      19.3      0.000      0.000
REMARK  4 active torsions:
REMARK  status: ('A' for Active; 'I' for Inactive)
REMARK    1  A    between atoms: C_10  and  C_3 
REMARK    2  A    between atoms: S_8  and  C_4 
REMARK       I    between atoms: N_6  and  C_7 
REMARK    3  A    between atoms: C_7  and  C_9 
REMARK    4  A    between atoms: C_9  and  S_8 
ROOT
ATOM      1  O   UNL d   1      46.089 -17.386  43.772  0.00  0.00    -0.263 OA
ATOM      2  N   UNL d   1      46.414 -17.862  42.569  0.00  0.00    -0.120 NA
ATOM      3  C   UNL d   1      46.302 -18.066  43.354  0.00  0.00     0.205 A 
ATOM      4  C   UNL d   1      46.070 -16.759  43.239  0.00  0.00     0.236 A 
ATOM      5  N   UNL d   1      46.270 -17.049  42.496  0.00  0.00    -0.114 NA
ENDROOT
BRANCH   4   6
ATOM      6  S   UNL d   1      45.882 -15.968  43.420  0.00  0.00    -0.036 SA
BRANCH   6   7
ATOM      7  C   UNL d   1      46.017 -15.677  44.181  0.00  0.00     0.100 C 
BRANCH   7   8
ATOM      8  C   UNL d   1      45.453 -15.211  44.564  0.00  0.00     0.272 C 
ATOM      9  N   UNL d   1      45.519 -14.392  44.559  0.00  0.00    -0.272 N 
ATOM     10  C   UNL d   1      46.151 -14.024  44.173  0.00  0.00     0.083 A 
ATOM     11  C   UNL d   1      44.942 -13.935  44.949  0.00  0.00     0.083 A 
ATOM     12  C   UNL d   1      46.206 -13.199  44.176  0.00  0.00     0.019 A 
ATOM     13  C   UNL d   1      45.640 -12.748  44.558  0.00  0.00     0.003 A 
ATOM     14  C   UNL d   1      45.012 -13.107  44.943  0.00  0.00     0.019 A 
ATOM     15  O   UNL d   1      44.821 -15.579  44.950  0.00  0.00    -0.266 OA
ENDBRANCH   7   8
ENDBRANCH   6   7
ENDBRANCH   4   6
BRANCH   3  16
ATOM     16  C   UNL d   1      46.377 -18.803  43.702  0.00  0.00     0.043 A 
ATOM     17  C   UNL d   1      46.267 -18.883  44.515  0.00  0.00     0.004 A 
ATOM     18  C   UNL d   1      46.342 -19.622  44.872  0.00  0.00     0.000 A 
ATOM     19  C   UNL d   1      46.529 -20.280  44.402  0.00  0.00     0.000 A 
ATOM     20  C   UNL d   1      46.639 -20.202  43.588  0.00  0.00     0.000 A 
ATOM     21  C   UNL d   1      46.561 -19.457  43.248  0.00  0.00     0.004 A 
ENDBRANCH   3  16
TORSDOF 4
ENDMDL
