MODEL 1
REMARK VINA RESULT:      -2.8      0.000      0.000
REMARK  3 active torsions:
REMARK  status: ('A' for Active; 'I' for Inactive)
REMARK    1  A    between atoms: CB_6  and  CG_1 
REMARK    2  A    between atoms: C_5  and  CA_8 
REMARK    3  A    between atoms: CA_8  and  CB_6 
ROOT
ATOM      1  CG  TRP d   1      30.960  17.002 -24.131  0.00  0.00     0.022 A 
ATOM      2  NE1 TRP d   1      31.647  16.024 -23.550  0.00  0.00    -0.244 NA
ATOM      3  CD1 TRP d   1      30.936  16.220 -23.916  0.00  0.00     0.099 A 
ATOM      4  CD2 TRP d   1      31.697  17.309 -23.900  0.00  0.00     0.019 A 
ATOM      5  CE2 TRP d   1      32.119  16.701 -23.541  0.00  0.00     0.081 A 
ATOM      6  CE3 TRP d   1      32.033  18.062 -23.971  0.00  0.00     0.002 A 
ATOM      7  CZ2 TRP d   1      32.879  16.842 -23.252  0.00  0.00     0.019 A 
ATOM      8  CZ3 TRP d   1      32.790  18.203 -23.683  0.00  0.00     0.000 A 
ATOM      9  CH2 TRP d   1      33.216  17.595 -23.323  0.00  0.00     0.002 A 
ENDROOT
BRANCH   1  10
ATOM     10  CB  TRP d   1      30.350  17.410 -24.513  0.00  0.00     0.029 C 
BRANCH  10  11
ATOM     11  CA  TRP d   1      29.620  17.055 -24.603  0.00  0.00     0.167 C 
ATOM     12  N   TRP d   1      29.571  16.245 -24.754  0.00  0.00    -0.142 N 
BRANCH  11  13
ATOM     13  C   TRP d   1      28.936  17.507 -24.542  0.00  0.00     0.231 C 
ATOM     14  O   TRP d   1      28.406  17.371 -23.938  0.00  0.00    -0.643 OA
ATOM     15  OXT TRP d   1      28.791  18.099 -25.096  0.00  0.00    -0.643 OA
ENDBRANCH  11  13
ENDBRANCH  10  11
ENDBRANCH   1  10
TORSDOF 3
ENDMDL
MODEL 2
REMARK VINA RESULT:      -2.8      1.110      1.538
REMARK  3 active torsions:
REMARK  status: ('A' for Active; 'I' for Inactive)
REMARK    1  A    between atoms: CB_6  and  CG_1 
REMARK    2  A    between atoms: C_5  and  CA_8 
REMARK    3  A    between atoms: CA_8  and  CB_6 
ROOT
ATOM      1  CG  TRP d   1      30.373  16.937 -24.306  0.00  0.00     0.022 A 
ATOM      2  NE1 TRP d   1      30.858  17.895 -25.089  0.00  0.00    -0.244 NA
ATOM      3  CD1 TRP d   1      30.189  17.451 -24.906  0.00  0.00     0.099 A 
ATOM      4  CD2 TRP d   1      31.170  17.056 -24.102  0.00  0.00     0.019 A 
ATOM      5  CE2 TRP d   1      31.467  17.649 -24.588  0.00  0.00     0.081 A 
ATOM      6  CE3 TRP d   1      31.659  16.698 -23.537  0.00  0.00     0.002 A 
ATOM      7  CZ2 TRP d   1      32.253  17.889 -24.513  0.00  0.00     0.019 A 
ATOM      8  CZ3 TRP d   1      32.442  16.937 -23.462  0.00  0.00     0.000 A 
ATOM      9  CH2 TRP d   1      32.742  17.531 -23.948  0.00  0.00     0.002 A 
ENDROOT
BRANCH   1  10
ATOM     10  CB  TRP d   1      29.848  16.396 -23.966  0.00  0.00     0.029 C 
BRANCH  10  11
ATOM     11  CA  TRP d   1      29.065  16.392 -24.196  0.00  0.00     0.167 C 
ATOM     12  N   TRP d   1      28.864  16.563 -24.978  0.00  0.00    -0.142 N 
BRANCH  11  13
ATOM     13  C   TRP d   1      28.479  16.217 -23.646  0.00  0.00     0.231 C 
ATOM     14  O   TRP d   1      28.381  15.453 -23.380  0.00  0.00    -0.643 OA
ATOM     15  OXT TRP d   1      27.992  16.820 -23.366  0.00  0.00    -0.643 OA
ENDBRANCH  11  13
ENDBRANCH  10  11
ENDBRANCH   1  10
TORSDOF 3
ENDMDL
MODEL 3
REMARK VINA RESULT:      -2.8      1.999      3.315
REMARK  3 active torsions:
REMARK  status: ('A' for Active; 'I' for Inactive)
REMARK    1  A    between atoms: CB_6  and  CG_1 
REMARK    2  A    between atoms: C_5  and  CA_8 
REMARK    3  A    between atoms: CA_8  and  CB_6 
ROOT
ATOM      1  CG  TRP d   1      30.613  16.864 -24.144  0.00  0.00     0.022 A 
ATOM      2  NE1 TRP d   1      29.470  17.189 -24.740  0.00  0.00    -0.244 NA
ATOM      3  CD1 TRP d   1      30.280  17.341 -24.709  0.00  0.00     0.099 A 
ATOM      4  CD2 TRP d   1      30.010  16.402 -23.810  0.00  0.00     0.019 A 
ATOM      5  CE2 TRP d   1      29.304  16.605 -24.181  0.00  0.00     0.081 A 
ATOM      6  CE3 TRP d   1      30.015  15.823 -23.218  0.00  0.00     0.002 A 
ATOM      7  CZ2 TRP d   1      28.601  16.233 -23.961  0.00  0.00     0.019 A 
ATOM      8  CZ3 TRP d   1      29.315  15.453 -22.999  0.00  0.00     0.000 A 
ATOM      9  CH2 TRP d   1      28.606  15.655 -23.369  0.00  0.00     0.002 A 
ENDROOT
BRANCH   1  10
ATOM     10  CB  TRP d   1      31.417  16.851 -23.947  0.00  0.00     0.029 C 
BRANCH  10  11
ATOM     11  CA  TRP d   1      31.888  17.494 -24.124  0.00  0.00     0.167 C 
ATOM     12  N   TRP d   1      31.750  17.929 -24.812  0.00  0.00    -0.142 N 
BRANCH  11  13
ATOM     13  C   TRP d   1      32.498  17.705 -23.615  0.00  0.00     0.231 C 
ATOM     14  O   TRP d   1      32.482  18.425 -23.232  0.00  0.00    -0.643 OA
ATOM     15  OXT TRP d   1      33.125  17.184 -23.495  0.00  0.00    -0.643 OA
ENDBRANCH  11  13
ENDBRANCH  10  11
ENDBRANCH   1  10
TORSDOF 3
ENDMDL
