MODEL 1
REMARK VINA RESULT:      53.5      0.000      0.000
REMARK  2 active torsions:
REMARK  status: ('A' for Active; 'I' for Inactive)
REMARK    1  A    between atoms: C_5  and  C_1 
REMARK    2  A    between atoms: C_7  and  N_2 
ROOT
ATOM      1  C   UNL d   1      57.690  48.789  51.417  0.00  0.00     0.129 A 
ATOM      2  N   UNL d   1      57.828  49.053  50.639  0.00  0.00    -0.302 N 
ATOM      3  C   UNL d   1      58.408  48.834  51.826  0.00  0.00     0.025 A 
ATOM      4  C   UNL d   1      58.625  49.258  50.573  0.00  0.00     0.064 A 
ATOM      5  C   UNL d   1      58.986  49.122  51.310  0.00  0.00     0.018 A 
ATOM      6  C   UNL d   1      59.076  49.552  49.941  0.00  0.00     0.018 A 
ATOM      7  C   UNL d   1      59.794  49.280  51.409  0.00  0.00     0.002 A 
ATOM      8  C   UNL d   1      59.876  49.707  50.043  0.00  0.00     0.002 A 
ATOM      9  C   UNL d   1      60.234  49.572  50.773  0.00  0.00     0.000 A 
ENDROOT
BRANCH   2  10
ATOM     10  C   UNL d   1      57.264  49.103  50.036  0.00  0.00     0.064 A 
ATOM     11  C   UNL d   1      57.369  49.652  49.432  0.00  0.00     0.018 A 
ATOM     12  C   UNL d   1      56.810  49.702  48.832  0.00  0.00     0.002 A 
ATOM     13  C   UNL d   1      56.150  49.207  48.835  0.00  0.00     0.000 A 
ATOM     14  C   UNL d   1      56.048  48.655  49.444  0.00  0.00     0.002 A 
ATOM     15  C   UNL d   1      56.612  48.608  50.044  0.00  0.00     0.018 A 
ENDBRANCH   2  10
BRANCH   1  16
ATOM     16  C   UNL d   1      56.970  48.531  51.722  0.00  0.00     0.228 C 
ATOM     17  O   UNL d   1      56.699  47.772  51.554  0.00  0.00    -0.643 OA
ATOM     18  O   UNL d   1      56.519  49.037  52.199  0.00  0.00    -0.643 OA
ENDBRANCH   1  16
TORSDOF 2
ENDMDL
