MODEL 1
REMARK VINA RESULT:      -5.5      0.000      0.000
REMARK  4 active torsions:
REMARK  status: ('A' for Active; 'I' for Inactive)
REMARK    1  A    between atoms: N_3  and  C_1 
REMARK       I    between atoms: C_7  and  N_3 
REMARK    2  A    between atoms: S_10  and  C_5 
REMARK    3  A    between atoms: C_9  and  C_7 
REMARK    4  A    between atoms: C_13  and  S_10 
ROOT
ATOM      1  N   UNL d   1     -41.308-122.942 -51.453  0.00  0.00    -0.181 NA
ATOM      2  C   UNL d   1     -41.855-122.636 -50.910  0.00  0.00     0.281 C 
ATOM      3  O   UNL d   1     -42.421-122.070 -51.149  0.00  0.00    -0.265 OA
ENDROOT
BRANCH   1   4
ATOM      4  C   UNL d   1     -41.330-122.688 -52.211  0.00  0.00     0.219 A 
ATOM      5  S   UNL d   1     -41.541-123.059 -52.920  0.00  0.00    -0.019 SA
ATOM      6  C   UNL d   1     -41.451-122.512 -53.532  0.00  0.00     0.165 A 
ATOM      7  N   UNL d   1     -41.194-121.824 -53.218  0.00  0.00    -0.133 NA
ATOM      8  N   UNL d   1     -41.124-121.933 -52.432  0.00  0.00    -0.120 NA
BRANCH   6   9
ATOM      9  S   UNL d   1     -41.598-122.631 -54.354  0.00  0.00    -0.059 SA
BRANCH   9  10
ATOM     10  C   UNL d   1     -42.086-122.150 -54.753  0.00  0.00     0.037 C 
ATOM     11  C   UNL d   1     -42.174-122.226 -55.561  0.00  0.00     0.008 C 
ENDBRANCH   9  10
ENDBRANCH   6   9
ENDBRANCH   1   4
BRANCH   2  12
ATOM     12  C   UNL d   1     -41.821-122.914 -50.105  0.00  0.00     0.058 A 
ATOM     13  C   UNL d   1     -41.124-123.190 -49.764  0.00  0.00     0.005 A 
ATOM     14  C   UNL d   1     -41.129-123.457 -48.967  0.00  0.00     0.000 A 
ATOM     15  C   UNL d   1     -41.817-123.449 -48.519  0.00  0.00     0.000 A 
ATOM     16  C   UNL d   1     -42.516-123.176 -48.849  0.00  0.00     0.000 A 
ATOM     17  C   UNL d   1     -42.520-122.905 -49.651  0.00  0.00     0.005 A 
ENDBRANCH   2  12
TORSDOF 4
ENDMDL
MODEL 2
REMARK VINA RESULT:      -5.5      1.253      4.484
REMARK  4 active torsions:
REMARK  status: ('A' for Active; 'I' for Inactive)
REMARK    1  A    between atoms: N_3  and  C_1 
REMARK       I    between atoms: C_7  and  N_3 
REMARK    2  A    between atoms: S_10  and  C_5 
REMARK    3  A    between atoms: C_9  and  C_7 
REMARK    4  A    between atoms: C_13  and  S_10 
ROOT
ATOM      1  N   UNL d   1     -41.779-122.121 -52.559  0.00  0.00    -0.181 NA
ATOM      2  C   UNL d   1     -41.825-122.696 -53.154  0.00  0.00     0.281 C 
ATOM      3  O   UNL d   1     -41.855-123.508 -52.959  0.00  0.00    -0.265 OA
ENDROOT
BRANCH   1   4
ATOM      4  C   UNL d   1     -41.763-122.353 -51.794  0.00  0.00     0.219 A 
ATOM      5  S   UNL d   1     -41.199-122.756 -51.343  0.00  0.00    -0.019 SA
ATOM      6  C   UNL d   1     -41.496-122.840 -50.576  0.00  0.00     0.165 A 
ATOM      7  N   UNL d   1     -42.219-122.501 -50.549  0.00  0.00    -0.133 NA
ATOM      8  N   UNL d   1     -42.374-122.213 -51.275  0.00  0.00    -0.120 NA
BRANCH   6   9
ATOM      9  S   UNL d   1     -41.123-123.213 -49.918  0.00  0.00    -0.059 SA
BRANCH   9  10
ATOM     10  C   UNL d   1     -41.384-123.088 -49.180  0.00  0.00     0.037 C 
ATOM     11  C   UNL d   1     -41.134-123.566 -48.567  0.00  0.00     0.008 C 
ENDBRANCH   9  10
ENDBRANCH   6   9
ENDBRANCH   1   4
BRANCH   2  12
ATOM     12  C   UNL d   1     -41.841-122.436 -53.966  0.00  0.00     0.058 A 
ATOM     13  C   UNL d   1     -42.382-121.877 -54.237  0.00  0.00     0.005 A 
ATOM     14  C   UNL d   1     -42.367-121.644 -55.045  0.00  0.00     0.000 A 
ATOM     15  C   UNL d   1     -41.825-121.963 -55.571  0.00  0.00     0.000 A 
ATOM     16  C   UNL d   1     -41.283-122.520 -55.311  0.00  0.00     0.000 A 
ATOM     17  C   UNL d   1     -41.289-122.761 -54.499  0.00  0.00     0.005 A 
ENDBRANCH   2  12
TORSDOF 4
ENDMDL
