MODEL 1
REMARK VINA RESULT:      -3.1      0.000      0.000
REMARK  3 active torsions:
REMARK  status: ('A' for Active; 'I' for Inactive)
REMARK    1  A    between atoms: C_7  and  C_3 
REMARK       I    between atoms: N_10  and  C_7 
REMARK    2  A    between atoms: C_18  and  C_9 
REMARK    3  A    between atoms: C_12  and  N_10 
ROOT
ATOM      1  C   UNL d   1      33.054  20.919 -21.709  0.00  0.00     0.059 A 
ATOM      2  C   UNL d   1      33.234  21.437 -22.327  0.00  0.00     0.013 A 
ATOM      3  C   UNL d   1      33.060  19.827 -22.623  0.00  0.00     0.088 A 
ATOM      4  S   UNL d   1      32.967  20.117 -21.857  0.00  0.00    -0.075 SA
ATOM      5  S   UNL d   1      32.961  21.209 -20.943  0.00  0.00    -0.080 SA
ATOM      6  C   UNL d   1      33.240  20.345 -23.241  0.00  0.00     0.012 A 
ATOM      7  C   UNL d   1      33.228  22.526 -21.417  0.00  0.00     0.007 A 
ATOM      8  C   UNL d   1      33.048  22.008 -20.799  0.00  0.00     0.030 A 
ENDROOT
BRANCH   3   9
ATOM      9  C   UNL d   1      32.973  19.024 -22.770  0.00  0.00     0.285 C 
ATOM     10  N   UNL d   1      32.660  18.767 -23.492  0.00  0.00    -0.208 NA
ATOM     11  O   UNL d   1      33.197  18.472 -22.200  0.00  0.00    -0.265 OA
BRANCH  10  12
ATOM     12  C   UNL d   1      32.571  17.961 -23.643  0.00  0.00     0.085 A 
ATOM     13  C   UNL d   1      31.835  17.614 -23.575  0.00  0.00     0.019 A 
ATOM     14  C   UNL d   1      31.750  16.813 -23.725  0.00  0.00     0.002 A 
ATOM     15  C   UNL d   1      32.412  16.355 -23.945  0.00  0.00     0.000 A 
ATOM     16  C   UNL d   1      33.149  16.716 -24.010  0.00  0.00     0.002 A 
ATOM     17  C   UNL d   1      32.328  15.547 -24.097  0.00  0.00     0.000 C 
ATOM     18  C   UNL d   1      33.231  17.515 -23.860  0.00  0.00     0.019 A 
ENDBRANCH  10  12
ENDBRANCH   3   9
BRANCH   8  19
ATOM     19  C   UNL d   1      32.956  22.304 -20.033  0.00  0.00     0.006 C 
ATOM     20  C   UNL d   1      32.996  23.111 -19.894  0.00  0.00     0.001 C 
ENDBRANCH   8  19
TORSDOF 3
ENDMDL
MODEL 2
REMARK VINA RESULT:      -1.9      1.217      2.250
REMARK  3 active torsions:
REMARK  status: ('A' for Active; 'I' for Inactive)
REMARK    1  A    between atoms: C_7  and  C_3 
REMARK       I    between atoms: N_10  and  C_7 
REMARK    2  A    between atoms: C_18  and  C_9 
REMARK    3  A    between atoms: C_12  and  N_10 
ROOT
ATOM      1  C   UNL d   1      33.046  22.208 -19.958  0.00  0.00     0.059 A 
ATOM      2  C   UNL d   1      32.972  22.881 -20.431  0.00  0.00     0.013 A 
ATOM      3  C   UNL d   1      32.941  21.384 -21.115  0.00  0.00     0.088 A 
ATOM      4  S   UNL d   1      33.031  21.462 -20.299  0.00  0.00    -0.075 SA
ATOM      5  S   UNL d   1      33.136  22.285 -19.142  0.00  0.00    -0.080 SA
ATOM      6  C   UNL d   1      32.867  22.058 -21.588  0.00  0.00     0.012 A 
ATOM      7  C   UNL d   1      33.077  23.702 -19.278  0.00  0.00     0.007 A 
ATOM      8  C   UNL d   1      33.151  23.029 -18.805  0.00  0.00     0.030 A 
ENDROOT
BRANCH   3   9
ATOM      9  C   UNL d   1      32.926  20.638 -21.456  0.00  0.00     0.285 C 
ATOM     10  N   UNL d   1      33.118  20.544 -22.255  0.00  0.00    -0.208 NA
ATOM     11  O   UNL d   1      32.719  19.980 -21.003  0.00  0.00    -0.265 OA
BRANCH  10  12
ATOM     12  C   UNL d   1      33.103  19.794 -22.600  0.00  0.00     0.085 A 
ATOM     13  C   UNL d   1      32.959  19.719 -23.401  0.00  0.00     0.019 A 
ATOM     14  C   UNL d   1      32.945  18.973 -23.741  0.00  0.00     0.002 A 
ATOM     15  C   UNL d   1      33.077  18.296 -23.272  0.00  0.00     0.000 A 
ATOM     16  C   UNL d   1      33.221  18.385 -22.466  0.00  0.00     0.002 A 
ATOM     17  C   UNL d   1      33.063  17.543 -23.613  0.00  0.00     0.000 C 
ATOM     18  C   UNL d   1      33.235  19.130 -22.129  0.00  0.00     0.019 A 
ENDBRANCH  10  12
ENDBRANCH   3   9
BRANCH   8  19
ATOM     19  C   UNL d   1      33.240  23.113 -17.988  0.00  0.00     0.006 C 
ATOM     20  C   UNL d   1      32.787  23.659 -17.576  0.00  0.00     0.001 C 
ENDBRANCH   8  19
TORSDOF 3
ENDMDL
MODEL 3
REMARK VINA RESULT:      -1.7      1.458      5.366
REMARK  3 active torsions:
REMARK  status: ('A' for Active; 'I' for Inactive)
REMARK    1  A    between atoms: C_7  and  C_3 
REMARK       I    between atoms: N_10  and  C_7 
REMARK    2  A    between atoms: C_18  and  C_9 
REMARK    3  A    between atoms: C_12  and  N_10 
ROOT
ATOM      1  C   UNL d   1      32.958  19.882 -22.925  0.00  0.00     0.059 A 
ATOM      2  C   UNL d   1      33.107  20.333 -23.601  0.00  0.00     0.013 A 
ATOM      3  C   UNL d   1      32.992  21.063 -22.130  0.00  0.00     0.088 A 
ATOM      4  S   UNL d   1      32.901  20.246 -22.191  0.00  0.00    -0.075 SA
ATOM      5  S   UNL d   1      32.867  19.065 -22.986  0.00  0.00    -0.080 SA
ATOM      6  C   UNL d   1      33.140  21.514 -22.806  0.00  0.00     0.012 A 
ATOM      7  C   UNL d   1      33.073  19.156 -24.393  0.00  0.00     0.007 A 
ATOM      8  C   UNL d   1      32.925  18.705 -23.717  0.00  0.00     0.030 A 
ENDROOT
BRANCH   3   9
ATOM      9  C   UNL d   1      32.934  21.427 -21.396  0.00  0.00     0.285 C 
ATOM     10  N   UNL d   1      32.712  22.223 -21.345  0.00  0.00    -0.208 NA
ATOM     11  O   UNL d   1      33.098  21.001 -20.709  0.00  0.00    -0.265 OA
BRANCH  10  12
ATOM     12  C   UNL d   1      32.654  22.591 -20.609  0.00  0.00     0.085 A 
ATOM     13  C   UNL d   1      32.018  22.426 -20.123  0.00  0.00     0.019 A 
ATOM     14  C   UNL d   1      31.963  22.794 -19.392  0.00  0.00     0.002 A 
ATOM     15  C   UNL d   1      32.552  23.331 -19.147  0.00  0.00     0.000 A 
ATOM     16  C   UNL d   1      33.188  23.488 -19.646  0.00  0.00     0.002 A 
ATOM     17  C   UNL d   1      32.498  23.702 -18.410  0.00  0.00     0.000 C 
ATOM     18  C   UNL d   1      33.241  23.121 -20.374  0.00  0.00     0.019 A 
ENDBRANCH  10  12
ENDBRANCH   3   9
BRANCH   8  19
ATOM     19  C   UNL d   1      32.834  17.887 -23.785  0.00  0.00     0.006 C 
ATOM     20  C   UNL d   1      32.781  17.536 -24.525  0.00  0.00     0.001 C 
ENDBRANCH   8  19
TORSDOF 3
ENDMDL
MODEL 4
REMARK VINA RESULT:      -1.2      2.293      3.812
REMARK  3 active torsions:
REMARK  status: ('A' for Active; 'I' for Inactive)
REMARK    1  A    between atoms: C_7  and  C_3 
REMARK       I    between atoms: N_10  and  C_7 
REMARK    2  A    between atoms: C_18  and  C_9 
REMARK    3  A    between atoms: C_12  and  N_10 
ROOT
ATOM      1  C   UNL d   1      32.910  22.759 -18.751  0.00  0.00     0.059 A 
ATOM      2  C   UNL d   1      32.714  23.559 -18.811  0.00  0.00     0.013 A 
ATOM      3  C   UNL d   1      32.756  22.615 -20.159  0.00  0.00     0.088 A 
ATOM      4  S   UNL d   1      32.931  22.288 -19.423  0.00  0.00    -0.075 SA
ATOM      5  S   UNL d   1      33.086  22.432 -18.015  0.00  0.00    -0.080 SA
ATOM      6  C   UNL d   1      32.559  23.415 -20.220  0.00  0.00     0.012 A 
ATOM      7  C   UNL d   1      32.868  23.702 -17.408  0.00  0.00     0.007 A 
ATOM      8  C   UNL d   1      33.064  22.902 -17.348  0.00  0.00     0.030 A 
ENDROOT
BRANCH   3   9
ATOM      9  C   UNL d   1      32.777  22.144 -20.832  0.00  0.00     0.285 C 
ATOM     10  N   UNL d   1      33.111  21.388 -20.797  0.00  0.00    -0.208 NA
ATOM     11  O   UNL d   1      32.465  22.424 -21.543  0.00  0.00    -0.265 OA
BRANCH  10  12
ATOM     12  C   UNL d   1      33.134  20.913 -21.472  0.00  0.00     0.085 A 
ATOM     13  C   UNL d   1      33.073  20.102 -21.398  0.00  0.00     0.019 A 
ATOM     14  C   UNL d   1      33.095  19.632 -22.070  0.00  0.00     0.002 A 
ATOM     15  C   UNL d   1      33.180  19.981 -22.823  0.00  0.00     0.000 A 
ATOM     16  C   UNL d   1      33.240  20.801 -22.883  0.00  0.00     0.002 A 
ATOM     17  C   UNL d   1      33.202  19.509 -23.501  0.00  0.00     0.000 C 
ATOM     18  C   UNL d   1      33.217  21.266 -22.212  0.00  0.00     0.019 A 
ENDBRANCH  10  12
ENDBRANCH   3   9
BRANCH   8  19
ATOM     19  C   UNL d   1      33.239  22.580 -16.607  0.00  0.00     0.006 C 
ATOM     20  C   UNL d   1      32.811  22.807 -15.946  0.00  0.00     0.001 C 
ENDBRANCH   8  19
TORSDOF 3
ENDMDL
MODEL 5
REMARK VINA RESULT:      -0.9      3.795      4.826
REMARK  3 active torsions:
REMARK  status: ('A' for Active; 'I' for Inactive)
REMARK    1  A    between atoms: C_7  and  C_3 
REMARK       I    between atoms: N_10  and  C_7 
REMARK    2  A    between atoms: C_18  and  C_9 
REMARK    3  A    between atoms: C_12  and  N_10 
ROOT
ATOM      1  C   UNL d   1      32.955  22.916 -18.903  0.00  0.00     0.059 A 
ATOM      2  C   UNL d   1      32.707  22.144 -18.749  0.00  0.00     0.013 A 
ATOM      3  C   UNL d   1      32.884  22.659 -20.302  0.00  0.00     0.088 A 
ATOM      4  S   UNL d   1      33.043  23.173 -19.678  0.00  0.00    -0.075 SA
ATOM      5  S   UNL d   1      33.113  23.431 -18.279  0.00  0.00    -0.080 SA
ATOM      6  C   UNL d   1      32.637  21.886 -20.147  0.00  0.00     0.012 A 
ATOM      7  C   UNL d   1      32.777  22.400 -17.355  0.00  0.00     0.007 A 
ATOM      8  C   UNL d   1      33.025  23.173 -17.509  0.00  0.00     0.030 A 
ENDROOT
BRANCH   3   9
ATOM      9  C   UNL d   1      32.973  22.916 -21.076  0.00  0.00     0.285 C 
ATOM     10  N   UNL d   1      32.865  22.387 -21.704  0.00  0.00    -0.208 NA
ATOM     11  O   UNL d   1      33.170  23.702 -21.232  0.00  0.00    -0.265 OA
BRANCH  10  12
ATOM     12  C   UNL d   1      32.953  22.643 -22.483  0.00  0.00     0.085 A 
ATOM     13  C   UNL d   1      32.863  23.435 -22.662  0.00  0.00     0.019 A 
ATOM     14  C   UNL d   1      32.952  23.686 -23.437  0.00  0.00     0.002 A 
ATOM     15  C   UNL d   1      33.132  23.137 -24.038  0.00  0.00     0.000 A 
ATOM     16  C   UNL d   1      33.220  22.341 -23.845  0.00  0.00     0.002 A 
ATOM     17  C   UNL d   1      33.222  23.389 -24.821  0.00  0.00     0.000 C 
ATOM     18  C   UNL d   1      33.132  22.093 -23.071  0.00  0.00     0.019 A 
ENDBRANCH  10  12
ENDBRANCH   3   9
BRANCH   8  19
ATOM     19  C   UNL d   1      33.182  23.683 -16.879  0.00  0.00     0.006 C 
ATOM     20  C   UNL d   1      33.151  23.410 -16.107  0.00  0.00     0.001 C 
ENDBRANCH   8  19
TORSDOF 3
ENDMDL
