MODEL 1
REMARK VINA RESULT:      -9.3      0.000      0.000
REMARK  4 active torsions:
REMARK  status: ('A' for Active; 'I' for Inactive)
REMARK    1  A    between atoms: S_10  and  C_1 
REMARK    2  A    between atoms: N_3  and  C_2 
REMARK    3  A    between atoms: S_4  and  C_9 
REMARK    4  A    between atoms: C_8  and  S_10 
ROOT
ATOM      1  C   UNL d   1      53.714  31.990  53.710  0.00  0.00     0.133 A 
ATOM      2  C   UNL d   1      53.765  31.169  53.825  0.00  0.00     0.035 A 
ATOM      3  C   UNL d   1      53.055  32.313  53.329  0.00  0.00     0.053 A 
ATOM      4  C   UNL d   1      53.157  30.674  53.558  0.00  0.00     0.086 A 
ATOM      5  C   UNL d   1      52.450  31.819  53.063  0.00  0.00     0.009 A 
ATOM      6  C   UNL d   1      52.498  31.001  53.176  0.00  0.00     0.012 A 
ENDROOT
BRANCH   3   7
ATOM      7  S   UNL d   1      53.003  33.129  53.213  0.00  0.00    -0.060 SA
BRANCH   7   8
ATOM      8  C   UNL d   1      52.286  33.469  52.981  0.00  0.00     0.141 A 
ATOM      9  N   UNL d   1      52.044  33.606  52.205  0.00  0.00    -0.232 NA
ATOM     10  C   UNL d   1      51.295  33.954  52.230  0.00  0.00     0.088 A 
ATOM     11  C   UNL d   1      50.787  34.209  51.639  0.00  0.00     0.020 A 
ATOM     12  C   UNL d   1      51.075  34.030  53.020  0.00  0.00     0.049 A 
ATOM     13  C   UNL d   1      50.059  34.540  51.835  0.00  0.00     0.002 A 
ATOM     14  C   UNL d   1      49.842  34.616  52.627  0.00  0.00     0.001 A 
ATOM     15  C   UNL d   1      50.351  34.360  53.217  0.00  0.00     0.008 A 
ATOM     16  S   UNL d   1      51.689  33.730  53.487  0.00  0.00    -0.060 SA
ENDBRANCH   7   8
ENDBRANCH   3   7
BRANCH   1  17
ATOM     17  N   UNL d   1      54.324  32.488  53.977  0.00  0.00    -0.113 N 
ATOM     18  O   UNL d   1      54.324  32.757  54.759  0.00  0.00    -0.532 OA
ATOM     19  O   UNL d   1      54.929  32.713  53.460  0.00  0.00    -0.532 OA
ENDBRANCH   1  17
BRANCH   4  20
ATOM     20  S   UNL d   1      53.207  29.858  53.671  0.00  0.00     0.191 S 
ATOM     21  O   UNL d   1      53.258  29.041  53.789  0.00  0.00    -0.222 OA
ATOM     22  O   UNL d   1      53.351  29.975  54.473  0.00  0.00    -0.222 OA
ATOM     23  C   UNL d   1      53.061  29.736  52.863  0.00  0.00     0.145 C 
ENDBRANCH   4  20
TORSDOF 4
ENDMDL
MODEL 2
REMARK VINA RESULT:      -8.5      2.082      4.138
REMARK  4 active torsions:
REMARK  status: ('A' for Active; 'I' for Inactive)
REMARK    1  A    between atoms: S_10  and  C_1 
REMARK    2  A    between atoms: N_3  and  C_2 
REMARK    3  A    between atoms: S_4  and  C_9 
REMARK    4  A    between atoms: C_8  and  S_10 
ROOT
ATOM      1  C   UNL d   1      52.133  34.359  53.126  0.00  0.00     0.133 A 
ATOM      2  C   UNL d   1      51.390  34.703  52.981  0.00  0.00     0.035 A 
ATOM      3  C   UNL d   1      52.200  33.539  53.204  0.00  0.00     0.053 A 
ATOM      4  C   UNL d   1      50.717  34.223  52.915  0.00  0.00     0.086 A 
ATOM      5  C   UNL d   1      51.529  33.063  53.138  0.00  0.00     0.009 A 
ATOM      6  C   UNL d   1      50.788  33.401  52.994  0.00  0.00     0.012 A 
ENDROOT
BRANCH   3   7
ATOM      7  S   UNL d   1      52.937  33.196  53.348  0.00  0.00    -0.060 SA
BRANCH   7   8
ATOM      8  C   UNL d   1      53.014  32.373  53.371  0.00  0.00     0.141 A 
ATOM      9  N   UNL d   1      52.847  31.854  52.752  0.00  0.00    -0.232 NA
ATOM     10  C   UNL d   1      53.001  31.086  53.017  0.00  0.00     0.088 A 
ATOM     11  C   UNL d   1      52.938  30.355  52.651  0.00  0.00     0.020 A 
ATOM     12  C   UNL d   1      53.262  31.132  53.796  0.00  0.00     0.049 A 
ATOM     13  C   UNL d   1      53.135  29.670  53.062  0.00  0.00     0.002 A 
ATOM     14  C   UNL d   1      53.396  29.719  53.842  0.00  0.00     0.001 A 
ATOM     15  C   UNL d   1      53.459  30.451  54.208  0.00  0.00     0.008 A 
ATOM     16  S   UNL d   1      53.270  31.931  54.018  0.00  0.00    -0.060 SA
ENDBRANCH   7   8
ENDBRANCH   3   7
BRANCH   1  17
ATOM     17  N   UNL d   1      52.809  34.838  53.192  0.00  0.00    -0.113 N 
ATOM     18  O   UNL d   1      53.036  35.130  53.931  0.00  0.00    -0.532 OA
ATOM     19  O   UNL d   1      53.252  35.022  52.518  0.00  0.00    -0.532 OA
ENDBRANCH   1  17
BRANCH   4  20
ATOM     20  S   UNL d   1      49.979  34.564  52.772  0.00  0.00     0.191 S 
ATOM     21  O   UNL d   1      49.240  34.906  52.632  0.00  0.00    -0.222 OA
ATOM     22  O   UNL d   1      49.953  34.842  53.546  0.00  0.00    -0.222 OA
ATOM     23  C   UNL d   1      50.003  34.284  51.991  0.00  0.00     0.145 C 
ENDBRANCH   4  20
TORSDOF 4
ENDMDL
MODEL 3
REMARK VINA RESULT:      -8.4      2.274      4.325
REMARK  4 active torsions:
REMARK  status: ('A' for Active; 'I' for Inactive)
REMARK    1  A    between atoms: S_10  and  C_1 
REMARK    2  A    between atoms: N_3  and  C_2 
REMARK    3  A    between atoms: S_4  and  C_9 
REMARK    4  A    between atoms: C_8  and  S_10 
ROOT
ATOM      1  C   UNL d   1      51.907  34.115  53.015  0.00  0.00     0.133 A 
ATOM      2  C   UNL d   1      52.123  34.799  53.435  0.00  0.00     0.035 A 
ATOM      3  C   UNL d   1      52.340  33.418  53.113  0.00  0.00     0.053 A 
ATOM      4  C   UNL d   1      52.771  34.781  53.951  0.00  0.00     0.086 A 
ATOM      5  C   UNL d   1      52.985  33.401  53.627  0.00  0.00     0.009 A 
ATOM      6  C   UNL d   1      53.202  34.080  54.047  0.00  0.00     0.012 A 
ENDROOT
BRANCH   3   7
ATOM      7  S   UNL d   1      52.126  32.737  52.696  0.00  0.00    -0.060 SA
BRANCH   7   8
ATOM      8  C   UNL d   1      52.441  32.003  52.912  0.00  0.00     0.141 A 
ATOM      9  N   UNL d   1      53.228  31.771  52.827  0.00  0.00    -0.232 NA
ATOM     10  C   UNL d   1      53.296  30.998  53.113  0.00  0.00     0.088 A 
ATOM     11  C   UNL d   1      53.935  30.487  53.170  0.00  0.00     0.020 A 
ATOM     12  C   UNL d   1      52.553  30.756  53.372  0.00  0.00     0.049 A 
ATOM     13  C   UNL d   1      53.833  29.734  53.485  0.00  0.00     0.002 A 
ATOM     14  C   UNL d   1      53.088  29.494  53.744  0.00  0.00     0.001 A 
ATOM     15  C   UNL d   1      52.449  30.006  53.687  0.00  0.00     0.008 A 
ATOM     16  S   UNL d   1      52.021  31.379  53.248  0.00  0.00    -0.060 SA
ENDBRANCH   7   8
ENDBRANCH   3   7
BRANCH   1  17
ATOM     17  N   UNL d   1      51.257  34.131  52.497  0.00  0.00    -0.113 N 
ATOM     18  O   UNL d   1      50.491  34.035  52.793  0.00  0.00    -0.532 OA
ATOM     19  O   UNL d   1      51.378  34.243  51.687  0.00  0.00    -0.532 OA
ENDBRANCH   1  17
BRANCH   4  20
ATOM     20  S   UNL d   1      52.986  35.460  54.368  0.00  0.00     0.191 S 
ATOM     21  O   UNL d   1      53.203  36.142  54.783  0.00  0.00    -0.222 OA
ATOM     22  O   UNL d   1      53.108  35.862  53.661  0.00  0.00    -0.222 OA
ATOM     23  C   UNL d   1      52.865  35.058  55.084  0.00  0.00     0.145 C 
ENDBRANCH   4  20
TORSDOF 4
ENDMDL
MODEL 4
REMARK VINA RESULT:      -8.3      1.309      2.435
REMARK  4 active torsions:
REMARK  status: ('A' for Active; 'I' for Inactive)
REMARK    1  A    between atoms: S_10  and  C_1 
REMARK    2  A    between atoms: N_3  and  C_2 
REMARK    3  A    between atoms: S_4  and  C_9 
REMARK    4  A    between atoms: C_8  and  S_10 
ROOT
ATOM      1  C   UNL d   1      53.762  32.260  53.948  0.00  0.00     0.133 A 
ATOM      2  C   UNL d   1      54.379  32.558  54.419  0.00  0.00     0.035 A 
ATOM      3  C   UNL d   1      53.163  32.765  53.686  0.00  0.00     0.053 A 
ATOM      4  C   UNL d   1      54.392  33.360  54.626  0.00  0.00     0.086 A 
ATOM      5  C   UNL d   1      53.176  33.563  53.894  0.00  0.00     0.009 A 
ATOM      6  C   UNL d   1      53.788  33.863  54.363  0.00  0.00     0.012 A 
ENDROOT
BRANCH   3   7
ATOM      7  S   UNL d   1      52.549  32.470  53.218  0.00  0.00    -0.060 SA
BRANCH   7   8
ATOM      8  C   UNL d   1      51.943  32.972  52.966  0.00  0.00     0.141 A 
ATOM      9  N   UNL d   1      51.910  33.367  52.242  0.00  0.00    -0.232 NA
ATOM     10  C   UNL d   1      51.210  33.805  52.224  0.00  0.00     0.088 A 
ATOM     11  C   UNL d   1      50.885  34.298  51.655  0.00  0.00     0.020 A 
ATOM     12  C   UNL d   1      50.812  33.681  52.934  0.00  0.00     0.049 A 
ATOM     13  C   UNL d   1      50.163  34.668  51.794  0.00  0.00     0.002 A 
ATOM     14  C   UNL d   1      49.767  34.543  52.506  0.00  0.00     0.001 A 
ATOM     15  C   UNL d   1      50.093  34.049  53.075  0.00  0.00     0.008 A 
ATOM     16  S   UNL d   1      51.266  33.164  53.396  0.00  0.00    -0.060 SA
ENDBRANCH   7   8
ENDBRANCH   3   7
BRANCH   1  17
ATOM     17  N   UNL d   1      53.748  31.456  53.739  0.00  0.00    -0.113 N 
ATOM     18  O   UNL d   1      53.380  30.907  54.236  0.00  0.00    -0.532 OA
ATOM     19  O   UNL d   1      54.103  31.206  53.034  0.00  0.00    -0.532 OA
ENDBRANCH   1  17
BRANCH   4  20
ATOM     20  S   UNL d   1      55.003  33.657  55.094  0.00  0.00     0.191 S 
ATOM     21  O   UNL d   1      55.618  33.954  55.560  0.00  0.00    -0.222 OA
ATOM     22  O   UNL d   1      55.500  33.679  54.438  0.00  0.00    -0.222 OA
ATOM     23  C   UNL d   1      54.505  33.636  55.758  0.00  0.00     0.145 C 
ENDBRANCH   4  20
TORSDOF 4
ENDMDL
MODEL 5
REMARK VINA RESULT:      -8.2      2.366      4.129
REMARK  4 active torsions:
REMARK  status: ('A' for Active; 'I' for Inactive)
REMARK    1  A    between atoms: S_10  and  C_1 
REMARK    2  A    between atoms: N_3  and  C_2 
REMARK    3  A    between atoms: S_4  and  C_9 
REMARK    4  A    between atoms: C_8  and  S_10 
ROOT
ATOM      1  C   UNL d   1      54.343  33.783  54.692  0.00  0.00     0.133 A 
ATOM      2  C   UNL d   1      53.937  34.501  54.790  0.00  0.00     0.035 A 
ATOM      3  C   UNL d   1      53.998  33.171  54.257  0.00  0.00     0.053 A 
ATOM      4  C   UNL d   1      53.186  34.603  54.453  0.00  0.00     0.086 A 
ATOM      5  C   UNL d   1      53.251  33.273  53.922  0.00  0.00     0.009 A 
ATOM      6  C   UNL d   1      52.844  33.986  54.018  0.00  0.00     0.012 A 
ENDROOT
BRANCH   3   7
ATOM      7  S   UNL d   1      54.400  32.456  54.159  0.00  0.00    -0.060 SA
BRANCH   7   8
ATOM      8  C   UNL d   1      53.986  31.773  53.944  0.00  0.00     0.141 A 
ATOM      9  N   UNL d   1      53.748  31.171  54.454  0.00  0.00    -0.232 NA
ATOM     10  C   UNL d   1      53.353  30.600  54.005  0.00  0.00     0.088 A 
ATOM     11  C   UNL d   1      53.000  29.889  54.209  0.00  0.00     0.020 A 
ATOM     12  C   UNL d   1      53.348  30.851  53.221  0.00  0.00     0.049 A 
ATOM     13  C   UNL d   1      52.640  29.427  53.630  0.00  0.00     0.002 A 
ATOM     14  C   UNL d   1      52.637  29.680  52.845  0.00  0.00     0.001 A 
ATOM     15  C   UNL d   1      52.991  30.392  52.643  0.00  0.00     0.008 A 
ATOM     16  S   UNL d   1      53.741  31.579  53.181  0.00  0.00    -0.060 SA
ENDBRANCH   7   8
ENDBRANCH   3   7
BRANCH   1  17
ATOM     17  N   UNL d   1      55.095  33.680  55.029  0.00  0.00    -0.113 N 
ATOM     18  O   UNL d   1      55.773  33.823  54.577  0.00  0.00    -0.532 OA
ATOM     19  O   UNL d   1      55.164  33.435  55.816  0.00  0.00    -0.532 OA
ENDBRANCH   1  17
BRANCH   4  20
ATOM     20  S   UNL d   1      52.782  35.316  54.550  0.00  0.00     0.191 S 
ATOM     21  O   UNL d   1      52.378  36.030  54.651  0.00  0.00    -0.222 OA
ATOM     22  O   UNL d   1      52.946  35.304  55.356  0.00  0.00    -0.222 OA
ATOM     23  C   UNL d   1      52.615  35.332  53.737  0.00  0.00     0.145 C 
ENDBRANCH   4  20
TORSDOF 4
ENDMDL
