MODEL 1
REMARK VINA RESULT:      -0.9      0.000      0.000
REMARK  5 active torsions:
REMARK  status: ('A' for Active; 'I' for Inactive)
REMARK    1  A    between atoms: C_11  and  C_1 
REMARK    2  A    between atoms: C_12  and  N_3 
REMARK    3  A    between atoms: C_7  and  S_13 
REMARK    4  A    between atoms: C_14  and  C_11 
REMARK    5  A    between atoms: S_13  and  C_14 
ROOT
ATOM      1  C   UNL d   1      57.286  -0.214  31.094  0.00  0.00     0.057 A 
ATOM      2  C   UNL d   1      57.506  -0.934  30.759  0.00  0.00     0.067 A 
ATOM      3  N   UNL d   1      58.140  -0.798  30.265  0.00  0.00    -0.306 N 
ATOM      4  C   UNL d   1      58.318  -0.003  30.286  0.00  0.00     0.064 A 
ATOM      5  C   UNL d   1      57.794   0.369  30.798  0.00  0.00     0.022 A 
ATOM      6  C   UNL d   1      57.154  -1.665  30.896  0.00  0.00     0.019 C 
ATOM      7  C   UNL d   1      58.733   0.682  30.088  0.00  0.00     0.019 C 
ENDROOT
BRANCH   1   8
ATOM      8  C   UNL d   1      56.836   0.298  31.574  0.00  0.00     0.204 C 
ATOM      9  O   UNL d   1      56.164   0.682  31.265  0.00  0.00    -0.286 OA
BRANCH   8  10
ATOM     10  C   UNL d   1      56.710   0.664  32.305  0.00  0.00     0.080 C 
BRANCH  10  11
ATOM     11  S   UNL d   1      55.998   0.546  32.705  0.00  0.00    -0.043 SA
BRANCH  11  12
ATOM     12  C   UNL d   1      55.971   0.593  33.531  0.00  0.00     0.233 A 
ATOM     13  N   UNL d   1      55.288   0.596  33.984  0.00  0.00    -0.029 NA
ATOM     14  C   UNL d   1      55.516   0.650  34.770  0.00  0.00     0.788 A 
ATOM     15  N   UNL d   1      55.011   0.670  35.422  0.00  0.00     0.064 N 
ATOM     16  N   UNL d   1      56.336   0.680  34.792  0.00  0.00     0.050 NA
ATOM     17  N   UNL d   1      56.627   0.645  34.019  0.00  0.00    -0.105 NA
ENDBRANCH  11  12
ENDBRANCH  10  11
ENDBRANCH   8  10
ENDBRANCH   1   8
BRANCH   3  18
ATOM     18  C   UNL d   1      58.540  -1.375  29.812  0.00  0.00     0.064 A 
ATOM     19  C   UNL d   1      58.153  -1.733  29.223  0.00  0.00     0.020 A 
ATOM     20  C   UNL d   1      58.554  -2.309  28.773  0.00  0.00     0.031 A 
ATOM     21  C   UNL d   1      59.340  -2.500  28.942  0.00  0.00     0.140 A 
ATOM     22  C   UNL d   1      59.721  -2.119  29.555  0.00  0.00     0.031 A 
ATOM     23  F   UNL d   1      59.738  -3.071  28.497  0.00  0.00    -0.204 F 
ATOM     24  C   UNL d   1      59.326  -1.553  29.996  0.00  0.00     0.020 A 
ENDBRANCH   3  18
TORSDOF 5
ENDMDL
MODEL 2
REMARK VINA RESULT:       2.1      1.518      1.808
REMARK  5 active torsions:
REMARK  status: ('A' for Active; 'I' for Inactive)
REMARK    1  A    between atoms: C_11  and  C_1 
REMARK    2  A    between atoms: C_12  and  N_3 
REMARK    3  A    between atoms: C_7  and  S_13 
REMARK    4  A    between atoms: C_14  and  C_11 
REMARK    5  A    between atoms: S_13  and  C_14 
ROOT
ATOM      1  C   UNL d   1      57.533   0.282  31.628  0.00  0.00     0.057 A 
ATOM      2  C   UNL d   1      58.326   0.246  31.407  0.00  0.00     0.067 A 
ATOM      3  N   UNL d   1      58.366   0.342  30.598  0.00  0.00    -0.306 N 
ATOM      4  C   UNL d   1      57.608   0.436  30.312  0.00  0.00     0.064 A 
ATOM      5  C   UNL d   1      57.083   0.401  30.943  0.00  0.00     0.022 A 
ATOM      6  C   UNL d   1      58.969   0.134  31.909  0.00  0.00     0.019 C 
ATOM      7  C   UNL d   1      57.030   0.552  29.735  0.00  0.00     0.019 C 
ENDROOT
BRANCH   1   8
ATOM      8  C   UNL d   1      56.886   0.269  32.155  0.00  0.00     0.204 C 
ATOM      9  O   UNL d   1      56.186   0.681  31.971  0.00  0.00    -0.286 OA
BRANCH   8  10
ATOM     10  C   UNL d   1      56.551   0.014  32.866  0.00  0.00     0.080 C 
BRANCH  10  11
ATOM     11  S   UNL d   1      55.751   0.152  33.015  0.00  0.00    -0.043 SA
BRANCH  11  12
ATOM     12  C   UNL d   1      55.455   0.098  33.786  0.00  0.00     0.233 A 
ATOM     13  N   UNL d   1      55.656   0.594  34.407  0.00  0.00    -0.029 NA
ATOM     14  C   UNL d   1      55.237   0.344  35.066  0.00  0.00     0.788 A 
ATOM     15  N   UNL d   1      55.266   0.681  35.817  0.00  0.00     0.064 N 
ATOM     16  N   UNL d   1      54.782  -0.303  34.844  0.00  0.00     0.050 NA
ATOM     17  N   UNL d   1      54.914  -0.462  34.043  0.00  0.00    -0.105 NA
ENDBRANCH  11  12
ENDBRANCH  10  11
ENDBRANCH   8  10
ENDBRANCH   1   8
BRANCH   3  18
ATOM     18  C   UNL d   1      59.064   0.342  30.140  0.00  0.00     0.064 A 
ATOM     19  C   UNL d   1      59.037   0.062  29.401  0.00  0.00     0.020 A 
ATOM     20  C   UNL d   1      59.735   0.064  28.946  0.00  0.00     0.031 A 
ATOM     21  C   UNL d   1      60.441   0.353  29.263  0.00  0.00     0.140 A 
ATOM     22  C   UNL d   1      60.448   0.638  30.029  0.00  0.00     0.031 A 
ATOM     23  F   UNL d   1      61.133   0.356  28.813  0.00  0.00    -0.204 F 
ATOM     24  C   UNL d   1      59.761   0.636  30.475  0.00  0.00     0.020 A 
ENDBRANCH   3  18
TORSDOF 5
ENDMDL
