MODEL 1
REMARK VINA RESULT:      -7.8      0.000      0.000
REMARK  7 active torsions:
REMARK  status: ('A' for Active; 'I' for Inactive)
REMARK    1  A    between atoms: C_7  and  C_1 
REMARK    2  A    between atoms: C_8  and  C_3 
REMARK    3  A    between atoms: O_17  and  C_7 
REMARK    4  A    between atoms: N_11  and  C_10 
REMARK    5  A    between atoms: C_19  and  N_11 
REMARK    6  A    between atoms: C_20  and  N_11 
REMARK    7  A    between atoms: C_21  and  O_17 
ROOT
ATOM      1  C   UNL d   1      53.493  33.906  54.312  0.00  0.00     0.099 A 
ATOM      2  C   UNL d   1      53.672  34.669  54.524  0.00  0.00     0.093 A 
ATOM      3  C   UNL d   1      54.035  33.285  54.459  0.00  0.00     0.093 A 
ATOM      4  C   UNL d   1      54.937  34.209  55.033  0.00  0.00     0.369 A 
ATOM      5  N   UNL d   1      54.395  34.830  54.886  0.00  0.00    -0.191 NA
ATOM      6  N   UNL d   1      54.748  33.437  54.815  0.00  0.00    -0.191 NA
ATOM      7  O   UNL d   1      55.670  34.380  55.401  0.00  0.00    -0.242 OA
ATOM      8  C   UNL d   1      53.137  35.282  54.379  0.00  0.00     0.021 C 
ENDROOT
BRANCH   3   9
ATOM      9  C   UNL d   1      53.845  32.513  54.241  0.00  0.00     0.018 A 
ATOM     10  C   UNL d   1      53.439  32.023  54.766  0.00  0.00     0.003 A 
ATOM     11  C   UNL d   1      53.250  31.251  54.547  0.00  0.00     0.018 A 
ATOM     12  C   UNL d   1      53.459  30.956  53.808  0.00  0.00     0.064 A 
ATOM     13  C   UNL d   1      53.865  31.445  53.283  0.00  0.00     0.018 A 
ATOM     14  C   UNL d   1      54.054  32.217  53.502  0.00  0.00     0.003 A 
BRANCH  12  15
ATOM     15  N   UNL d   1      53.260  30.163  53.595  0.00  0.00    -0.304 N 
BRANCH  15  16
ATOM     16  C   UNL d   1      53.678  29.532  53.906  0.00  0.00     0.080 C 
ATOM     17  C   UNL d   1      53.289  28.939  54.320  0.00  0.00     0.021 C 
ENDBRANCH  15  16
BRANCH  15  18
ATOM     18  C   UNL d   1      52.646  30.039  53.074  0.00  0.00     0.080 C 
ATOM     19  C   UNL d   1      52.735  29.495  52.474  0.00  0.00     0.021 C 
ENDBRANCH  15  18
ENDBRANCH  12  15
ENDBRANCH   3   9
BRANCH   1  20
ATOM     20  C   UNL d   1      52.749  33.747  53.941  0.00  0.00     0.303 C 
ATOM     21  O   UNL d   1      52.134  33.421  54.384  0.00  0.00    -0.259 OA
BRANCH  20  22
ATOM     22  O   UNL d   1      52.639  33.913  53.143  0.00  0.00    -0.271 OA
BRANCH  22  23
ATOM     23  C   UNL d   1      51.881  34.064  52.854  0.00  0.00     0.126 C 
ATOM     24  C   UNL d   1      51.756  34.138  52.041  0.00  0.00     0.029 C 
ENDBRANCH  22  23
ENDBRANCH  20  22
ENDBRANCH   1  20
TORSDOF 7
ENDMDL
MODEL 2
REMARK VINA RESULT:      -7.8      1.705      3.765
REMARK  7 active torsions:
REMARK  status: ('A' for Active; 'I' for Inactive)
REMARK    1  A    between atoms: C_7  and  C_1 
REMARK    2  A    between atoms: C_8  and  C_3 
REMARK    3  A    between atoms: O_17  and  C_7 
REMARK    4  A    between atoms: N_11  and  C_10 
REMARK    5  A    between atoms: C_19  and  N_11 
REMARK    6  A    between atoms: C_20  and  N_11 
REMARK    7  A    between atoms: C_21  and  O_17 
ROOT
ATOM      1  C   UNL d   1      53.397  33.002  53.734  0.00  0.00     0.099 A 
ATOM      2  C   UNL d   1      54.099  32.827  54.103  0.00  0.00     0.093 A 
ATOM      3  C   UNL d   1      52.971  33.694  53.935  0.00  0.00     0.093 A 
ATOM      4  C   UNL d   1      53.965  34.032  54.881  0.00  0.00     0.369 A 
ATOM      5  N   UNL d   1      54.391  33.340  54.680  0.00  0.00    -0.191 NA
ATOM      6  N   UNL d   1      53.253  34.202  54.501  0.00  0.00    -0.191 NA
ATOM      7  O   UNL d   1      54.268  34.547  55.467  0.00  0.00    -0.242 OA
ATOM      8  C   UNL d   1      54.520  32.145  53.905  0.00  0.00     0.021 C 
ENDROOT
BRANCH   3   9
ATOM      9  C   UNL d   1      52.259  33.864  53.555  0.00  0.00     0.018 A 
ATOM     10  C   UNL d   1      52.253  34.336  52.879  0.00  0.00     0.003 A 
ATOM     11  C   UNL d   1      51.541  34.505  52.500  0.00  0.00     0.018 A 
ATOM     12  C   UNL d   1      50.828  34.209  52.785  0.00  0.00     0.064 A 
ATOM     13  C   UNL d   1      50.833  33.737  53.461  0.00  0.00     0.018 A 
ATOM     14  C   UNL d   1      51.545  33.567  53.840  0.00  0.00     0.003 A 
BRANCH  12  15
ATOM     15  N   UNL d   1      50.104  34.389  52.389  0.00  0.00    -0.304 N 
BRANCH  15  16
ATOM     16  C   UNL d   1      50.049  34.322  51.574  0.00  0.00     0.080 C 
ATOM     17  C   UNL d   1      49.330  34.142  51.220  0.00  0.00     0.021 C 
ENDBRANCH  15  16
BRANCH  15  18
ATOM     18  C   UNL d   1      49.463  34.629  52.831  0.00  0.00     0.080 C 
ATOM     19  C   UNL d   1      49.030  35.275  52.588  0.00  0.00     0.021 C 
ENDBRANCH  15  18
ENDBRANCH  12  15
ENDBRANCH   3   9
BRANCH   1  20
ATOM     20  C   UNL d   1      53.102  32.473  53.143  0.00  0.00     0.303 C 
ATOM     21  O   UNL d   1      53.168  32.676  52.346  0.00  0.00    -0.259 OA
BRANCH  20  22
ATOM     22  O   UNL d   1      52.750  31.762  53.359  0.00  0.00    -0.271 OA
BRANCH  22  23
ATOM     23  C   UNL d   1      52.762  31.122  52.840  0.00  0.00     0.126 C 
ATOM     24  C   UNL d   1      52.458  30.391  53.078  0.00  0.00     0.029 C 
ENDBRANCH  22  23
ENDBRANCH  20  22
ENDBRANCH   1  20
TORSDOF 7
ENDMDL
MODEL 3
REMARK VINA RESULT:      -7.5      1.994      4.177
REMARK  7 active torsions:
REMARK  status: ('A' for Active; 'I' for Inactive)
REMARK    1  A    between atoms: C_7  and  C_1 
REMARK    2  A    between atoms: C_8  and  C_3 
REMARK    3  A    between atoms: O_17  and  C_7 
REMARK    4  A    between atoms: N_11  and  C_10 
REMARK    5  A    between atoms: C_19  and  N_11 
REMARK    6  A    between atoms: C_20  and  N_11 
REMARK    7  A    between atoms: C_21  and  O_17 
ROOT
ATOM      1  C   UNL d   1      53.077  33.072  53.424  0.00  0.00     0.099 A 
ATOM      2  C   UNL d   1      53.732  32.624  53.596  0.00  0.00     0.093 A 
ATOM      3  C   UNL d   1      52.401  32.722  53.077  0.00  0.00     0.093 A 
ATOM      4  C   UNL d   1      53.049  31.467  53.079  0.00  0.00     0.369 A 
ATOM      5  N   UNL d   1      53.726  31.817  53.426  0.00  0.00    -0.191 NA
ATOM      6  N   UNL d   1      52.389  31.929  52.907  0.00  0.00    -0.191 NA
ATOM      7  O   UNL d   1      53.051  30.647  52.909  0.00  0.00    -0.242 OA
ATOM      8  C   UNL d   1      54.400  32.969  53.939  0.00  0.00     0.021 C 
ENDROOT
BRANCH   3   9
ATOM      9  C   UNL d   1      51.740  33.186  52.906  0.00  0.00     0.018 A 
ATOM     10  C   UNL d   1      51.084  33.169  53.405  0.00  0.00     0.003 A 
ATOM     11  C   UNL d   1      50.423  33.632  53.233  0.00  0.00     0.018 A 
ATOM     12  C   UNL d   1      50.406  34.115  52.566  0.00  0.00     0.064 A 
ATOM     13  C   UNL d   1      51.062  34.131  52.068  0.00  0.00     0.018 A 
ATOM     14  C   UNL d   1      51.722  33.669  52.239  0.00  0.00     0.003 A 
BRANCH  12  15
ATOM     15  N   UNL d   1      49.724  34.585  52.400  0.00  0.00    -0.304 N 
BRANCH  15  16
ATOM     16  C   UNL d   1      49.481  34.705  51.627  0.00  0.00     0.080 C 
ATOM     17  C   UNL d   1      48.685  34.664  51.430  0.00  0.00     0.021 C 
ENDBRANCH  15  16
BRANCH  15  18
ATOM     18  C   UNL d   1      49.313  34.917  53.021  0.00  0.00     0.080 C 
ATOM     19  C   UNL d   1      48.926  35.624  52.911  0.00  0.00     0.021 C 
ENDBRANCH  15  18
ENDBRANCH  12  15
ENDBRANCH   3   9
BRANCH   1  20
ATOM     20  C   UNL d   1      53.088  33.900  53.601  0.00  0.00     0.303 C 
ATOM     21  O   UNL d   1      53.226  34.443  52.996  0.00  0.00    -0.259 OA
BRANCH  20  22
ATOM     22  O   UNL d   1      52.963  34.163  54.370  0.00  0.00    -0.271 OA
BRANCH  22  23
ATOM     23  C   UNL d   1      53.276  34.885  54.616  0.00  0.00     0.126 C 
ATOM     24  C   UNL d   1      52.993  35.246  55.302  0.00  0.00     0.029 C 
ENDBRANCH  22  23
ENDBRANCH  20  22
ENDBRANCH   1  20
TORSDOF 7
ENDMDL
MODEL 4
REMARK VINA RESULT:      -6.8      1.371      2.316
REMARK  7 active torsions:
REMARK  status: ('A' for Active; 'I' for Inactive)
REMARK    1  A    between atoms: C_7  and  C_1 
REMARK    2  A    between atoms: C_8  and  C_3 
REMARK    3  A    between atoms: O_17  and  C_7 
REMARK    4  A    between atoms: N_11  and  C_10 
REMARK    5  A    between atoms: C_19  and  N_11 
REMARK    6  A    between atoms: C_20  and  N_11 
REMARK    7  A    between atoms: C_21  and  O_17 
ROOT
ATOM      1  C   UNL d   1      52.737  33.842  53.531  0.00  0.00     0.099 A 
ATOM      2  C   UNL d   1      52.593  34.630  53.401  0.00  0.00     0.093 A 
ATOM      3  C   UNL d   1      52.461  33.264  52.992  0.00  0.00     0.093 A 
ATOM      4  C   UNL d   1      51.894  34.281  52.191  0.00  0.00     0.369 A 
ATOM      5  N   UNL d   1      52.170  34.859  52.730  0.00  0.00    -0.191 NA
ATOM      6  N   UNL d   1      52.045  33.483  52.330  0.00  0.00    -0.191 NA
ATOM      7  O   UNL d   1      51.466  34.522  51.513  0.00  0.00    -0.242 OA
ATOM      8  C   UNL d   1      52.865  35.200  53.933  0.00  0.00     0.021 C 
ENDROOT
BRANCH   3   9
ATOM      9  C   UNL d   1      52.612  32.465  53.132  0.00  0.00     0.018 A 
ATOM     10  C   UNL d   1      52.053  32.001  53.522  0.00  0.00     0.003 A 
ATOM     11  C   UNL d   1      52.204  31.203  53.661  0.00  0.00     0.018 A 
ATOM     12  C   UNL d   1      52.909  30.855  53.416  0.00  0.00     0.064 A 
ATOM     13  C   UNL d   1      53.468  31.319  53.026  0.00  0.00     0.018 A 
ATOM     14  C   UNL d   1      53.317  32.117  52.886  0.00  0.00     0.003 A 
BRANCH  12  15
ATOM     15  N   UNL d   1      53.054  30.037  53.564  0.00  0.00    -0.304 N 
BRANCH  15  16
ATOM     16  C   UNL d   1      53.210  29.773  54.324  0.00  0.00     0.080 C 
ATOM     17  C   UNL d   1      53.589  29.055  54.444  0.00  0.00     0.021 C 
ENDBRANCH  15  16
BRANCH  15  18
ATOM     18  C   UNL d   1      53.035  29.514  52.938  0.00  0.00     0.080 C 
ATOM     19  C   UNL d   1      52.518  28.886  52.959  0.00  0.00     0.021 C 
ENDBRANCH  15  18
ENDBRANCH  12  15
ENDBRANCH   3   9
BRANCH   1  20
ATOM     20  C   UNL d   1      53.171  33.612  54.220  0.00  0.00     0.303 C 
ATOM     21  O   UNL d   1      52.765  33.338  54.884  0.00  0.00    -0.259 OA
BRANCH  20  22
ATOM     22  O   UNL d   1      53.991  33.659  54.230  0.00  0.00    -0.271 OA
BRANCH  22  23
ATOM     23  C   UNL d   1      54.393  33.720  54.948  0.00  0.00     0.126 C 
ATOM     24  C   UNL d   1      55.218  33.707  54.963  0.00  0.00     0.029 C 
ENDBRANCH  22  23
ENDBRANCH  20  22
ENDBRANCH   1  20
TORSDOF 7
ENDMDL
MODEL 5
REMARK VINA RESULT:      -5.8      1.447      3.911
REMARK  7 active torsions:
REMARK  status: ('A' for Active; 'I' for Inactive)
REMARK    1  A    between atoms: C_7  and  C_1 
REMARK    2  A    between atoms: C_8  and  C_3 
REMARK    3  A    between atoms: O_17  and  C_7 
REMARK    4  A    between atoms: N_11  and  C_10 
REMARK    5  A    between atoms: C_19  and  N_11 
REMARK    6  A    between atoms: C_20  and  N_11 
REMARK    7  A    between atoms: C_21  and  O_17 
ROOT
ATOM      1  C   UNL d   1      52.802  30.767  53.367  0.00  0.00     0.099 A 
ATOM      2  C   UNL d   1      52.494  30.044  53.165  0.00  0.00     0.093 A 
ATOM      3  C   UNL d   1      53.408  30.826  53.942  0.00  0.00     0.093 A 
ATOM      4  C   UNL d   1      53.387  29.422  54.107  0.00  0.00     0.369 A 
ATOM      5  N   UNL d   1      52.782  29.364  53.532  0.00  0.00    -0.191 NA
ATOM      6  N   UNL d   1      53.696  30.160  54.307  0.00  0.00    -0.191 NA
ATOM      7  O   UNL d   1      53.675  28.727  54.475  0.00  0.00    -0.242 OA
ATOM      8  C   UNL d   1      51.896  29.986  52.598  0.00  0.00     0.021 C 
ENDROOT
BRANCH   3   9
ATOM      9  C   UNL d   1      53.716  31.565  54.142  0.00  0.00     0.018 A 
ATOM     10  C   UNL d   1      53.533  31.905  54.870  0.00  0.00     0.003 A 
ATOM     11  C   UNL d   1      53.841  32.644  55.069  0.00  0.00     0.018 A 
ATOM     12  C   UNL d   1      54.333  33.052  54.551  0.00  0.00     0.064 A 
ATOM     13  C   UNL d   1      54.517  32.711  53.823  0.00  0.00     0.018 A 
ATOM     14  C   UNL d   1      54.209  31.973  53.624  0.00  0.00     0.003 A 
BRANCH  12  15
ATOM     15  N   UNL d   1      54.644  33.807  54.765  0.00  0.00    -0.304 N 
BRANCH  15  16
ATOM     16  C   UNL d   1      54.293  34.494  54.488  0.00  0.00     0.080 C 
ATOM     17  C   UNL d   1      53.865  34.976  54.996  0.00  0.00     0.021 C 
ENDBRANCH  15  16
BRANCH  15  18
ATOM     18  C   UNL d   1      55.297  33.841  55.251  0.00  0.00     0.080 C 
ATOM     19  C   UNL d   1      55.931  34.304  55.037  0.00  0.00     0.021 C 
ENDBRANCH  15  18
ENDBRANCH  12  15
ENDBRANCH   3   9
BRANCH   1  20
ATOM     20  C   UNL d   1      52.503  31.462  52.988  0.00  0.00     0.303 C 
ATOM     21  O   UNL d   1      52.879  31.751  52.313  0.00  0.00    -0.259 OA
BRANCH  20  22
ATOM     22  O   UNL d   1      51.843  31.848  53.289  0.00  0.00    -0.271 OA
BRANCH  22  23
ATOM     23  C   UNL d   1      51.424  32.379  52.817  0.00  0.00     0.126 C 
ATOM     24  C   UNL d   1      50.856  32.874  53.155  0.00  0.00     0.029 C 
ENDBRANCH  22  23
ENDBRANCH  20  22
ENDBRANCH   1  20
TORSDOF 7
ENDMDL
MODEL 6
REMARK VINA RESULT:      -5.2      1.765      4.239
REMARK  7 active torsions:
REMARK  status: ('A' for Active; 'I' for Inactive)
REMARK    1  A    between atoms: C_7  and  C_1 
REMARK    2  A    between atoms: C_8  and  C_3 
REMARK    3  A    between atoms: O_17  and  C_7 
REMARK    4  A    between atoms: N_11  and  C_10 
REMARK    5  A    between atoms: C_19  and  N_11 
REMARK    6  A    between atoms: C_20  and  N_11 
REMARK    7  A    between atoms: C_21  and  O_17 
ROOT
ATOM      1  C   UNL d   1      53.394  31.213  53.488  0.00  0.00     0.099 A 
ATOM      2  C   UNL d   1      53.779  30.503  53.573  0.00  0.00     0.093 A 
ATOM      3  C   UNL d   1      52.601  31.239  53.221  0.00  0.00     0.093 A 
ATOM      4  C   UNL d   1      52.588  29.829  53.127  0.00  0.00     0.369 A 
ATOM      5  N   UNL d   1      53.380  29.803  53.394  0.00  0.00    -0.191 NA
ATOM      6  N   UNL d   1      52.204  30.554  53.043  0.00  0.00    -0.191 NA
ATOM      7  O   UNL d   1      52.190  29.114  52.947  0.00  0.00    -0.242 OA
ATOM      8  C   UNL d   1      54.561  30.478  53.837  0.00  0.00     0.021 C 
ENDROOT
BRANCH   3   9
ATOM      9  C   UNL d   1      52.218  31.965  53.138  0.00  0.00     0.018 A 
ATOM     10  C   UNL d   1      52.393  32.452  52.496  0.00  0.00     0.003 A 
ATOM     11  C   UNL d   1      52.009  33.177  52.413  0.00  0.00     0.018 A 
ATOM     12  C   UNL d   1      51.450  33.428  52.963  0.00  0.00     0.064 A 
ATOM     13  C   UNL d   1      51.276  32.940  53.604  0.00  0.00     0.018 A 
ATOM     14  C   UNL d   1      51.659  32.215  53.688  0.00  0.00     0.003 A 
BRANCH  12  15
ATOM     15  N   UNL d   1      51.064  34.172  52.868  0.00  0.00    -0.304 N 
BRANCH  15  16
ATOM     16  C   UNL d   1      51.192  34.778  53.405  0.00  0.00     0.080 C 
ATOM     17  C   UNL d   1      51.852  35.262  53.336  0.00  0.00     0.021 C 
ENDBRANCH  15  16
BRANCH  15  18
ATOM     18  C   UNL d   1      50.562  34.277  52.234  0.00  0.00     0.080 C 
ATOM     19  C   UNL d   1      49.857  34.670  52.344  0.00  0.00     0.021 C 
ENDBRANCH  15  18
ENDBRANCH  12  15
ENDBRANCH   3   9
BRANCH   1  20
ATOM     20  C   UNL d   1      53.807  31.928  53.673  0.00  0.00     0.303 C 
ATOM     21  O   UNL d   1      54.168  32.358  53.069  0.00  0.00    -0.259 OA
BRANCH  20  22
ATOM     22  O   UNL d   1      53.849  32.195  54.450  0.00  0.00    -0.271 OA
BRANCH  22  23
ATOM     23  C   UNL d   1      54.432  32.736  54.670  0.00  0.00     0.126 C 
ATOM     24  C   UNL d   1      54.406  33.091  55.415  0.00  0.00     0.029 C 
ENDBRANCH  22  23
ENDBRANCH  20  22
ENDBRANCH   1  20
TORSDOF 7
ENDMDL
