MODEL 1
REMARK VINA RESULT:      85.1      0.000      0.000
REMARK  6 active torsions:
REMARK  status: ('A' for Active; 'I' for Inactive)
REMARK    1  A    between atoms: C_10  and  C_2 
REMARK    2  A    between atoms: C_14  and  N_3 
REMARK    3  A    between atoms: C_15  and  C_4 
REMARK    4  A    between atoms: N_5  and  C_9 
REMARK       I    between atoms: C_7  and  N_8 
REMARK    5  A    between atoms: C_13  and  C_7 
REMARK    6  A    between atoms: N_8  and  C_10 
ROOT
ATOM      1  N   UNL d   1     -55.570-102.655 -42.943  0.00  0.00    -0.165 NA
ATOM      2  C   UNL d   1     -54.981-101.371 -43.188  0.00  0.00     0.071 A 
ATOM      3  N   UNL d   1     -55.188-101.871 -41.852  0.00  0.00    -0.228 N 
ATOM      4  C   UNL d   1     -55.304-102.061 -43.463  0.00  0.00     0.105 A 
ATOM      5  C   UNL d   1     -54.922-101.276 -42.373  0.00  0.00     0.105 A 
ENDROOT
BRANCH   2   6
ATOM      6  C   UNL d   1     -54.712-100.767 -43.717  0.00  0.00     0.168 C 
BRANCH   6   7
ATOM      7  N   UNL d   1     -55.238-100.227 -44.056  0.00  0.00    -0.362 NA
ATOM      8  C   UNL d   1     -55.756 -99.691 -44.397  0.00  0.00     0.328 C 
ATOM      9  O   UNL d   1     -55.538 -99.260 -45.066  0.00  0.00    -0.251 OA
BRANCH   8  10
ATOM     10  C   UNL d   1     -56.503 -99.582 -44.065  0.00  0.00     0.070 A 
ATOM     11  C   UNL d   1     -57.056-100.197 -44.088  0.00  0.00     0.008 A 
ATOM     12  C   UNL d   1     -57.810-100.091 -43.755  0.00  0.00     0.024 A 
ATOM     13  C   UNL d   1     -58.004 -99.376 -43.405  0.00  0.00     0.127 A 
ATOM     14  C   UNL d   1     -57.457 -98.757 -43.379  0.00  0.00     0.024 A 
ATOM     15  C   UNL d   1     -56.696 -98.867 -43.716  0.00  0.00     0.008 A 
BRANCH  13  16
ATOM     16  N   UNL d   1     -58.753 -99.267 -43.072  0.00  0.00    -0.114 N 
ATOM     17  O   UNL d   1     -58.920 -99.607 -42.339  0.00  0.00    -0.532 OA
ATOM     18  O   UNL d   1     -59.325 -98.827 -43.468  0.00  0.00    -0.532 OA
ENDBRANCH  13  16
ENDBRANCH   8  10
ENDBRANCH   6   7
ENDBRANCH   2   6
BRANCH   4  19
ATOM     19  C   UNL d   1     -55.366-102.162 -44.287  0.00  0.00     0.019 A 
ATOM     20  C   UNL d   1     -55.841-102.773 -44.562  0.00  0.00     0.002 A 
ATOM     21  C   UNL d   1     -55.907-102.879 -45.377  0.00  0.00     0.000 A 
ATOM     22  C   UNL d   1     -55.490-102.364 -45.907  0.00  0.00     0.000 A 
ATOM     23  C   UNL d   1     -55.021-101.761 -45.618  0.00  0.00     0.000 A 
ATOM     24  C   UNL d   1     -54.950-101.649 -44.816  0.00  0.00     0.002 A 
ENDBRANCH   4  19
BRANCH   3  25
ATOM     25  C   UNL d   1     -55.216-101.964 -41.025  0.00  0.00     0.083 A 
ATOM     26  C   UNL d   1     -55.732-102.535 -40.675  0.00  0.00     0.019 A 
ATOM     27  C   UNL d   1     -55.763-102.631 -39.856  0.00  0.00     0.002 A 
ATOM     28  C   UNL d   1     -55.283-102.161 -39.386  0.00  0.00     0.000 A 
ATOM     29  C   UNL d   1     -54.773-101.595 -39.746  0.00  0.00     0.002 A 
ATOM     30  C   UNL d   1     -54.740-101.497 -40.562  0.00  0.00     0.019 A 
ENDBRANCH   3  25
TORSDOF 6
ENDMDL
