MODEL 1
REMARK VINA RESULT:      -3.4      0.000      0.000
REMARK  4 active torsions:
REMARK  status: ('A' for Active; 'I' for Inactive)
REMARK    1  A    between atoms: C_10  and  N_1 
REMARK    2  A    between atoms: C_14  and  C_10 
REMARK    3  A    between atoms: O_16  and  C_12 
REMARK    4  A    between atoms: C_19  and  O_16 
ROOT
ATOM      1  N   UNL d   1     -41.604-122.386 -51.409  0.00  0.00    -0.260 N 
ATOM      2  C   UNL d   1     -41.802-121.927 -52.032  0.00  0.00     0.174 A 
ATOM      3  C   UNL d   1     -41.322-123.130 -51.317  0.00  0.00     0.348 A 
ATOM      4  O   UNL d   1     -41.801-122.017 -52.828  0.00  0.00    -0.314 OA
ATOM      5  N   UNL d   1     -41.124-123.716 -51.813  0.00  0.00    -0.216 NA
ATOM      6  C   UNL d   1     -41.123-123.809 -52.612  0.00  0.00     0.137 A 
ATOM      7  C   UNL d   1     -41.401-122.995 -51.995  0.00  0.00     0.079 A 
ATOM      8  C   UNL d   1     -41.599-122.614 -53.322  0.00  0.00     0.116 A 
ATOM      9  C   UNL d   1     -41.320-123.350 -53.230  0.00  0.00     0.025 A 
ATOM     10  O   UNL d   1     -41.219-123.322 -50.556  0.00  0.00    -0.245 OA
ATOM     11  C   UNL d   1     -41.736-122.328 -54.061  0.00  0.00     0.122 A 
ATOM     12  C   UNL d   1     -42.080-121.174 -51.965  0.00  0.00     0.055 C 
ATOM     13  C   UNL d   1     -41.174-123.812 -53.868  0.00  0.00    -0.000 A 
ATOM     14  C   UNL d   1     -41.312-123.525 -54.603  0.00  0.00     0.002 A 
ATOM     15  C   UNL d   1     -41.593-122.782 -54.700  0.00  0.00     0.027 A 
ENDROOT
BRANCH   1  16
ATOM     16  C   UNL d   1     -41.650-122.173 -50.612  0.00  0.00     0.082 C 
BRANCH  16  17
ATOM     17  C   UNL d   1     -42.302-122.424 -50.158  0.00  0.00     0.017 A 
ATOM     18  C   UNL d   1     -43.063-122.150 -50.341  0.00  0.00     0.002 A 
ATOM     19  C   UNL d   1     -43.715-122.401 -49.887  0.00  0.00     0.000 A 
ATOM     20  C   UNL d   1     -43.601-122.925 -49.252  0.00  0.00     0.000 A 
ATOM     21  C   UNL d   1     -42.833-123.196 -49.075  0.00  0.00     0.000 A 
ATOM     22  C   UNL d   1     -42.190-122.946 -49.526  0.00  0.00     0.002 A 
ENDBRANCH  16  17
ENDBRANCH   1  16
BRANCH  11  23
ATOM     23  O   UNL d   1     -42.027-121.560 -54.156  0.00  0.00    -0.303 OA
BRANCH  23  24
ATOM     24  C   UNL d   1     -42.450-121.363 -54.836  0.00  0.00     0.123 C 
ATOM     25  C   UNL d   1     -42.104-120.864 -55.404  0.00  0.00     0.029 C 
ENDBRANCH  23  24
ENDBRANCH  11  23
TORSDOF 4
ENDMDL
