MODEL 1
REMARK VINA RESULT:      -1.3      0.000      0.000
REMARK  6 active torsions:
REMARK  status: ('A' for Active; 'I' for Inactive)
REMARK    1  A    between atoms: C_7  and  C_1 
REMARK    2  A    between atoms: O_11  and  C_2 
REMARK    3  A    between atoms: O_13  and  C_10 
REMARK    4  A    between atoms: C_20  and  O_11 
REMARK    5  A    between atoms: C_21  and  C_12 
REMARK    6  A    between atoms: C_14  and  O_13 
ROOT
ATOM      1  C   UNL d   1     -41.930-121.730 -51.431  0.00  0.00     0.197 A 
ATOM      2  C   UNL d   1     -41.625-122.483 -51.196  0.00  0.00     0.165 A 
ATOM      3  O   UNL d   1     -42.030-121.562 -52.235  0.00  0.00    -0.301 OA
ATOM      4  C   UNL d   1     -41.434-123.032 -51.784  0.00  0.00     0.222 A 
ATOM      5  C   UNL d   1     -41.533-122.864 -52.587  0.00  0.00     0.064 A 
ATOM      6  C   UNL d   1     -41.838-122.110 -52.805  0.00  0.00     0.105 A 
ATOM      7  C   UNL d   1     -41.341-123.413 -53.153  0.00  0.00     0.007 A 
ATOM      8  C   UNL d   1     -41.939-121.939 -53.608  0.00  0.00     0.050 A 
ATOM      9  C   UNL d   1     -41.744-122.496 -54.176  0.00  0.00     0.105 A 
ATOM     10  C   UNL d   1     -41.441-123.243 -53.952  0.00  0.00     0.023 A 
ATOM     11  O   UNL d   1     -41.127-123.787 -51.540  0.00  0.00    -0.284 OA
ENDROOT
BRANCH   2  12
ATOM     12  O   UNL d   1     -41.519-122.669 -50.398  0.00  0.00    -0.302 OA
BRANCH  12  13
ATOM     13  C   UNL d   1     -42.116-123.049 -49.990  0.00  0.00     0.100 A 
ATOM     14  C   UNL d   1     -42.852-123.202 -50.343  0.00  0.00     0.025 A 
ATOM     15  C   UNL d   1     -43.424-123.578 -49.921  0.00  0.00     0.002 A 
ATOM     16  C   UNL d   1     -43.296-123.817 -49.139  0.00  0.00     0.000 A 
ATOM     17  C   UNL d   1     -42.581-123.666 -48.805  0.00  0.00     0.002 A 
ATOM     18  C   UNL d   1     -41.988-123.288 -49.209  0.00  0.00     0.025 A 
ENDBRANCH  12  13
ENDBRANCH   2  12
BRANCH   1  19
ATOM     19  C   UNL d   1     -42.133-121.155 -50.875  0.00  0.00     0.442 C 
ATOM     20  F   UNL d   1     -42.332-120.570 -50.306  0.00  0.00    -0.164 F 
ATOM     21  F   UNL d   1     -42.939-121.211 -51.100  0.00  0.00    -0.164 F 
ATOM     22  F   UNL d   1     -41.322-121.101 -50.649  0.00  0.00    -0.164 F 
ENDBRANCH   1  19
BRANCH  10  23
ATOM     23  C   UNL d   1     -41.239-123.817 -54.508  0.00  0.00     0.002 C 
ATOM     24  C   UNL d   1     -41.337-123.696 -55.185  0.00  0.00     0.000 C 
ENDBRANCH  10  23
BRANCH   9  25
ATOM     25  O   UNL d   1     -41.849-122.311 -54.970  0.00  0.00    -0.273 OA
BRANCH  25  26
ATOM     26  C   UNL d   1     -42.350-121.700 -55.200  0.00  0.00     0.300 C 
ATOM     27  O   UNL d   1     -43.175-121.815 -55.222  0.00  0.00    -0.259 OA
ATOM     28  C   UNL d   1     -42.054-120.974 -55.408  0.00  0.00     0.074 C 
ENDBRANCH  25  26
ENDBRANCH   9  25
TORSDOF 6
ENDMDL
