MODEL 1
REMARK VINA RESULT:      55.0      0.000      0.000
REMARK  6 active torsions:
REMARK  status: ('A' for Active; 'I' for Inactive)
REMARK    1  A    between atoms: N_11  and  C_3 
REMARK    2  A    between atoms: C_10  and  C_5 
REMARK    3  A    between atoms: C_17  and  N_11 
REMARK    4  A    between atoms: N_13  and  C_18 
REMARK    5  A    between atoms: C_16  and  C_17 
REMARK    6  A    between atoms: C_18  and  C_16 
ROOT
ATOM      1  N   UNL d   1     -50.526  25.611  33.723  0.00  0.00    -0.184 N 
ATOM      2  C   UNL d   1     -51.301  25.335  33.613  0.00  0.00     0.168 A 
ATOM      3  C   UNL d   1     -50.383  26.419  33.699  0.00  0.00     0.217 A 
ATOM      4  N   UNL d   1     -50.079  24.283  33.873  0.00  0.00    -0.162 NA
ATOM      5  C   UNL d   1     -51.463  24.543  33.633  0.00  0.00     0.055 A 
ATOM      6  N   UNL d   1     -51.915  25.874  33.481  0.00  0.00    -0.227 NA
ATOM      7  C   UNL d   1     -50.987  26.952  33.569  0.00  0.00     0.066 A 
ATOM      8  C   UNL d   1     -50.850  24.008  33.764  0.00  0.00     0.104 A 
ATOM      9  C   UNL d   1     -51.757  26.678  33.460  0.00  0.00     0.087 A 
ATOM     10  C   UNL d   1     -50.821  27.764  33.549  0.00  0.00     0.006 A 
ATOM     11  C   UNL d   1     -50.998  23.216  33.786  0.00  0.00     0.023 C 
ATOM     12  C   UNL d   1     -52.370  27.212  33.329  0.00  0.00     0.019 A 
ATOM     13  C   UNL d   1     -51.446  28.303  33.415  0.00  0.00     0.000 A 
ATOM     14  C   UNL d   1     -52.217  28.029  33.306  0.00  0.00     0.002 A 
ENDROOT
BRANCH   3  15
ATOM     15  N   UNL d   1     -49.597  26.703  33.810  0.00  0.00    -0.380 NA
BRANCH  15  16
ATOM     16  C   UNL d   1     -48.821  26.969  33.991  0.00  0.00     0.164 C 
BRANCH  16  17
ATOM     17  C   UNL d   1     -48.690  27.373  34.718  0.00  0.00     0.054 C 
BRANCH  17  18
ATOM     18  C   UNL d   1     -48.575  28.217  34.718  0.00  0.00     0.083 C 
BRANCH  18  19
ATOM     19  N   UNL d   1     -48.376  28.612  35.434  0.00  0.00    -0.300 N 
ATOM     20  C   UNL d   1     -47.576  28.694  35.209  0.00  0.00     0.100 C 
ATOM     21  C   UNL d   1     -48.619  28.919  36.185  0.00  0.00     0.100 C 
ENDBRANCH  18  19
ENDBRANCH  17  18
ENDBRANCH  16  17
ENDBRANCH  15  16
ENDBRANCH   3  15
BRANCH   5  22
ATOM     22  C   UNL d   1     -52.233  24.268  33.524  0.00  0.00     0.004 A 
ATOM     23  C   UNL d   1     -52.840  24.804  33.435  0.00  0.00     0.000 A 
ATOM     24  C   UNL d   1     -53.610  24.530  33.326  0.00  0.00     0.000 A 
ATOM     25  C   UNL d   1     -53.761  23.724  33.307  0.00  0.00     0.000 A 
ATOM     26  C   UNL d   1     -53.144  23.192  33.396  0.00  0.00     0.000 A 
ATOM     27  C   UNL d   1     -52.373  23.467  33.506  0.00  0.00     0.000 A 
ENDBRANCH   5  22
TORSDOF 6
ENDMDL
