MODEL 1
REMARK VINA RESULT:      -1.9      0.000      0.000
REMARK  9 active torsions:
REMARK  status: ('A' for Active; 'I' for Inactive)
REMARK    1  A    between atoms: C_6  and  N_1 
REMARK    2  A    between atoms: C_2  and  O_5 
REMARK    3  A    between atoms: C_8  and  C_3 
REMARK    4  A    between atoms: C_4  and  C_9 
REMARK    5  A    between atoms: O_5  and  C_4 
REMARK    6  A    between atoms: C_7  and  C_8 
REMARK    7  A    between atoms: C_13  and  C_7 
REMARK    8  A    between atoms: C_10  and  C_13 
REMARK    9  A    between atoms: O_25  and  C_23 
ROOT
ATOM      1  C   UNL d   1      33.161  21.388 -22.743  0.00  0.00     0.108 A 
ATOM      2  C   UNL d   1      33.146  21.914 -22.106  0.00  0.00     0.062 A 
ATOM      3  C   UNL d   1      33.117  21.679 -23.522  0.00  0.00     0.049 A 
ATOM      4  C   UNL d   1      33.087  22.733 -22.247  0.00  0.00     0.007 A 
ATOM      5  C   UNL d   1      33.058  22.491 -23.657  0.00  0.00     0.096 A 
ATOM      6  C   UNL d   1      33.043  23.018 -23.021  0.00  0.00     0.024 A 
ENDROOT
BRANCH   1   7
ATOM      7  O   UNL d   1      33.220  20.573 -22.611  0.00  0.00    -0.273 OA
BRANCH   7   8
ATOM      8  C   UNL d   1      33.133  20.048 -23.243  0.00  0.00     0.300 C 
ATOM      9  O   UNL d   1      33.210  20.313 -24.019  0.00  0.00    -0.259 OA
BRANCH   8  10
ATOM     10  C   UNL d   1      32.969  19.254 -23.091  0.00  0.00     0.065 A 
ATOM     11  C   UNL d   1      32.569  18.811 -23.657  0.00  0.00     0.029 A 
ATOM     12  C   UNL d   1      32.404  18.021 -23.508  0.00  0.00     0.127 A 
ATOM     13  C   UNL d   1      32.640  17.675 -22.794  0.00  0.00     0.024 A 
ATOM     14  C   UNL d   1      33.039  18.125 -22.238  0.00  0.00     0.002 A 
ATOM     15  C   UNL d   1      33.203  18.913 -22.386  0.00  0.00     0.005 A 
BRANCH  12  16
ATOM     16  N   UNL d   1      32.002  17.572 -24.074  0.00  0.00    -0.114 N 
ATOM     17  O   UNL d   1      31.179  17.580 -24.095  0.00  0.00    -0.532 OA
ATOM     18  O   UNL d   1      32.428  17.111 -24.625  0.00  0.00    -0.532 OA
ENDBRANCH  12  16
ENDBRANCH   8  10
ENDBRANCH   7   8
ENDBRANCH   1   7
BRANCH   2  19
ATOM     19  C   UNL d   1      33.190  21.626 -21.330  0.00  0.00     0.198 C 
ATOM     20  O   UNL d   1      33.184  20.812 -21.191  0.00  0.00    -0.286 OA
BRANCH  19  21
ATOM     21  C   UNL d   1      33.240  22.154 -20.698  0.00  0.00     0.043 C 
BRANCH  21  22
ATOM     22  C   UNL d   1      33.016  21.910 -19.942  0.00  0.00     0.010 C 
BRANCH  22  23
ATOM     23  C   UNL d   1      32.895  22.472 -19.349  0.00  0.00     0.030 A 
ATOM     24  S   UNL d   1      33.086  22.393 -18.548  0.00  0.00    -0.086 SA
ATOM     25  C   UNL d   1      32.869  23.086 -18.156  0.00  0.00     0.035 A 
ATOM     26  C   UNL d   1      32.541  23.601 -18.711  0.00  0.00     0.007 A 
ATOM     27  C   UNL d   1      32.556  23.223 -19.448  0.00  0.00     0.007 A 
ENDBRANCH  22  23
ENDBRANCH  21  22
ENDBRANCH  19  21
ENDBRANCH   2  19
BRANCH   5  28
ATOM     28  O   UNL d   1      33.015  22.776 -24.431  0.00  0.00    -0.328 OA
ATOM     29  C   UNL d   1      32.548  23.439 -24.602  0.00  0.00     0.181 C 
ENDBRANCH   5  28
TORSDOF 9
ENDMDL
MODEL 2
REMARK VINA RESULT:      -1.0      2.166      3.799
REMARK  9 active torsions:
REMARK  status: ('A' for Active; 'I' for Inactive)
REMARK    1  A    between atoms: C_6  and  N_1 
REMARK    2  A    between atoms: C_2  and  O_5 
REMARK    3  A    between atoms: C_8  and  C_3 
REMARK    4  A    between atoms: C_4  and  C_9 
REMARK    5  A    between atoms: O_5  and  C_4 
REMARK    6  A    between atoms: C_7  and  C_8 
REMARK    7  A    between atoms: C_13  and  C_7 
REMARK    8  A    between atoms: C_10  and  C_13 
REMARK    9  A    between atoms: O_25  and  C_23 
ROOT
ATOM      1  C   UNL d   1      32.952  19.444 -23.206  0.00  0.00     0.108 A 
ATOM      2  C   UNL d   1      33.097  20.213 -23.471  0.00  0.00     0.062 A 
ATOM      3  C   UNL d   1      32.948  19.282 -22.389  0.00  0.00     0.049 A 
ATOM      4  C   UNL d   1      33.238  20.822 -22.920  0.00  0.00     0.007 A 
ATOM      5  C   UNL d   1      33.088  19.888 -21.846  0.00  0.00     0.096 A 
ATOM      6  C   UNL d   1      33.233  20.657 -22.111  0.00  0.00     0.024 A 
ENDROOT
BRANCH   1   7
ATOM      7  O   UNL d   1      32.811  18.835 -23.747  0.00  0.00    -0.273 OA
BRANCH   7   8
ATOM      8  C   UNL d   1      32.594  18.085 -23.474  0.00  0.00     0.300 C 
ATOM      9  O   UNL d   1      32.828  17.830 -22.727  0.00  0.00    -0.259 OA
BRANCH   8  10
ATOM     10  C   UNL d   1      32.140  17.594 -23.956  0.00  0.00     0.065 A 
ATOM     11  C   UNL d   1      31.326  17.561 -23.843  0.00  0.00     0.029 A 
ATOM     12  C   UNL d   1      30.872  17.073 -24.322  0.00  0.00     0.127 A 
ATOM     13  C   UNL d   1      31.232  16.619 -24.912  0.00  0.00     0.024 A 
ATOM     14  C   UNL d   1      32.043  16.659 -25.015  0.00  0.00     0.002 A 
ATOM     15  C   UNL d   1      32.497  17.145 -24.539  0.00  0.00     0.005 A 
BRANCH  12  16
ATOM     16  N   UNL d   1      30.053  17.038 -24.211  0.00  0.00    -0.114 N 
ATOM     17  O   UNL d   1      29.563  17.568 -24.607  0.00  0.00    -0.532 OA
ATOM     18  O   UNL d   1      29.722  16.467 -23.700  0.00  0.00    -0.532 OA
ENDBRANCH  12  16
ENDBRANCH   8  10
ENDBRANCH   7   8
ENDBRANCH   1   7
BRANCH   2  19
ATOM     19  C   UNL d   1      33.101  20.377 -24.283  0.00  0.00     0.198 C 
ATOM     20  O   UNL d   1      32.987  19.766 -24.828  0.00  0.00    -0.286 OA
BRANCH  19  21
ATOM     21  C   UNL d   1      33.220  21.150 -24.547  0.00  0.00     0.043 C 
BRANCH  21  22
ATOM     22  C   UNL d   1      32.680  21.492 -25.069  0.00  0.00     0.010 C 
BRANCH  22  23
ATOM     23  C   UNL d   1      32.576  22.311 -25.072  0.00  0.00     0.030 A 
ATOM     24  S   UNL d   1      33.171  22.885 -25.055  0.00  0.00    -0.086 SA
ATOM     25  C   UNL d   1      32.819  23.631 -25.066  0.00  0.00     0.035 A 
ATOM     26  C   UNL d   1      32.001  23.527 -25.089  0.00  0.00     0.007 A 
ATOM     27  C   UNL d   1      31.849  22.712 -25.094  0.00  0.00     0.007 A 
ENDBRANCH  22  23
ENDBRANCH  21  22
ENDBRANCH  19  21
ENDBRANCH   2  19
BRANCH   5  28
ATOM     28  O   UNL d   1      33.083  19.723 -21.037  0.00  0.00    -0.328 OA
ATOM     29  C   UNL d   1      33.157  20.340 -20.489  0.00  0.00     0.181 C 
ENDBRANCH   5  28
TORSDOF 9
ENDMDL
MODEL 3
REMARK VINA RESULT:      -1.0      2.303      4.896
REMARK  9 active torsions:
REMARK  status: ('A' for Active; 'I' for Inactive)
REMARK    1  A    between atoms: C_6  and  N_1 
REMARK    2  A    between atoms: C_2  and  O_5 
REMARK    3  A    between atoms: C_8  and  C_3 
REMARK    4  A    between atoms: C_4  and  C_9 
REMARK    5  A    between atoms: O_5  and  C_4 
REMARK    6  A    between atoms: C_7  and  C_8 
REMARK    7  A    between atoms: C_13  and  C_7 
REMARK    8  A    between atoms: C_10  and  C_13 
REMARK    9  A    between atoms: O_25  and  C_23 
ROOT
ATOM      1  C   UNL d   1      32.922  20.973 -22.882  0.00  0.00     0.108 A 
ATOM      2  C   UNL d   1      33.039  20.275 -23.307  0.00  0.00     0.062 A 
ATOM      3  C   UNL d   1      32.965  21.708 -23.272  0.00  0.00     0.049 A 
ATOM      4  C   UNL d   1      33.199  20.310 -24.124  0.00  0.00     0.007 A 
ATOM      5  C   UNL d   1      33.124  21.739 -24.081  0.00  0.00     0.096 A 
ATOM      6  C   UNL d   1      33.241  21.040 -24.507  0.00  0.00     0.024 A 
ENDROOT
BRANCH   1   7
ATOM      7  O   UNL d   1      32.762  20.946 -22.070  0.00  0.00    -0.273 OA
BRANCH   7   8
ATOM      8  C   UNL d   1      32.720  21.650 -21.637  0.00  0.00     0.300 C 
ATOM      9  O   UNL d   1      32.554  22.362 -22.014  0.00  0.00    -0.259 OA
BRANCH   8  10
ATOM     10  C   UNL d   1      32.847  21.632 -20.822  0.00  0.00     0.065 A 
ATOM     11  C   UNL d   1      32.698  22.308 -20.377  0.00  0.00     0.029 A 
ATOM     12  C   UNL d   1      32.823  22.292 -19.567  0.00  0.00     0.127 A 
ATOM     13  C   UNL d   1      33.096  21.602 -19.202  0.00  0.00     0.024 A 
ATOM     14  C   UNL d   1      33.241  20.935 -19.654  0.00  0.00     0.002 A 
ATOM     15  C   UNL d   1      33.117  20.949 -20.462  0.00  0.00     0.005 A 
BRANCH  12  16
ATOM     16  N   UNL d   1      32.675  22.970 -19.116  0.00  0.00    -0.114 N 
ATOM     17  O   UNL d   1      32.166  22.930 -18.470  0.00  0.00    -0.532 OA
ATOM     18  O   UNL d   1      33.039  23.695 -19.316  0.00  0.00    -0.532 OA
ENDBRANCH  12  16
ENDBRANCH   8  10
ENDBRANCH   7   8
ENDBRANCH   1   7
BRANCH   2  19
ATOM     19  C   UNL d   1      32.996  19.543 -22.921  0.00  0.00     0.198 C 
ATOM     20  O   UNL d   1      33.121  19.498 -22.106  0.00  0.00    -0.286 OA
BRANCH  19  21
ATOM     21  C   UNL d   1      32.830  18.859 -23.353  0.00  0.00     0.043 C 
BRANCH  21  22
ATOM     22  C   UNL d   1      32.947  18.118 -23.008  0.00  0.00     0.010 C 
BRANCH  22  23
ATOM     23  C   UNL d   1      32.551  17.459 -23.309  0.00  0.00     0.030 A 
ATOM     24  S   UNL d   1      32.726  16.666 -23.155  0.00  0.00    -0.086 SA
ATOM     25  C   UNL d   1      32.191  16.193 -23.569  0.00  0.00     0.035 A 
ATOM     26  C   UNL d   1      31.679  16.689 -23.984  0.00  0.00     0.007 A 
ATOM     27  C   UNL d   1      31.900  17.472 -23.824  0.00  0.00     0.007 A 
ENDBRANCH  22  23
ENDBRANCH  21  22
ENDBRANCH  19  21
ENDBRANCH   2  19
BRANCH   5  28
ATOM     28  O   UNL d   1      33.166  22.469 -24.463  0.00  0.00    -0.328 OA
ATOM     29  C   UNL d   1      32.611  22.661 -25.048  0.00  0.00     0.181 C 
ENDBRANCH   5  28
TORSDOF 9
ENDMDL
