MODEL 1
REMARK VINA RESULT:      37.2      0.000      0.000
REMARK  7 active torsions:
REMARK  status: ('A' for Active; 'I' for Inactive)
REMARK    1  A    between atoms: C_7  and  N_1 
REMARK    2  A    between atoms: C_6  and  C_4 
REMARK    3  A    between atoms: C_9  and  C_6 
REMARK    4  A    between atoms: C_8  and  C_7 
REMARK       I    between atoms: N_12  and  C_8 
REMARK    5  A    between atoms: C_10  and  C_9 
REMARK    6  A    between atoms: C_16  and  C_10 
REMARK    7  A    between atoms: C_15  and  N_12 
ROOT
ATOM      1  N   UNL d   1      15.403  13.081  -0.559  0.00  0.00    -0.230 N 
ATOM      2  C   UNL d   1      15.843  12.738  -1.171  0.00  0.00     0.299 A 
ATOM      3  C   UNL d   1      14.642  12.762  -0.585  0.00  0.00     0.274 A 
ATOM      4  C   UNL d   1      14.611  12.221  -1.213  0.00  0.00     0.090 A 
ATOM      5  S   UNL d   1      15.354  12.212  -1.568  0.00  0.00    -0.022 SA
ATOM      6  O   UNL d   1      16.635  12.903  -1.342  0.00  0.00    -0.259 OA
ATOM      7  O   UNL d   1      14.017  12.949  -0.073  0.00  0.00    -0.266 OA
ENDROOT
BRANCH   1   8
ATOM      8  C   UNL d   1      15.669  13.642  -0.017  0.00  0.00     0.149 C 
BRANCH   8   9
ATOM      9  C   UNL d   1      15.755  14.432  -0.241  0.00  0.00     0.297 C 
ATOM     10  N   UNL d   1      15.091  14.868  -0.459  0.00  0.00    -0.207 NA
ATOM     11  O   UNL d   1      16.500  14.777  -0.245  0.00  0.00    -0.264 OA
BRANCH  10  12
ATOM     12  C   UNL d   1      15.178  15.662  -0.685  0.00  0.00     0.085 A 
ATOM     13  C   UNL d   1      15.565  16.190  -0.177  0.00  0.00     0.022 A 
ATOM     14  C   UNL d   1      15.648  16.974  -0.404  0.00  0.00     0.044 A 
ATOM     15  C   UNL d   1      15.351  17.240  -1.130  0.00  0.00     0.196 A 
ATOM     16  C   UNL d   1      14.965  16.704  -1.632  0.00  0.00     0.044 A 
ATOM     17  O   UNL d   1      15.438  18.028  -1.350  0.00  0.00    -0.287 OA
ATOM     18  C   UNL d   1      14.878  15.914  -1.409  0.00  0.00     0.022 A 
ENDBRANCH  10  12
ENDBRANCH   8   9
ENDBRANCH   1   8
BRANCH   4  19
ATOM     19  C   UNL d   1      13.957  11.780  -1.434  0.00  0.00     0.011 C 
BRANCH  19  20
ATOM     20  C   UNL d   1      13.533  11.981  -2.110  0.00  0.00     0.001 C 
ATOM     21  C   UNL d   1      12.769  12.296  -2.043  0.00  0.00     0.000 C 
BRANCH  20  22
ATOM     22  C   UNL d   1      13.862  11.873  -2.859  0.00  0.00     0.000 C 
BRANCH  22  23
ATOM     23  C   UNL d   1      13.536  12.244  -3.517  0.00  0.00     0.000 A 
ATOM     24  C   UNL d   1      13.219  11.783  -4.137  0.00  0.00     0.000 A 
ATOM     25  C   UNL d   1      12.894  12.149  -4.793  0.00  0.00     0.000 A 
ATOM     26  C   UNL d   1      12.881  12.974  -4.836  0.00  0.00     0.000 A 
ATOM     27  C   UNL d   1      13.193  13.430  -4.225  0.00  0.00     0.000 A 
ATOM     28  C   UNL d   1      13.517  13.060  -3.570  0.00  0.00     0.000 A 
ENDBRANCH  22  23
ENDBRANCH  20  22
ENDBRANCH  19  20
ENDBRANCH   4  19
TORSDOF 7
ENDMDL
