MODEL 1
REMARK VINA RESULT:       5.1      0.000      0.000
REMARK  10 active torsions:
REMARK  status: ('A' for Active; 'I' for Inactive)
REMARK    1  A    between atoms: C_16  and  N_1 
REMARK    2  A    between atoms: S_10  and  C_2 
REMARK    3  A    between atoms: N_8  and  C_9 
REMARK    4  A    between atoms: C_18  and  S_10 
REMARK    5  A    between atoms: C_12  and  C_18 
REMARK       I    between atoms: N_19  and  C_12 
REMARK    6  A    between atoms: C_27  and  C_16 
REMARK    7  A    between atoms: C_25  and  N_19 
REMARK    8  A    between atoms: O_22  and  C_26 
REMARK    9  A    between atoms: C_26  and  C_25 
REMARK   10  A    between atoms: C_29  and  C_27 
ROOT
ATOM      1  N   UNL d   1      56.896  -0.498  31.977  0.00  0.00    -0.253 N 
ATOM      2  C   UNL d   1      57.133   0.182  32.393  0.00  0.00     0.182 A 
ATOM      3  C   UNL d   1      57.350  -0.787  31.358  0.00  0.00     0.268 A 
ATOM      4  C   UNL d   1      58.047  -0.388  31.156  0.00  0.00     0.076 A 
ATOM      5  N   UNL d   1      57.823   0.570  32.186  0.00  0.00    -0.222 NA
ATOM      6  C   UNL d   1      58.282   0.286  31.567  0.00  0.00     0.088 A 
ATOM      7  C   UNL d   1      58.493  -0.681  30.539  0.00  0.00     0.024 A 
ATOM      8  C   UNL d   1      59.199  -0.291  30.322  0.00  0.00     0.065 A 
ATOM      9  O   UNL d   1      57.115  -1.461  30.946  0.00  0.00    -0.267 OA
ATOM     10  C   UNL d   1      58.975   0.674  31.359  0.00  0.00     0.021 A 
ATOM     11  C   UNL d   1      59.427   0.389  30.744  0.00  0.00     0.019 A 
ENDROOT
BRANCH   2  12
ATOM     12  S   UNL d   1      56.661   0.465  33.022  0.00  0.00    -0.044 SA
BRANCH  12  13
ATOM     13  C   UNL d   1      57.005   0.599  33.758  0.00  0.00     0.101 C 
BRANCH  13  14
ATOM     14  C   UNL d   1      56.549   0.580  34.449  0.00  0.00     0.286 C 
ATOM     15  O   UNL d   1      56.898   0.461  35.176  0.00  0.00    -0.265 OA
ATOM     16  N   UNL d   1      55.730   0.682  34.411  0.00  0.00    -0.204 NA
BRANCH  16  17
ATOM     17  C   UNL d   1      55.262   0.664  35.108  0.00  0.00     0.129 C 
BRANCH  17  18
ATOM     18  C   UNL d   1      54.480   0.460  35.052  0.00  0.00     0.137 C 
BRANCH  18  19
ATOM     19  O   UNL d   1      54.090   0.169  35.716  0.00  0.00    -0.325 OA
ATOM     20  C   UNL d   1      53.429   0.561  36.006  0.00  0.00     0.182 C 
ENDBRANCH  18  19
ENDBRANCH  17  18
ENDBRANCH  16  17
ENDBRANCH  13  14
ENDBRANCH  12  13
ENDBRANCH   2  12
BRANCH   1  21
ATOM     21  C   UNL d   1      56.189  -0.889  32.195  0.00  0.00     0.085 C 
BRANCH  21  22
ATOM     22  C   UNL d   1      56.228  -1.574  32.634  0.00  0.00     0.019 C 
BRANCH  22  23
ATOM     23  C   UNL d   1      55.602  -2.107  32.622  0.00  0.00     0.002 C 
ATOM     24  C   UNL d   1      55.291  -2.401  33.336  0.00  0.00     0.000 C 
ENDBRANCH  22  23
ENDBRANCH  21  22
ENDBRANCH   1  21
BRANCH   8  25
ATOM     25  N   UNL d   1      59.658  -0.576  29.701  0.00  0.00    -0.300 N 
ATOM     26  C   UNL d   1      60.172  -0.059  29.309  0.00  0.00     0.107 A 
ATOM     27  C   UNL d   1      60.633  -0.350  28.684  0.00  0.00     0.142 A 
ATOM     28  O   UNL d   1      60.580  -1.148  28.455  0.00  0.00    -0.300 OA
ATOM     29  C   UNL d   1      60.063  -1.655  28.855  0.00  0.00     0.142 A 
ATOM     30  C   UNL d   1      59.597  -1.379  29.481  0.00  0.00     0.107 A 
ENDBRANCH   8  25
TORSDOF 10
ENDMDL
