MODEL 1
REMARK VINA RESULT:      -8.8      0.000      0.000
REMARK  3 active torsions:
REMARK  status: ('A' for Active; 'I' for Inactive)
REMARK    1  A    between atoms: C_2  and  S_1 
REMARK    2  A    between atoms: N_3  and  S_1 
REMARK    3  A    between atoms: N_4  and  C_6 
ROOT
ATOM      1  C   UNL d   1      53.554  32.079  53.678  0.00  0.00     0.116 A 
ATOM      2  C   UNL d   1      53.603  31.259  53.823  0.00  0.00     0.037 A 
ATOM      3  C   UNL d   1      53.120  30.750  53.403  0.00  0.00     0.127 A 
ATOM      4  C   UNL d   1      53.018  32.375  53.112  0.00  0.00     0.070 A 
ATOM      5  C   UNL d   1      52.573  31.055  52.824  0.00  0.00     0.024 A 
ATOM      6  C   UNL d   1      52.535  31.853  52.694  0.00  0.00     0.014 A 
ATOM      7 CL   UNL d   1      53.009  33.130  53.015  0.00  0.00    -0.082 Cl
ENDROOT
BRANCH   1   8
ATOM      8  S   UNL d   1      54.055  32.605  54.114  0.00  0.00     0.273 S 
ATOM      9  O   UNL d   1      54.612  32.592  53.499  0.00  0.00    -0.200 OA
ATOM     10  O   UNL d   1      53.487  32.625  54.751  0.00  0.00    -0.200 OA
BRANCH   8  11
ATOM     11  N   UNL d   1      54.528  33.113  54.544  0.00  0.00    -0.210 N 
ATOM     12  C   UNL d   1      54.377  33.430  55.338  0.00  0.00     0.193 A 
ATOM     13  N   UNL d   1      55.031  33.920  55.523  0.00  0.00    -0.222 NA
ATOM     14  C   UNL d   1      55.566  33.906  54.867  0.00  0.00     0.120 A 
ATOM     15  C   UNL d   1      55.236  33.413  54.295  0.00  0.00     0.114 A 
ENDBRANCH   8  11
ENDBRANCH   1   8
BRANCH   3  16
ATOM     16  N   UNL d   1      53.174  29.948  53.550  0.00  0.00    -0.114 N 
ATOM     17  O   UNL d   1      53.834  29.554  53.785  0.00  0.00    -0.532 OA
ATOM     18  O   UNL d   1      52.535  29.435  53.471  0.00  0.00    -0.532 OA
ENDBRANCH   3  16
TORSDOF 3
ENDMDL
MODEL 2
REMARK VINA RESULT:      -8.5      2.230      3.676
REMARK  3 active torsions:
REMARK  status: ('A' for Active; 'I' for Inactive)
REMARK    1  A    between atoms: C_2  and  S_1 
REMARK    2  A    between atoms: N_3  and  S_1 
REMARK    3  A    between atoms: N_4  and  C_6 
ROOT
ATOM      1  C   UNL d   1      53.002  33.282  53.637  0.00  0.00     0.116 A 
ATOM      2  C   UNL d   1      53.393  33.760  54.197  0.00  0.00     0.037 A 
ATOM      3  C   UNL d   1      54.085  33.490  54.539  0.00  0.00     0.127 A 
ATOM      4  C   UNL d   1      53.313  32.538  53.428  0.00  0.00     0.070 A 
ATOM      5  C   UNL d   1      54.403  32.727  54.323  0.00  0.00     0.024 A 
ATOM      6  C   UNL d   1      54.012  32.274  53.778  0.00  0.00     0.014 A 
ATOM      7 CL   UNL d   1      52.921  32.138  52.912  0.00  0.00    -0.082 Cl
ENDROOT
BRANCH   1   8
ATOM      8  S   UNL d   1      52.284  33.564  53.284  0.00  0.00     0.273 S 
ATOM      9  O   UNL d   1      51.838  33.107  53.815  0.00  0.00    -0.200 OA
ATOM     10  O   UNL d   1      52.735  34.035  52.735  0.00  0.00    -0.200 OA
BRANCH   8  11
ATOM     11  N   UNL d   1      51.600  33.842  52.936  0.00  0.00    -0.210 N 
ATOM     12  C   UNL d   1      51.520  34.211  52.154  0.00  0.00     0.193 A 
ATOM     13  N   UNL d   1      50.707  34.394  52.065  0.00  0.00    -0.222 NA
ATOM     14  C   UNL d   1      50.301  34.147  52.765  0.00  0.00     0.120 A 
ATOM     15  C   UNL d   1      50.865  33.819  53.269  0.00  0.00     0.114 A 
ENDBRANCH   8  11
ENDBRANCH   1   8
BRANCH   3  16
ATOM     16  N   UNL d   1      54.463  33.963  55.087  0.00  0.00    -0.114 N 
ATOM     17  O   UNL d   1      54.110  34.499  55.571  0.00  0.00    -0.532 OA
ATOM     18  O   UNL d   1      55.277  33.943  55.210  0.00  0.00    -0.532 OA
ENDBRANCH   3  16
TORSDOF 3
ENDMDL
MODEL 3
REMARK VINA RESULT:      -8.4      2.071      2.866
REMARK  3 active torsions:
REMARK  status: ('A' for Active; 'I' for Inactive)
REMARK    1  A    between atoms: C_2  and  S_1 
REMARK    2  A    between atoms: N_3  and  S_1 
REMARK    3  A    between atoms: N_4  and  C_6 
ROOT
ATOM      1  C   UNL d   1      52.810  32.597  53.270  0.00  0.00     0.116 A 
ATOM      2  C   UNL d   1      52.713  31.771  53.218  0.00  0.00     0.037 A 
ATOM      3  C   UNL d   1      53.338  31.282  53.417  0.00  0.00     0.127 A 
ATOM      4  C   UNL d   1      53.535  32.921  53.523  0.00  0.00     0.070 A 
ATOM      5  C   UNL d   1      54.080  31.615  53.676  0.00  0.00     0.024 A 
ATOM      6  C   UNL d   1      54.160  32.420  53.722  0.00  0.00     0.014 A 
ATOM      7 CL   UNL d   1      53.576  33.681  53.554  0.00  0.00    -0.082 Cl
ENDROOT
BRANCH   1   8
ATOM      8  S   UNL d   1      52.162  33.102  53.063  0.00  0.00     0.273 S 
ATOM      9  O   UNL d   1      51.948  33.164  53.863  0.00  0.00    -0.200 OA
ATOM     10  O   UNL d   1      52.374  33.044  52.239  0.00  0.00    -0.200 OA
BRANCH   8  11
ATOM     11  N   UNL d   1      51.540  33.588  52.851  0.00  0.00    -0.210 N 
ATOM     12  C   UNL d   1      51.486  34.098  52.151  0.00  0.00     0.193 A 
ATOM     13  N   UNL d   1      50.739  34.477  52.194  0.00  0.00    -0.222 NA
ATOM     14  C   UNL d   1      50.348  34.208  52.895  0.00  0.00     0.120 A 
ATOM     15  C   UNL d   1      50.854  33.675  53.268  0.00  0.00     0.114 A 
ENDBRANCH   8  11
ENDBRANCH   1   8
BRANCH   3  16
ATOM     16  N   UNL d   1      53.236  30.473  53.364  0.00  0.00    -0.114 N 
ATOM     17  O   UNL d   1      53.043  30.065  52.699  0.00  0.00    -0.532 OA
ATOM     18  O   UNL d   1      53.324  29.968  54.008  0.00  0.00    -0.532 OA
ENDBRANCH   3  16
TORSDOF 3
ENDMDL
MODEL 4
REMARK VINA RESULT:      -8.3      1.265      3.411
REMARK  3 active torsions:
REMARK  status: ('A' for Active; 'I' for Inactive)
REMARK    1  A    between atoms: C_2  and  S_1 
REMARK    2  A    between atoms: N_3  and  S_1 
REMARK    3  A    between atoms: N_4  and  C_6 
ROOT
ATOM      1  C   UNL d   1      53.535  32.880  54.130  0.00  0.00     0.116 A 
ATOM      2  C   UNL d   1      54.273  33.022  54.490  0.00  0.00     0.037 A 
ATOM      3  C   UNL d   1      54.412  33.746  54.845  0.00  0.00     0.127 A 
ATOM      4  C   UNL d   1      52.946  33.470  54.131  0.00  0.00     0.070 A 
ATOM      5  C   UNL d   1      53.807  34.348  54.846  0.00  0.00     0.024 A 
ATOM      6  C   UNL d   1      53.095  34.197  54.491  0.00  0.00     0.014 A 
ATOM      7 CL   UNL d   1      52.289  33.294  53.789  0.00  0.00    -0.082 Cl
ENDROOT
BRANCH   1   8
ATOM      8  S   UNL d   1      53.393  32.130  53.762  0.00  0.00     0.273 S 
ATOM      9  O   UNL d   1      53.518  32.467  53.014  0.00  0.00    -0.200 OA
ATOM     10  O   UNL d   1      53.264  31.776  54.527  0.00  0.00    -0.200 OA
BRANCH   8  11
ATOM     11  N   UNL d   1      53.254  31.402  53.420  0.00  0.00    -0.210 N 
ATOM     12  C   UNL d   1      52.847  31.241  52.670  0.00  0.00     0.193 A 
ATOM     13  N   UNL d   1      52.854  30.408  52.575  0.00  0.00    -0.222 NA
ATOM     14  C   UNL d   1      53.250  30.068  53.241  0.00  0.00     0.120 A 
ATOM     15  C   UNL d   1      53.479  30.690  53.731  0.00  0.00     0.114 A 
ENDBRANCH   8  11
ENDBRANCH   1   8
BRANCH   3  16
ATOM     16  N   UNL d   1      55.138  33.878  55.197  0.00  0.00    -0.114 N 
ATOM     17  O   UNL d   1      55.820  34.066  54.815  0.00  0.00    -0.532 OA
ATOM     18  O   UNL d   1      55.256  33.832  56.010  0.00  0.00    -0.532 OA
ENDBRANCH   3  16
TORSDOF 3
ENDMDL
MODEL 5
REMARK VINA RESULT:      -8.2      2.208      3.507
REMARK  3 active torsions:
REMARK  status: ('A' for Active; 'I' for Inactive)
REMARK    1  A    between atoms: C_2  and  S_1 
REMARK    2  A    between atoms: N_3  and  S_1 
REMARK    3  A    between atoms: N_4  and  C_6 
ROOT
ATOM      1  C   UNL d   1      52.570  33.068  53.155  0.00  0.00     0.116 A 
ATOM      2  C   UNL d   1      51.806  33.269  52.887  0.00  0.00     0.037 A 
ATOM      3  C   UNL d   1      51.594  34.058  52.840  0.00  0.00     0.127 A 
ATOM      4  C   UNL d   1      53.110  33.665  53.372  0.00  0.00     0.070 A 
ATOM      5  C   UNL d   1      52.149  34.667  53.063  0.00  0.00     0.024 A 
ATOM      6  C   UNL d   1      52.887  34.457  53.321  0.00  0.00     0.014 A 
ATOM      7 CL   UNL d   1      53.795  33.432  53.610  0.00  0.00    -0.082 Cl
ENDROOT
BRANCH   1   8
ATOM      8  S   UNL d   1      52.788  32.251  53.203  0.00  0.00     0.273 S 
ATOM      9  O   UNL d   1      53.010  32.258  52.403  0.00  0.00    -0.200 OA
ATOM     10  O   UNL d   1      52.563  32.235  54.025  0.00  0.00    -0.200 OA
BRANCH   8  11
ATOM     11  N   UNL d   1      52.995  31.463  53.261  0.00  0.00    -0.210 N 
ATOM     12  C   UNL d   1      53.672  31.127  53.687  0.00  0.00     0.193 A 
ATOM     13  N   UNL d   1      53.631  30.297  53.573  0.00  0.00    -0.222 NA
ATOM     14  C   UNL d   1      52.953  30.129  53.095  0.00  0.00     0.120 A 
ATOM     15  C   UNL d   1      52.591  30.849  52.924  0.00  0.00     0.114 A 
ENDBRANCH   8  11
ENDBRANCH   1   8
BRANCH   3  16
ATOM     16  N   UNL d   1      50.844  34.248  52.577  0.00  0.00    -0.114 N 
ATOM     17  O   UNL d   1      50.208  34.409  53.042  0.00  0.00    -0.532 OA
ATOM     18  O   UNL d   1      50.649  34.298  51.779  0.00  0.00    -0.532 OA
ENDBRANCH   3  16
TORSDOF 3
ENDMDL
MODEL 6
REMARK VINA RESULT:      -8.0      1.683      2.192
REMARK  3 active torsions:
REMARK  status: ('A' for Active; 'I' for Inactive)
REMARK    1  A    between atoms: C_2  and  S_1 
REMARK    2  A    between atoms: N_3  and  S_1 
REMARK    3  A    between atoms: N_4  and  C_6 
ROOT
ATOM      1  C   UNL d   1      53.196  32.808  53.656  0.00  0.00     0.116 A 
ATOM      2  C   UNL d   1      52.579  33.326  53.444  0.00  0.00     0.037 A 
ATOM      3  C   UNL d   1      51.957  33.043  52.995  0.00  0.00     0.127 A 
ATOM      4  C   UNL d   1      53.180  32.011  53.412  0.00  0.00     0.070 A 
ATOM      5  C   UNL d   1      51.941  32.227  52.746  0.00  0.00     0.024 A 
ATOM      6  C   UNL d   1      52.548  31.735  52.959  0.00  0.00     0.014 A 
ATOM      7 CL   UNL d   1      53.766  31.577  53.630  0.00  0.00    -0.082 Cl
ENDROOT
BRANCH   1   8
ATOM      8  S   UNL d   1      53.840  33.103  54.121  0.00  0.00     0.273 S 
ATOM      9  O   UNL d   1      54.296  33.206  53.435  0.00  0.00    -0.200 OA
ATOM     10  O   UNL d   1      53.379  33.000  54.831  0.00  0.00    -0.200 OA
BRANCH   8  11
ATOM     11  N   UNL d   1      54.453  33.385  54.581  0.00  0.00    -0.210 N 
ATOM     12  C   UNL d   1      54.481  33.441  55.447  0.00  0.00     0.193 A 
ATOM     13  N   UNL d   1      55.230  33.767  55.637  0.00  0.00    -0.222 NA
ATOM     14  C   UNL d   1      55.648  33.907  54.915  0.00  0.00     0.120 A 
ATOM     15  C   UNL d   1      55.156  33.668  54.298  0.00  0.00     0.114 A 
ENDBRANCH   8  11
ENDBRANCH   1   8
BRANCH   3  16
ATOM     16  N   UNL d   1      51.354  33.556  52.791  0.00  0.00    -0.114 N 
ATOM     17  O   UNL d   1      51.383  34.109  52.208  0.00  0.00    -0.532 OA
ATOM     18  O   UNL d   1      50.625  33.564  53.173  0.00  0.00    -0.532 OA
ENDBRANCH   3  16
TORSDOF 3
ENDMDL
