MODEL 1
REMARK VINA RESULT:      57.0      0.000      0.000
REMARK  2 active torsions:
REMARK  status: ('A' for Active; 'I' for Inactive)
REMARK    1  A    between atoms: C_10  and  N_3 
REMARK    2  A    between atoms: C_11  and  C_4 
ROOT
ATOM      1  C   UNL d   1     -58.424 -98.883 -45.219  0.00  0.00     0.152 A 
ATOM      2  C   UNL d   1     -57.735 -98.851 -44.778  0.00  0.00     0.065 A 
ATOM      3  N   UNL d   1     -58.217 -98.946 -46.017  0.00  0.00    -0.290 N 
ATOM      4  C   UNL d   1     -57.094 -98.894 -45.300  0.00  0.00     0.023 A 
ATOM      5  C   UNL d   1     -57.394 -98.952 -46.060  0.00  0.00     0.082 A 
ATOM      6  N   UNL d   1     -59.160 -98.851 -44.846  0.00  0.00    -0.206 NA
ATOM      7  C   UNL d   1     -57.768 -98.787 -43.956  0.00  0.00     0.143 A 
ATOM      8  N   UNL d   1     -58.504 -98.755 -43.582  0.00  0.00    -0.212 NA
ATOM      9  C   UNL d   1     -59.193 -98.787 -44.023  0.00  0.00     0.201 A 
ATOM     10 CL   UNL d   1     -57.078 -98.755 -43.516  0.00  0.00    -0.061 Cl
ENDROOT
BRANCH   3  11
ATOM     11  C   UNL d   1     -58.700 -98.995 -46.671  0.00  0.00     0.065 A 
ATOM     12  C   UNL d   1     -59.468 -99.285 -46.596  0.00  0.00     0.018 A 
ATOM     13  C   UNL d   1     -59.960 -99.335 -47.258  0.00  0.00     0.002 A 
ATOM     14  C   UNL d   1     -59.680 -99.093 -48.006  0.00  0.00     0.000 A 
ATOM     15  C   UNL d   1     -58.909 -98.804 -48.072  0.00  0.00     0.002 A 
ATOM     16  C   UNL d   1     -58.422 -98.755 -47.409  0.00  0.00     0.018 A 
ENDBRANCH   3  11
BRANCH   4  17
ATOM     17  C   UNL d   1     -56.337 -98.871 -44.971  0.00  0.00     0.002 A 
ATOM     18  C   UNL d   1     -55.676 -98.782 -45.459  0.00  0.00     0.000 A 
ATOM     19  C   UNL d   1     -54.919 -98.759 -45.130  0.00  0.00     0.000 A 
ATOM     20  C   UNL d   1     -54.824 -98.825 -44.315  0.00  0.00     0.000 A 
ATOM     21  C   UNL d   1     -55.487 -98.915 -43.828  0.00  0.00     0.000 A 
ATOM     22  C   UNL d   1     -56.239 -98.937 -44.154  0.00  0.00     0.000 A 
ENDBRANCH   4  17
TORSDOF 2
ENDMDL
MODEL 2
REMARK VINA RESULT:      57.2      0.923      3.679
REMARK  2 active torsions:
REMARK  status: ('A' for Active; 'I' for Inactive)
REMARK    1  A    between atoms: C_10  and  N_3 
REMARK    2  A    between atoms: C_11  and  C_4 
ROOT
ATOM      1  C   UNL d   1     -57.857 -98.989 -44.701  0.00  0.00     0.152 A 
ATOM      2  C   UNL d   1     -58.460 -98.948 -45.253  0.00  0.00     0.065 A 
ATOM      3  N   UNL d   1     -57.143 -99.088 -45.107  0.00  0.00    -0.290 N 
ATOM      4  C   UNL d   1     -58.126 -99.021 -46.006  0.00  0.00     0.023 A 
ATOM      5  C   UNL d   1     -57.316 -99.107 -45.912  0.00  0.00     0.082 A 
ATOM      6  N   UNL d   1     -58.024 -98.932 -43.895  0.00  0.00    -0.206 NA
ATOM      7  C   UNL d   1     -59.242 -98.849 -45.009  0.00  0.00     0.143 A 
ATOM      8  N   UNL d   1     -59.411 -98.792 -44.203  0.00  0.00    -0.212 NA
ATOM      9  C   UNL d   1     -58.807 -98.833 -43.651  0.00  0.00     0.201 A 
ATOM     10 CL   UNL d   1     -59.846 -98.808 -45.562  0.00  0.00    -0.061 Cl
ENDROOT
BRANCH   3  11
ATOM     11  C   UNL d   1     -56.389 -99.158 -44.809  0.00  0.00     0.065 A 
ATOM     12  C   UNL d   1     -55.764 -98.757 -45.167  0.00  0.00     0.018 A 
ATOM     13  C   UNL d   1     -54.998 -98.827 -44.865  0.00  0.00     0.002 A 
ATOM     14  C   UNL d   1     -54.854 -99.305 -44.196  0.00  0.00     0.000 A 
ATOM     15  C   UNL d   1     -55.486 -99.704 -43.843  0.00  0.00     0.002 A 
ATOM     16  C   UNL d   1     -56.249 -99.631 -44.148  0.00  0.00     0.018 A 
ENDBRANCH   3  11
BRANCH   4  17
ATOM     17  C   UNL d   1     -58.639 -98.995 -46.652  0.00  0.00     0.002 A 
ATOM     18  C   UNL d   1     -59.440 -98.828 -46.538  0.00  0.00     0.000 A 
ATOM     19  C   UNL d   1     -59.954 -98.801 -47.184  0.00  0.00     0.000 A 
ATOM     20  C   UNL d   1     -59.665 -98.942 -47.942  0.00  0.00     0.000 A 
ATOM     21  C   UNL d   1     -58.863 -99.108 -48.055  0.00  0.00     0.000 A 
ATOM     22  C   UNL d   1     -58.353 -99.135 -47.413  0.00  0.00     0.000 A 
ENDBRANCH   4  17
TORSDOF 2
ENDMDL
MODEL 3
REMARK VINA RESULT:      58.0      2.072      3.129
REMARK  2 active torsions:
REMARK  status: ('A' for Active; 'I' for Inactive)
REMARK    1  A    between atoms: C_10  and  N_3 
REMARK    2  A    between atoms: C_11  and  C_4 
ROOT
ATOM      1  C   UNL d   1     -56.670 -99.519 -44.587  0.00  0.00     0.152 A 
ATOM      2  C   UNL d   1     -56.055-100.048 -44.471  0.00  0.00     0.065 A 
ATOM      3  N   UNL d   1     -57.317 -99.774 -44.140  0.00  0.00    -0.290 N 
ATOM      4  C   UNL d   1     -56.317-100.635 -43.951  0.00  0.00     0.023 A 
ATOM      5  C   UNL d   1     -57.093-100.463 -43.750  0.00  0.00     0.082 A 
ATOM      6  N   UNL d   1     -56.571 -98.868 -45.085  0.00  0.00    -0.206 NA
ATOM      7  C   UNL d   1     -55.331 -99.936 -44.850  0.00  0.00     0.143 A 
ATOM      8  N   UNL d   1     -55.232 -99.285 -45.348  0.00  0.00    -0.212 NA
ATOM      9  C   UNL d   1     -55.846 -98.755 -45.464  0.00  0.00     0.201 A 
ATOM     10 CL   UNL d   1     -54.717-100.465 -44.734  0.00  0.00    -0.061 Cl
ENDROOT
BRANCH   3  11
ATOM     11  C   UNL d   1     -58.056 -99.438 -44.069  0.00  0.00     0.065 A 
ATOM     12  C   UNL d   1     -58.294 -99.113 -43.350  0.00  0.00     0.018 A 
ATOM     13  C   UNL d   1     -59.043 -98.772 -43.276  0.00  0.00     0.002 A 
ATOM     14  C   UNL d   1     -59.561 -98.755 -43.931  0.00  0.00     0.000 A 
ATOM     15  C   UNL d   1     -59.314 -99.083 -44.647  0.00  0.00     0.002 A 
ATOM     16  C   UNL d   1     -58.566 -99.422 -44.716  0.00  0.00     0.018 A 
ENDBRANCH   3  11
BRANCH   4  17
ATOM     17  C   UNL d   1     -55.782-101.232 -43.755  0.00  0.00     0.002 A 
ATOM     18  C   UNL d   1     -55.695-101.890 -44.247  0.00  0.00     0.000 A 
ATOM     19  C   UNL d   1     -55.159-102.486 -44.051  0.00  0.00     0.000 A 
ATOM     20  C   UNL d   1     -54.712-102.425 -43.363  0.00  0.00     0.000 A 
ATOM     21  C   UNL d   1     -54.799-101.766 -42.870  0.00  0.00     0.000 A 
ATOM     22  C   UNL d   1     -55.331-101.173 -43.065  0.00  0.00     0.000 A 
ENDBRANCH   4  17
TORSDOF 2
ENDMDL
