MODEL 1
REMARK VINA RESULT:      -7.9      0.000      0.000
REMARK  1 active torsions:
REMARK  status: ('A' for Active; 'I' for Inactive)
REMARK    1  A    between atoms: C_10  and  C_7 
ROOT
ATOM      1  N   UNL d   1     -47.104  12.709  23.157  0.00  0.00    -0.259 N 
ATOM      2  C   UNL d   1     -46.752  13.449  22.973  0.00  0.00     0.202 A 
ATOM      3  C   UNL d   1     -46.515  12.237  23.439  0.00  0.00     0.227 A 
ATOM      4  C   UNL d   1     -47.865  12.764  22.984  0.00  0.00     0.091 A 
ATOM      5  S   UNL d   1     -47.315  13.940  22.690  0.00  0.00    -0.047 SA
ATOM      6  N   UNL d   1     -45.957  13.399  23.150  0.00  0.00    -0.121 NA
ATOM      7  C   UNL d   1     -48.010  13.508  22.698  0.00  0.00     0.050 A 
ATOM      8  N   UNL d   1     -45.815  12.628  23.446  0.00  0.00    -0.116 NA
ATOM      9  S   UNL d   1     -46.643  11.420  23.696  0.00  0.00    -0.036 SA
ENDROOT
BRANCH   7  10
ATOM     10  C   UNL d   1     -48.750  13.732  22.471  0.00  0.00     0.007 A 
ATOM     11  C   UNL d   1     -49.158  14.272  22.948  0.00  0.00     0.001 A 
ATOM     12  C   UNL d   1     -49.918  14.524  22.747  0.00  0.00     0.000 A 
ATOM     13  C   UNL d   1     -50.254  14.207  22.041  0.00  0.00     0.000 A 
ATOM     14  C   UNL d   1     -49.856  13.671  21.564  0.00  0.00     0.000 A 
ATOM     15  C   UNL d   1     -51.064  14.420  21.748  0.00  0.00     0.000 C 
ATOM     16  C   UNL d   1     -49.097  13.428  21.777  0.00  0.00     0.001 A 
ENDBRANCH   7  10
TORSDOF 1
ENDMDL
MODEL 2
REMARK VINA RESULT:      -7.7      2.262      3.627
REMARK  1 active torsions:
REMARK  status: ('A' for Active; 'I' for Inactive)
REMARK    1  A    between atoms: C_10  and  C_7 
ROOT
ATOM      1  N   UNL d   1     -49.720  14.487  23.043  0.00  0.00    -0.259 N 
ATOM      2  C   UNL d   1     -49.503  15.178  22.617  0.00  0.00     0.202 A 
ATOM      3  C   UNL d   1     -50.495  14.576  23.247  0.00  0.00     0.227 A 
ATOM      4  C   UNL d   1     -49.089  14.027  23.077  0.00  0.00     0.091 A 
ATOM      5  S   UNL d   1     -48.737  15.119  22.402  0.00  0.00    -0.047 SA
ATOM      6  N   UNL d   1     -50.158  15.664  22.578  0.00  0.00    -0.121 NA
ATOM      7  C   UNL d   1     -48.480  14.398  22.691  0.00  0.00     0.050 A 
ATOM      8  N   UNL d   1     -50.782  15.274  22.979  0.00  0.00    -0.116 NA
ATOM      9  S   UNL d   1     -50.939  13.982  23.695  0.00  0.00    -0.036 SA
ENDROOT
BRANCH   7  10
ATOM     10  C   UNL d   1     -47.752  14.056  22.633  0.00  0.00     0.007 A 
ATOM     11  C   UNL d   1     -47.105  14.460  22.953  0.00  0.00     0.001 A 
ATOM     12  C   UNL d   1     -46.345  14.141  22.912  0.00  0.00     0.000 A 
ATOM     13  C   UNL d   1     -46.262  13.391  22.532  0.00  0.00     0.000 A 
ATOM     14  C   UNL d   1     -46.900  12.985  22.213  0.00  0.00     0.000 A 
ATOM     15  C   UNL d   1     -45.485  12.974  22.443  0.00  0.00     0.000 C 
ATOM     16  C   UNL d   1     -47.654  13.316  22.261  0.00  0.00     0.001 A 
ENDBRANCH   7  10
TORSDOF 1
ENDMDL
MODEL 3
REMARK VINA RESULT:      -7.4      2.167      3.585
REMARK  1 active torsions:
REMARK  status: ('A' for Active; 'I' for Inactive)
REMARK    1  A    between atoms: C_10  and  C_7 
ROOT
ATOM      1  N   UNL d   1     -49.792  12.648  23.407  0.00  0.00    -0.259 N 
ATOM      2  C   UNL d   1     -49.620  11.825  23.398  0.00  0.00     0.202 A 
ATOM      3  C   UNL d   1     -50.574  12.718  23.590  0.00  0.00     0.227 A 
ATOM      4  C   UNL d   1     -49.129  13.025  23.236  0.00  0.00     0.091 A 
ATOM      5  S   UNL d   1     -48.849  11.724  23.219  0.00  0.00    -0.047 SA
ATOM      6  N   UNL d   1     -50.309  11.424  23.577  0.00  0.00    -0.121 NA
ATOM      7  C   UNL d   1     -48.545  12.477  23.118  0.00  0.00     0.050 A 
ATOM      8  N   UNL d   1     -50.908  11.998  23.697  0.00  0.00    -0.116 NA
ATOM      9  S   UNL d   1     -50.979  13.481  23.657  0.00  0.00    -0.036 SA
ENDROOT
BRANCH   7  10
ATOM     10  C   UNL d   1     -47.793  12.701  22.932  0.00  0.00     0.007 A 
ATOM     11  C   UNL d   1     -47.191  12.540  23.477  0.00  0.00     0.001 A 
ATOM     12  C   UNL d   1     -46.410  12.755  23.320  0.00  0.00     0.000 A 
ATOM     13  C   UNL d   1     -46.257  13.141  22.585  0.00  0.00     0.000 A 
ATOM     14  C   UNL d   1     -46.849  13.303  22.040  0.00  0.00     0.000 A 
ATOM     15  C   UNL d   1     -45.450  13.407  22.333  0.00  0.00     0.000 C 
ATOM     16  C   UNL d   1     -47.625  13.083  22.210  0.00  0.00     0.001 A 
ENDBRANCH   7  10
TORSDOF 1
ENDMDL
MODEL 4
REMARK VINA RESULT:      -6.0      8.608      9.418
REMARK  1 active torsions:
REMARK  status: ('A' for Active; 'I' for Inactive)
REMARK    1  A    between atoms: C_10  and  C_7 
ROOT
ATOM      1  N   UNL d   1     -40.291  15.178  18.206  0.00  0.00    -0.259 N 
ATOM      2  C   UNL d   1     -40.633  14.450  18.447  0.00  0.00     0.202 A 
ATOM      3  C   UNL d   1     -40.390  15.226  17.407  0.00  0.00     0.227 A 
ATOM      4  C   UNL d   1     -40.010  15.526  18.846  0.00  0.00     0.091 A 
ATOM      5  S   UNL d   1     -40.550  14.374  19.237  0.00  0.00    -0.047 SA
ATOM      6  N   UNL d   1     -40.930  14.079  17.782  0.00  0.00    -0.121 NA
ATOM      7  C   UNL d   1     -40.160  15.050  19.484  0.00  0.00     0.050 A 
ATOM      8  N   UNL d   1     -40.771  14.578  17.128  0.00  0.00    -0.116 NA
ATOM      9  S   UNL d   1     -40.114  15.896  16.933  0.00  0.00    -0.036 SA
ENDROOT
BRANCH   7  10
ATOM     10  C   UNL d   1     -39.933  15.263  20.228  0.00  0.00     0.007 A 
ATOM     11  C   UNL d   1     -40.471  15.684  20.694  0.00  0.00     0.001 A 
ATOM     12  C   UNL d   1     -40.274  15.920  21.460  0.00  0.00     0.000 A 
ATOM     13  C   UNL d   1     -39.505  15.711  21.741  0.00  0.00     0.000 A 
ATOM     14  C   UNL d   1     -38.967  15.294  21.284  0.00  0.00     0.000 A 
ATOM     15  C   UNL d   1     -39.208  15.922  22.549  0.00  0.00     0.000 C 
ATOM     16  C   UNL d   1     -39.178  15.066  20.520  0.00  0.00     0.001 A 
ENDBRANCH   7  10
TORSDOF 1
ENDMDL
MODEL 5
REMARK VINA RESULT:      -5.4      8.533      8.986
REMARK  1 active torsions:
REMARK  status: ('A' for Active; 'I' for Inactive)
REMARK    1  A    between atoms: C_10  and  C_7 
ROOT
ATOM      1  N   UNL d   1     -39.251  14.143  20.606  0.00  0.00    -0.259 N 
ATOM      2  C   UNL d   1     -39.987  14.297  20.979  0.00  0.00     0.202 A 
ATOM      3  C   UNL d   1     -38.761  13.847  21.174  0.00  0.00     0.227 A 
ATOM      4  C   UNL d   1     -39.325  14.344  19.854  0.00  0.00     0.091 A 
ATOM      5  S   UNL d   1     -40.495  14.591  20.438  0.00  0.00    -0.047 SA
ATOM      6  N   UNL d   1     -39.918  14.089  21.766  0.00  0.00    -0.121 NA
ATOM      7  C   UNL d   1     -40.077  14.619  19.735  0.00  0.00     0.050 A 
ATOM      8  N   UNL d   1     -39.137  13.805  21.880  0.00  0.00    -0.116 NA
ATOM      9  S   UNL d   1     -37.941  13.614  21.020  0.00  0.00    -0.036 SA
ENDROOT
BRANCH   7  10
ATOM     10  C   UNL d   1     -40.321  14.871  19.008  0.00  0.00     0.007 A 
ATOM     11  C   UNL d   1     -40.432  14.303  18.416  0.00  0.00     0.001 A 
ATOM     12  C   UNL d   1     -40.680  14.523  17.661  0.00  0.00     0.000 A 
ATOM     13  C   UNL d   1     -40.814  15.346  17.524  0.00  0.00     0.000 A 
ATOM     14  C   UNL d   1     -40.705  15.913  18.106  0.00  0.00     0.000 A 
ATOM     15  C   UNL d   1     -41.081  15.672  16.744  0.00  0.00     0.000 C 
ATOM     16  C   UNL d   1     -40.456  15.679  18.857  0.00  0.00     0.001 A 
ENDBRANCH   7  10
TORSDOF 1
ENDMDL
MODEL 6
REMARK VINA RESULT:      -5.1      8.796     10.032
REMARK  1 active torsions:
REMARK  status: ('A' for Active; 'I' for Inactive)
REMARK    1  A    between atoms: C_10  and  C_7 
ROOT
ATOM      1  N   UNL d   1     -38.955  14.948  17.188  0.00  0.00    -0.259 N 
ATOM      2  C   UNL d   1     -39.212  14.153  17.277  0.00  0.00     0.202 A 
ATOM      3  C   UNL d   1     -38.530  14.977  16.503  0.00  0.00     0.227 A 
ATOM      4  C   UNL d   1     -39.226  15.350  17.801  0.00  0.00     0.091 A 
ATOM      5  S   UNL d   1     -39.638  14.093  17.950  0.00  0.00    -0.047 SA
ATOM      6  N   UNL d   1     -38.933  13.726  16.640  0.00  0.00    -0.121 NA
ATOM      7  C   UNL d   1     -39.644  14.844  18.275  0.00  0.00     0.050 A 
ATOM      8  N   UNL d   1     -38.502  14.257  16.154  0.00  0.00    -0.116 NA
ATOM      9  S   UNL d   1     -38.162  15.702  16.203  0.00  0.00    -0.036 SA
ENDROOT
BRANCH   7  10
ATOM     10  C   UNL d   1     -39.993  15.101  18.956  0.00  0.00     0.007 A 
ATOM     11  C   UNL d   1     -39.734  14.779  19.673  0.00  0.00     0.001 A 
ATOM     12  C   UNL d   1     -40.068  15.017  20.389  0.00  0.00     0.000 A 
ATOM     13  C   UNL d   1     -40.679  15.599  20.354  0.00  0.00     0.000 A 
ATOM     14  C   UNL d   1     -40.940  15.922  19.646  0.00  0.00     0.000 A 
ATOM     15  C   UNL d   1     -41.094  15.914  21.071  0.00  0.00     0.000 C 
ATOM     16  C   UNL d   1     -40.597  15.674  18.938  0.00  0.00     0.001 A 
ENDBRANCH   7  10
TORSDOF 1
ENDMDL
MODEL 7
REMARK VINA RESULT:      -5.1      8.585      9.969
REMARK  1 active torsions:
REMARK  status: ('A' for Active; 'I' for Inactive)
REMARK    1  A    between atoms: C_10  and  C_7 
ROOT
ATOM      1  N   UNL d   1     -39.806  15.086  19.906  0.00  0.00    -0.259 N 
ATOM      2  C   UNL d   1     -40.537  14.715  19.724  0.00  0.00     0.202 A 
ATOM      3  C   UNL d   1     -39.892  15.420  20.635  0.00  0.00     0.227 A 
ATOM      4  C   UNL d   1     -39.326  14.964  19.301  0.00  0.00     0.091 A 
ATOM      5  S   UNL d   1     -40.481  14.374  19.004  0.00  0.00    -0.047 SA
ATOM      6  N   UNL d   1     -41.044  14.838  20.352  0.00  0.00    -0.121 NA
ATOM      7  C   UNL d   1     -39.722  14.532  18.743  0.00  0.00     0.050 A 
ATOM      8  N   UNL d   1     -40.627  15.285  20.925  0.00  0.00    -0.116 NA
ATOM      9  S   UNL d   1     -39.262  15.860  21.033  0.00  0.00    -0.036 SA
ENDROOT
BRANCH   7  10
ATOM     10  C   UNL d   1     -39.368  14.319  18.050  0.00  0.00     0.007 A 
ATOM     11  C   UNL d   1     -38.998  13.579  18.013  0.00  0.00     0.001 A 
ATOM     12  C   UNL d   1     -38.625  13.327  17.321  0.00  0.00     0.000 A 
ATOM     13  C   UNL d   1     -38.640  13.855  16.662  0.00  0.00     0.000 A 
ATOM     14  C   UNL d   1     -39.006  14.589  16.692  0.00  0.00     0.000 A 
ATOM     15  C   UNL d   1     -38.266  13.668  15.880  0.00  0.00     0.000 C 
ATOM     16  C   UNL d   1     -39.374  14.827  17.390  0.00  0.00     0.001 A 
ENDBRANCH   7  10
TORSDOF 1
ENDMDL
