MODEL 1
REMARK VINA RESULT:      30.3      0.000      0.000
REMARK  2 active torsions:
REMARK  status: ('A' for Active; 'I' for Inactive)
REMARK    1  A    between atoms: N_6  and  C_1 
REMARK    2  A    between atoms: C_7  and  C_2 
REMARK       I    between atoms: C_8  and  N_6 
ROOT
ATOM      1  C   UNL d   1      59.068  49.700  50.545  0.00  0.00     0.119 A 
ATOM      2  C   UNL d   1      59.250  49.692  51.326  0.00  0.00     0.084 A 
ATOM      3  S   UNL d   1      59.779  49.703  50.108  0.00  0.00    -0.068 SA
ATOM      4  C   UNL d   1      60.056  49.690  51.400  0.00  0.00     0.013 A 
ATOM      5  C   UNL d   1      60.387  49.697  50.638  0.00  0.00     0.031 A 
ATOM      6  C   UNL d   1      60.545  49.684  52.064  0.00  0.00     0.001 A 
ATOM      7  C   UNL d   1      61.208  49.697  50.562  0.00  0.00     0.006 A 
ATOM      8  C   UNL d   1      61.371  49.683  51.970  0.00  0.00     0.000 A 
ATOM      9  C   UNL d   1      61.679  49.690  51.229  0.00  0.00     0.001 A 
ENDROOT
BRANCH   1  10
ATOM     10  N   UNL d   1      58.275  49.704  50.228  0.00  0.00    -0.201 NA
ATOM     11  C   UNL d   1      58.132  49.619  49.423  0.00  0.00     0.280 C 
ATOM     12  O   UNL d   1      58.771  49.525  48.887  0.00  0.00    -0.265 OA
ATOM     13  C   UNL d   1      57.361  49.625  49.129  0.00  0.00     0.068 C 
ENDBRANCH   1  10
BRANCH   2  14
ATOM     14  C   UNL d   1      58.678  49.687  51.946  0.00  0.00     0.299 C 
ATOM     15  O   UNL d   1      58.956  49.703  52.729  0.00  0.00    -0.264 OA
ATOM     16  N   UNL d   1      57.872  49.667  51.793  0.00  0.00    -0.102 N 
ENDBRANCH   2  14
TORSDOF 2
ENDMDL
MODEL 2
REMARK VINA RESULT:      31.4      1.637      3.399
REMARK  2 active torsions:
REMARK  status: ('A' for Active; 'I' for Inactive)
REMARK    1  A    between atoms: N_6  and  C_1 
REMARK    2  A    between atoms: C_7  and  C_2 
REMARK       I    between atoms: C_8  and  N_6 
ROOT
ATOM      1  C   UNL d   1      60.498  49.556  51.544  0.00  0.00     0.119 A 
ATOM      2  C   UNL d   1      60.362  49.381  50.773  0.00  0.00     0.084 A 
ATOM      3  S   UNL d   1      59.765  49.708  51.914  0.00  0.00    -0.068 SA
ATOM      4  C   UNL d   1      59.564  49.416  50.640  0.00  0.00     0.013 A 
ATOM      5  C   UNL d   1      59.191  49.621  51.354  0.00  0.00     0.031 A 
ATOM      6  C   UNL d   1      59.116  49.289  49.960  0.00  0.00     0.001 A 
ATOM      7  C   UNL d   1      58.369  49.693  51.365  0.00  0.00     0.006 A 
ATOM      8  C   UNL d   1      58.290  49.366  49.988  0.00  0.00     0.000 A 
ATOM      9  C   UNL d   1      57.940  49.564  50.683  0.00  0.00     0.001 A 
ENDROOT
BRANCH   1  10
ATOM     10  N   UNL d   1      61.269  49.580  51.911  0.00  0.00    -0.201 NA
ATOM     11  C   UNL d   1      61.357  49.562  52.728  0.00  0.00     0.280 C 
ATOM     12  O   UNL d   1      60.684  49.519  53.227  0.00  0.00    -0.265 OA
ATOM     13  C   UNL d   1      62.108  49.585  53.071  0.00  0.00     0.068 C 
ENDBRANCH   1  10
BRANCH   2  14
ATOM     14  C   UNL d   1      60.967  49.194  50.215  0.00  0.00     0.299 C 
ATOM     15  O   UNL d   1      61.408  48.500  50.340  0.00  0.00    -0.264 OA
ATOM     16  N   UNL d   1      61.124  49.674  49.569  0.00  0.00    -0.102 N 
ENDBRANCH   2  14
TORSDOF 2
ENDMDL
MODEL 3
REMARK VINA RESULT:      31.7      1.203      1.968
REMARK  2 active torsions:
REMARK  status: ('A' for Active; 'I' for Inactive)
REMARK    1  A    between atoms: N_6  and  C_1 
REMARK    2  A    between atoms: C_7  and  C_2 
REMARK       I    between atoms: C_8  and  N_6 
ROOT
ATOM      1  C   UNL d   1      58.986  49.686  51.245  0.00  0.00     0.119 A 
ATOM      2  C   UNL d   1      59.727  49.664  50.938  0.00  0.00     0.084 A 
ATOM      3  S   UNL d   1      59.045  49.705  52.078  0.00  0.00    -0.068 SA
ATOM      4  C   UNL d   1      60.257  49.668  51.551  0.00  0.00     0.013 A 
ATOM      5  C   UNL d   1      59.830  49.694  52.263  0.00  0.00     0.031 A 
ATOM      6  C   UNL d   1      61.081  49.652  51.562  0.00  0.00     0.001 A 
ATOM      7  C   UNL d   1      60.247  49.703  52.975  0.00  0.00     0.006 A 
ATOM      8  C   UNL d   1      61.486  49.661  52.287  0.00  0.00     0.000 A 
ATOM      9  C   UNL d   1      61.063  49.686  52.969  0.00  0.00     0.001 A 
ENDROOT
BRANCH   1  10
ATOM     10  N   UNL d   1      58.267  49.689  50.785  0.00  0.00    -0.201 NA
ATOM     11  C   UNL d   1      57.571  49.357  51.071  0.00  0.00     0.280 C 
ATOM     12  O   UNL d   1      57.551  49.003  51.832  0.00  0.00    -0.265 OA
ATOM     13  C   UNL d   1      56.882  49.367  50.616  0.00  0.00     0.068 C 
ENDBRANCH   1  10
BRANCH   2  14
ATOM     14  C   UNL d   1      59.898  49.640  50.112  0.00  0.00     0.299 C 
ATOM     15  O   UNL d   1      59.260  49.706  49.583  0.00  0.00    -0.264 OA
ATOM     16  N   UNL d   1      60.663  49.556  49.830  0.00  0.00    -0.102 N 
ENDBRANCH   2  14
TORSDOF 2
ENDMDL
