MODEL 1
REMARK VINA RESULT:      75.0      0.000      0.000
REMARK  9 active torsions:
REMARK  status: ('A' for Active; 'I' for Inactive)
REMARK    1  A    between atoms: C_17  and  N_4 
REMARK    2  A    between atoms: S_16  and  C_7 
REMARK    3  A    between atoms: S_15  and  C_8 
REMARK    4  A    between atoms: C_10  and  C_19 
REMARK    5  A    between atoms: C_22  and  S_15 
REMARK    6  A    between atoms: C_19  and  S_16 
REMARK    7  A    between atoms: C_20  and  C_22 
REMARK    8  A    between atoms: O_24  and  C_20 
REMARK    9  A    between atoms: C_28  and  O_24 
ROOT
ATOM      1  N   UNL d   1      13.891  15.323  -4.709  0.00  0.00    -0.269 N 
ATOM      2  C   UNL d   1      13.589  14.576  -4.825  0.00  0.00     0.201 A 
ATOM      3  C   UNL d   1      13.861  15.770  -5.418  0.00  0.00     0.177 A 
ATOM      4  N   UNL d   1      13.358  14.529  -5.611  0.00  0.00    -0.121 NA
ATOM      5  N   UNL d   1      13.520  15.255  -5.984  0.00  0.00    -0.127 NA
ENDROOT
BRANCH   3   6
ATOM      6  C   UNL d   1      14.128  16.540  -5.464  0.00  0.00     0.078 C 
BRANCH   6   7
ATOM      7  S   UNL d   1      13.944  16.997  -6.121  0.00  0.00    -0.045 SA
BRANCH   7   8
ATOM      8  C   UNL d   1      14.012  17.825  -6.086  0.00  0.00     0.198 A 
ATOM      9  N   UNL d   1      13.345  18.344  -6.258  0.00  0.00    -0.183 NA
ATOM     10  C   UNL d   1      13.417  19.166  -6.222  0.00  0.00     0.283 A 
ATOM     11  C   UNL d   1      14.159  19.507  -6.012  0.00  0.00     0.082 A 
ATOM     12  O   UNL d   1      12.770  19.659  -6.388  0.00  0.00    -0.265 OA
ATOM     13  C   UNL d   1      14.811  19.003  -5.845  0.00  0.00     0.117 A 
ATOM     14  C   UNL d   1      14.399  20.298  -5.931  0.00  0.00     0.013 A 
ATOM     15  N   UNL d   1      14.739  18.177  -5.881  0.00  0.00    -0.214 NA
ATOM     16  S   UNL d   1      15.448  19.507  -5.661  0.00  0.00    -0.068 SA
ATOM     17  C   UNL d   1      15.186  20.305  -5.716  0.00  0.00     0.031 A 
ATOM     18  C   UNL d   1      15.615  20.997  -5.585  0.00  0.00     0.006 A 
ATOM     19  C   UNL d   1      15.214  21.733  -5.680  0.00  0.00     0.001 A 
ATOM     20  C   UNL d   1      14.408  21.727  -5.900  0.00  0.00     0.000 A 
ATOM     21  C   UNL d   1      14.001  21.009  -6.025  0.00  0.00     0.001 A 
ENDBRANCH   7   8
ENDBRANCH   6   7
ENDBRANCH   3   6
BRANCH   1  22
ATOM     22  C   UNL d   1      14.187  15.591  -3.978  0.00  0.00     0.067 A 
ATOM     23  C   UNL d   1      13.738  15.495  -3.289  0.00  0.00     0.018 A 
ATOM     24  C   UNL d   1      14.025  15.756  -2.570  0.00  0.00     0.002 A 
ATOM     25  C   UNL d   1      14.761  16.118  -2.523  0.00  0.00     0.000 A 
ATOM     26  C   UNL d   1      15.211  16.219  -3.189  0.00  0.00     0.002 A 
ATOM     27  C   UNL d   1      14.924  15.955  -3.921  0.00  0.00     0.018 A 
ENDBRANCH   1  22
BRANCH   2  28
ATOM     28  S   UNL d   1      13.521  13.968  -4.266  0.00  0.00    -0.042 SA
BRANCH  28  29
ATOM     29  C   UNL d   1      13.568  13.200  -4.496  0.00  0.00     0.107 C 
BRANCH  29  30
ATOM     30  C   UNL d   1      13.325  12.596  -3.995  0.00  0.00     0.307 C 
ATOM     31  O   UNL d   1      12.837  11.997  -4.286  0.00  0.00    -0.258 OA
BRANCH  30  32
ATOM     32  O   UNL d   1      13.550  12.568  -3.210  0.00  0.00    -0.271 OA
BRANCH  32  33
ATOM     33  C   UNL d   1      13.858  11.900  -2.863  0.00  0.00     0.126 C 
ATOM     34  C   UNL d   1      13.956  11.819  -2.080  0.00  0.00     0.029 C 
ENDBRANCH  32  33
ENDBRANCH  30  32
ENDBRANCH  29  30
ENDBRANCH  28  29
ENDBRANCH   2  28
TORSDOF 9
ENDMDL
