MODEL 1
REMARK VINA RESULT:      -5.2      0.000      0.000
REMARK  4 active torsions:
REMARK  status: ('A' for Active; 'I' for Inactive)
REMARK    1  A    between atoms: N_10  and  C_1 
REMARK       I    between atoms: C_12  and  N_10 
REMARK    2  A    between atoms: C_17  and  C_12 
REMARK    3  A    between atoms: C_18  and  C_17 
REMARK    4  A    between atoms: C_19  and  C_18 
ROOT
ATOM      1  C   UNL d   1     -41.527-122.504 -51.780  0.00  0.00     0.197 A 
ATOM      2  C   UNL d   1     -41.613-122.523 -53.094  0.00  0.00     0.057 A 
ATOM      3  C   UNL d   1     -41.726-122.376 -53.870  0.00  0.00     0.056 A 
ATOM      4  N   UNL d   1     -41.262-123.220 -52.006  0.00  0.00    -0.221 NA
ATOM      5  S   UNL d   1     -41.755-122.040 -52.431  0.00  0.00    -0.046 SA
ATOM      6  N   UNL d   1     -41.711-122.647 -55.158  0.00  0.00    -0.238 NA
ATOM      7  S   UNL d   1     -42.006-121.736 -54.273  0.00  0.00    -0.066 SA
ATOM      8  C   UNL d   1     -41.313-123.238 -52.836  0.00  0.00     0.090 A 
ATOM      9  C   UNL d   1     -41.542-122.947 -54.436  0.00  0.00     0.088 A 
ATOM     10  C   UNL d   1     -41.994-121.917 -55.111  0.00  0.00     0.111 A 
ATOM     11  C   UNL d   1     -41.241-123.669 -54.204  0.00  0.00     0.021 A 
ATOM     12  C   UNL d   1     -41.125-123.816 -53.386  0.00  0.00     0.021 A 
ATOM     13  C   UNL d   1     -42.231-121.428 -55.743  0.00  0.00     0.028 C 
ENDROOT
BRANCH   1  14
ATOM     14  N   UNL d   1     -41.576-122.234 -50.975  0.00  0.00    -0.183 NA
ATOM     15  C   UNL d   1     -42.095-122.607 -50.471  0.00  0.00     0.281 C 
ATOM     16  O   UNL d   1     -42.548-123.244 -50.803  0.00  0.00    -0.265 OA
BRANCH  15  17
ATOM     17  C   UNL d   1     -42.140-122.358 -49.731  0.00  0.00     0.063 C 
BRANCH  17  18
ATOM     18  C   UNL d   1     -42.368-122.978 -49.048  0.00  0.00     0.005 C 
BRANCH  18  19
ATOM     19  C   UNL d   1     -42.181-122.761 -48.147  0.00  0.00     0.000 C 
ATOM     20  C   UNL d   1     -42.396-123.160 -47.455  0.00  0.00     0.000 C 
ENDBRANCH  18  19
ENDBRANCH  17  18
ENDBRANCH  15  17
ENDBRANCH   1  14
TORSDOF 4
ENDMDL
MODEL 2
REMARK VINA RESULT:      -5.1      1.418      4.993
REMARK  4 active torsions:
REMARK  status: ('A' for Active; 'I' for Inactive)
REMARK    1  A    between atoms: N_10  and  C_1 
REMARK       I    between atoms: C_12  and  N_10 
REMARK    2  A    between atoms: C_17  and  C_12 
REMARK    3  A    between atoms: C_18  and  C_17 
REMARK    4  A    between atoms: C_19  and  C_18 
ROOT
ATOM      1  C   UNL d   1     -41.780-122.386 -51.385  0.00  0.00     0.197 A 
ATOM      2  C   UNL d   1     -41.955-122.742 -50.130  0.00  0.00     0.057 A 
ATOM      3  C   UNL d   1     -41.892-122.991 -49.375  0.00  0.00     0.056 A 
ATOM      4  N   UNL d   1     -42.554-122.272 -51.232  0.00  0.00    -0.221 NA
ATOM      5  S   UNL d   1     -41.373-122.678 -50.722  0.00  0.00    -0.046 SA
ATOM      6  N   UNL d   1     -42.326-123.279 -48.166  0.00  0.00    -0.238 NA
ATOM      7  S   UNL d   1     -41.273-123.259 -48.933  0.00  0.00    -0.066 SA
ATOM      8  C   UNL d   1     -42.670-122.496 -50.438  0.00  0.00     0.090 A 
ATOM      9  C   UNL d   1     -42.554-123.007 -48.882  0.00  0.00     0.088 A 
ATOM     10  C   UNL d   1     -41.560-123.445 -48.147  0.00  0.00     0.111 A 
ATOM     11  C   UNL d   1     -43.280-122.766 -49.167  0.00  0.00     0.021 A 
ATOM     12  C   UNL d   1     -43.337-122.506 -49.962  0.00  0.00     0.021 A 
ATOM     13  C   UNL d   1     -41.124-123.738 -47.500  0.00  0.00     0.028 C 
ENDROOT
BRANCH   1  14
ATOM     14  N   UNL d   1     -41.404-122.230 -52.133  0.00  0.00    -0.183 NA
ATOM     15  C   UNL d   1     -41.469-122.787 -52.723  0.00  0.00     0.281 C 
ATOM     16  O   UNL d   1     -41.915-123.485 -52.534  0.00  0.00    -0.265 OA
BRANCH  15  17
ATOM     17  C   UNL d   1     -41.124-122.644 -53.410  0.00  0.00     0.063 C 
BRANCH  17  18
ATOM     18  C   UNL d   1     -41.597-122.829 -54.213  0.00  0.00     0.005 C 
BRANCH  18  19
ATOM     19  C   UNL d   1     -41.380-122.345 -54.997  0.00  0.00     0.000 C 
ATOM     20  C   UNL d   1     -41.881-121.952 -55.525  0.00  0.00     0.000 C 
ENDBRANCH  18  19
ENDBRANCH  17  18
ENDBRANCH  15  17
ENDBRANCH   1  14
TORSDOF 4
ENDMDL
MODEL 3
REMARK VINA RESULT:      -3.0      1.408      4.810
REMARK  4 active torsions:
REMARK  status: ('A' for Active; 'I' for Inactive)
REMARK    1  A    between atoms: N_10  and  C_1 
REMARK       I    between atoms: C_12  and  N_10 
REMARK    2  A    between atoms: C_17  and  C_12 
REMARK    3  A    between atoms: C_18  and  C_17 
REMARK    4  A    between atoms: C_19  and  C_18 
ROOT
ATOM      1  C   UNL d   1     -41.890-122.206 -51.870  0.00  0.00     0.197 A 
ATOM      2  C   UNL d   1     -42.005-122.596 -50.617  0.00  0.00     0.057 A 
ATOM      3  C   UNL d   1     -42.184-122.700 -49.847  0.00  0.00     0.056 A 
ATOM      4  N   UNL d   1     -41.409-122.836 -51.792  0.00  0.00    -0.221 NA
ATOM      5  S   UNL d   1     -42.280-122.025 -51.158  0.00  0.00    -0.046 SA
ATOM      6  N   UNL d   1     -42.120-123.281 -48.668  0.00  0.00    -0.238 NA
ATOM      7  S   UNL d   1     -42.673-122.310 -49.338  0.00  0.00    -0.066 SA
ATOM      8  C   UNL d   1     -41.478-123.087 -51.001  0.00  0.00     0.090 A 
ATOM      9  C   UNL d   1     -41.839-123.312 -49.415  0.00  0.00     0.088 A 
ATOM     10  C   UNL d   1     -42.628-122.691 -48.572  0.00  0.00     0.111 A 
ATOM     11  C   UNL d   1     -41.309-123.817 -49.776  0.00  0.00     0.021 A 
ATOM     12  C   UNL d   1     -41.125-123.700 -50.586  0.00  0.00     0.021 A 
ATOM     13  C   UNL d   1     -43.034-122.485 -47.874  0.00  0.00     0.028 C 
ENDROOT
BRANCH   1  14
ATOM     14  N   UNL d   1     -42.001-121.763 -52.588  0.00  0.00    -0.183 NA
ATOM     15  C   UNL d   1     -41.988-122.163 -53.296  0.00  0.00     0.281 C 
ATOM     16  O   UNL d   1     -41.862-123.003 -53.252  0.00  0.00    -0.265 OA
BRANCH  15  17
ATOM     17  C   UNL d   1     -42.090-121.757 -53.956  0.00  0.00     0.063 C 
BRANCH  17  18
ATOM     18  C   UNL d   1     -41.979-122.195 -54.792  0.00  0.00     0.005 C 
BRANCH  18  19
ATOM     19  C   UNL d   1     -42.418-121.850 -55.556  0.00  0.00     0.000 C 
ATOM     20  C   UNL d   1     -42.103-121.640 -56.291  0.00  0.00     0.000 C 
ENDBRANCH  18  19
ENDBRANCH  17  18
ENDBRANCH  15  17
ENDBRANCH   1  14
TORSDOF 4
ENDMDL
