MODEL 1
REMARK VINA RESULT:      26.3      0.000      0.000
REMARK  3 active torsions:
REMARK  status: ('A' for Active; 'I' for Inactive)
REMARK    1  A    between atoms: N_3  and  S_1 
REMARK    2  A    between atoms: C_10  and  S_1 
REMARK    3  A    between atoms: C_2  and  N_3 
ROOT
ATOM      1  N   UNL d   1     -56.103 -99.261 -44.097  0.00  0.00     0.034 NA
ENDROOT
BRANCH   1   2
ATOM      2  C   UNL d   1     -56.917 -99.149 -44.164  0.00  0.00     0.760 A 
ATOM      3  N   UNL d   1     -57.354 -99.073 -44.861  0.00  0.00    -0.057 NA
ATOM      4  C   UNL d   1     -58.131 -98.972 -44.679  0.00  0.00     0.118 A 
ATOM      5  C   UNL d   1     -58.801 -98.870 -45.149  0.00  0.00     0.021 A 
ATOM      6  C   UNL d   1     -58.200 -98.981 -43.857  0.00  0.00     0.118 A 
ATOM      7  C   UNL d   1     -59.515 -98.781 -44.795  0.00  0.00     0.002 A 
ATOM      8  C   UNL d   1     -59.585 -98.790 -43.973  0.00  0.00     0.002 A 
ATOM      9  C   UNL d   1     -58.940 -98.888 -43.505  0.00  0.00     0.021 A 
ATOM     10  N   UNL d   1     -57.465 -99.088 -43.545  0.00  0.00    -0.057 NA
ENDBRANCH   1   2
BRANCH   1  11
ATOM     11  S   UNL d   1     -55.651 -99.422 -44.768  0.00  0.00     0.300 S 
ATOM     12  O   UNL d   1     -55.199 -99.582 -45.444  0.00  0.00    -0.198 OA
ATOM     13  O   UNL d   1     -55.965 -98.755 -45.139  0.00  0.00    -0.198 OA
BRANCH  11  14
ATOM     14  C   UNL d   1     -55.338-100.090 -44.397  0.00  0.00     0.106 A 
ATOM     15  C   UNL d   1     -55.337-100.816 -44.788  0.00  0.00     0.013 A 
ATOM     16  C   UNL d   1     -55.024-101.486 -44.417  0.00  0.00     0.001 A 
ATOM     17  C   UNL d   1     -54.711-101.426 -43.655  0.00  0.00     0.000 A 
ATOM     18  C   UNL d   1     -54.724-100.699 -43.292  0.00  0.00     0.001 A 
ATOM     19  C   UNL d   1     -55.026-100.030 -43.636  0.00  0.00     0.013 A 
ENDBRANCH  11  14
ENDBRANCH   1  11
TORSDOF 3
ENDMDL
