MODEL 1
REMARK VINA RESULT:      -6.1      0.000      0.000
REMARK  2 active torsions:
REMARK  status: ('A' for Active; 'I' for Inactive)
REMARK    1  A    between atoms: C_6  and  C_1 
REMARK    2  A    between atoms: C_7  and  C_5 
ROOT
ATOM      1  C   UNL d   1      57.978  -0.203  30.294  0.00  0.00     0.169 A 
ATOM      2  C   UNL d   1      57.767   0.401  30.696  0.00  0.00     0.048 A 
ATOM      3  N   UNL d   1      57.229  -0.970  31.053  0.00  0.00    -0.148 NA
ATOM      4  N   UNL d   1      57.712  -0.892  30.468  0.00  0.00    -0.142 NA
ATOM      5  C   UNL d   1      57.017  -0.367  31.455  0.00  0.00     0.105 A 
ENDROOT
BRANCH   5   6
ATOM      6  C   UNL d   1      56.523  -0.239  32.101  0.00  0.00     0.019 A 
ATOM      7  C   UNL d   1      56.228  -0.880  32.537  0.00  0.00     0.002 A 
ATOM      8  C   UNL d   1      55.730  -0.751  33.187  0.00  0.00     0.000 A 
ATOM      9  C   UNL d   1      55.526   0.022  33.404  0.00  0.00     0.000 A 
ATOM     10  C   UNL d   1      55.825   0.668  32.964  0.00  0.00     0.000 A 
ATOM     11  C   UNL d   1      55.036   0.154  34.045  0.00  0.00     0.000 C 
ATOM     12  C   UNL d   1      56.320   0.531  32.316  0.00  0.00     0.002 A 
ENDBRANCH   5   6
BRANCH   1  13
ATOM     13  C   UNL d   1      58.462  -0.124  29.709  0.00  0.00     0.231 C 
ATOM     14  O   UNL d   1      59.208  -0.121  29.830  0.00  0.00    -0.643 OA
ATOM     15  O   UNL d   1      58.186  -0.049  29.005  0.00  0.00    -0.643 OA
ENDBRANCH   1  13
TORSDOF 2
ENDMDL
MODEL 2
REMARK VINA RESULT:      -5.2      2.509      3.953
REMARK  2 active torsions:
REMARK  status: ('A' for Active; 'I' for Inactive)
REMARK    1  A    between atoms: C_6  and  C_1 
REMARK    2  A    between atoms: C_7  and  C_5 
ROOT
ATOM      1  C   UNL d   1      55.430   0.143  33.453  0.00  0.00     0.169 A 
ATOM      2  C   UNL d   1      55.771   0.681  33.048  0.00  0.00     0.048 A 
ATOM      3  N   UNL d   1      56.022  -0.778  32.726  0.00  0.00    -0.148 NA
ATOM      4  N   UNL d   1      55.552  -0.590  33.296  0.00  0.00    -0.142 NA
ATOM      5  C   UNL d   1      56.363  -0.239  32.321  0.00  0.00     0.105 A 
ENDROOT
BRANCH   5   6
ATOM      6  C   UNL d   1      56.888  -0.228  31.687  0.00  0.00     0.019 A 
ATOM      7  C   UNL d   1      57.152   0.492  31.373  0.00  0.00     0.002 A 
ATOM      8  C   UNL d   1      57.680   0.503  30.735  0.00  0.00     0.000 A 
ATOM      9  C   UNL d   1      57.947  -0.210  30.407  0.00  0.00     0.000 A 
ATOM     10  C   UNL d   1      57.680  -0.937  30.725  0.00  0.00     0.000 A 
ATOM     11  C   UNL d   1      58.468  -0.205  29.777  0.00  0.00     0.000 C 
ATOM     12  C   UNL d   1      57.153  -0.939  31.362  0.00  0.00     0.002 A 
ENDBRANCH   5   6
BRANCH   1  13
ATOM     13  C   UNL d   1      54.960   0.331  34.024  0.00  0.00     0.231 C 
ATOM     14  O   UNL d   1      54.243   0.524  33.878  0.00  0.00    -0.643 OA
ATOM     15  O   UNL d   1      55.217   0.322  34.738  0.00  0.00    -0.643 OA
ENDBRANCH   1  13
TORSDOF 2
ENDMDL
MODEL 3
REMARK VINA RESULT:      -4.0      0.826      1.166
REMARK  2 active torsions:
REMARK  status: ('A' for Active; 'I' for Inactive)
REMARK    1  A    between atoms: C_6  and  C_1 
REMARK    2  A    between atoms: C_7  and  C_5 
ROOT
ATOM      1  C   UNL d   1      57.534  -0.065  30.465  0.00  0.00     0.169 A 
ATOM      2  C   UNL d   1      57.568  -0.579  31.017  0.00  0.00     0.048 A 
ATOM      3  N   UNL d   1      56.672   0.633  31.168  0.00  0.00    -0.148 NA
ATOM      4  N   UNL d   1      57.087   0.544  30.535  0.00  0.00    -0.142 NA
ATOM      5  C   UNL d   1      56.705   0.119  31.720  0.00  0.00     0.105 A 
ENDROOT
BRANCH   5   6
ATOM      6  C   UNL d   1      56.351   0.030  32.457  0.00  0.00     0.019 A 
ATOM      7  C   UNL d   1      56.291   0.675  32.975  0.00  0.00     0.002 A 
ATOM      8  C   UNL d   1      55.934   0.585  33.718  0.00  0.00     0.000 A 
ATOM      9  C   UNL d   1      55.634  -0.154  33.945  0.00  0.00     0.000 A 
ATOM     10  C   UNL d   1      55.695  -0.804  33.422  0.00  0.00     0.000 A 
ATOM     11  C   UNL d   1      55.281  -0.248  34.676  0.00  0.00     0.000 C 
ATOM     12  C   UNL d   1      56.053  -0.706  32.683  0.00  0.00     0.002 A 
ENDBRANCH   5   6
BRANCH   1  13
ATOM     13  C   UNL d   1      57.951  -0.155  29.831  0.00  0.00     0.231 C 
ATOM     14  O   UNL d   1      58.042   0.423  29.352  0.00  0.00    -0.643 OA
ATOM     15  O   UNL d   1      58.271  -0.828  29.687  0.00  0.00    -0.643 OA
ENDBRANCH   1  13
TORSDOF 2
ENDMDL
MODEL 4
REMARK VINA RESULT:      -3.9      1.172      1.740
REMARK  2 active torsions:
REMARK  status: ('A' for Active; 'I' for Inactive)
REMARK    1  A    between atoms: C_6  and  C_1 
REMARK    2  A    between atoms: C_7  and  C_5 
ROOT
ATOM      1  C   UNL d   1      58.734  -1.477  29.564  0.00  0.00     0.169 A 
ATOM      2  C   UNL d   1      58.834  -0.820  29.923  0.00  0.00     0.048 A 
ATOM      3  N   UNL d   1      57.615  -1.668  30.226  0.00  0.00    -0.148 NA
ATOM      4  N   UNL d   1      58.125  -1.906  29.712  0.00  0.00    -0.142 NA
ATOM      5  C   UNL d   1      57.716  -1.011  30.585  0.00  0.00     0.105 A 
ENDROOT
BRANCH   5   6
ATOM      6  C   UNL d   1      57.300  -0.587  31.155  0.00  0.00     0.019 A 
ATOM      7  C   UNL d   1      57.281   0.242  31.131  0.00  0.00     0.002 A 
ATOM      8  C   UNL d   1      56.862   0.669  31.705  0.00  0.00     0.000 A 
ATOM      9  C   UNL d   1      56.459   0.266  32.307  0.00  0.00     0.000 A 
ATOM     10  C   UNL d   1      56.479  -0.571  32.330  0.00  0.00     0.000 A 
ATOM     11  C   UNL d   1      56.044   0.682  32.875  0.00  0.00     0.000 C 
ATOM     12  C   UNL d   1      56.899  -0.989  31.754  0.00  0.00     0.002 A 
ENDBRANCH   5   6
BRANCH   1  13
ATOM     13  C   UNL d   1      59.245  -1.715  29.049  0.00  0.00     0.231 C 
ATOM     14  O   UNL d   1      59.431  -2.447  29.008  0.00  0.00    -0.643 OA
ATOM     15  O   UNL d   1      59.563  -1.211  28.578  0.00  0.00    -0.643 OA
ENDBRANCH   1  13
TORSDOF 2
ENDMDL
