MODEL 1
REMARK VINA RESULT:      32.5      0.000      0.000
REMARK  4 active torsions:
REMARK  status: ('A' for Active; 'I' for Inactive)
REMARK    1  A    between atoms: C_6  and  C_1 
REMARK    2  A    between atoms: C_16  and  C_6 
REMARK    3  A    between atoms: C_9  and  O_12 
REMARK    4  A    between atoms: O_12  and  C_10 
ROOT
ATOM      1  C   UNL d   1     -59.279 -98.792 -43.246  0.00  0.00     0.139 A 
ATOM      2  C   UNL d   1     -58.467 -98.778 -44.305  0.00  0.00     0.064 A 
ATOM      3  C   UNL d   1     -59.262 -98.786 -44.072  0.00  0.00     0.220 A 
ATOM      4  C   UNL d   1     -57.997 -98.779 -43.629  0.00  0.00     0.105 A 
ATOM      5  O   UNL d   1     -58.496 -98.788 -42.969  0.00  0.00    -0.304 OA
ATOM      6  C   UNL d   1     -57.176 -98.772 -43.699  0.00  0.00     0.050 A 
ATOM      7  C   UNL d   1     -58.114 -98.770 -45.051  0.00  0.00     0.007 A 
ATOM      8  C   UNL d   1     -56.832 -98.764 -44.443  0.00  0.00     0.105 A 
ATOM      9  O   UNL d   1     -59.914 -98.788 -44.576  0.00  0.00    -0.284 OA
ATOM     10  C   UNL d   1     -57.289 -98.763 -45.123  0.00  0.00     0.025 A 
ENDROOT
BRANCH   1  11
ATOM     11  C   UNL d   1     -59.955 -98.800 -42.776  0.00  0.00     0.028 C 
BRANCH  11  12
ATOM     12  C   UNL d   1     -59.957 -99.190 -42.042  0.00  0.00     0.005 A 
ATOM     13  C   UNL d   1     -59.958-100.009 -42.027  0.00  0.00     0.021 A 
ATOM     14  C   UNL d   1     -59.960-100.405 -41.304  0.00  0.00     0.099 A 
ATOM     15  N   UNL d   1     -59.959 -99.974 -40.598  0.00  0.00    -0.242 NA
ATOM     16  C   UNL d   1     -59.958 -99.149 -40.619  0.00  0.00     0.099 A 
ATOM     17  C   UNL d   1     -59.956 -98.757 -41.341  0.00  0.00     0.021 A 
ENDBRANCH  11  12
ENDBRANCH   1  11
BRANCH   8  18
ATOM     18  O   UNL d   1     -56.008 -98.757 -44.510  0.00  0.00    -0.273 OA
BRANCH  18  19
ATOM     19  C   UNL d   1     -55.568 -99.444 -44.346  0.00  0.00     0.300 C 
ATOM     20  O   UNL d   1     -55.950-100.172 -44.309  0.00  0.00    -0.259 OA
ATOM     21  C   UNL d   1     -54.754 -99.390 -44.220  0.00  0.00     0.074 C 
ENDBRANCH  18  19
ENDBRANCH   8  18
TORSDOF 4
ENDMDL
