MODEL 1
REMARK VINA RESULT:      -8.9      0.000      0.000
REMARK  3 active torsions:
REMARK  status: ('A' for Active; 'I' for Inactive)
REMARK    1  A    between atoms: S_3  and  N_1 
REMARK    2  A    between atoms: C_7  and  C_4 
REMARK    3  A    between atoms: C_12  and  C_5 
ROOT
ATOM      1  N   UNL d   1      52.364  33.861  53.097  0.00  0.00    -0.155 N 
ATOM      2  N   UNL d   1      52.896  33.252  53.213  0.00  0.00    -0.156 NA
ATOM      3  C   UNL d   1      51.624  33.540  53.007  0.00  0.00     0.096 A 
ATOM      4  C   UNL d   1      52.476  32.552  53.193  0.00  0.00     0.103 A 
ATOM      5  C   UNL d   1      51.691  32.720  53.067  0.00  0.00     0.041 A 
ENDROOT
BRANCH   3   6
ATOM      6  C   UNL d   1      50.922  33.958  52.878  0.00  0.00     0.020 A 
ATOM      7  C   UNL d   1      50.577  33.967  52.127  0.00  0.00     0.022 A 
ATOM      8  C   UNL d   1      49.876  34.385  51.999  0.00  0.00     0.099 A 
ATOM      9  N   UNL d   1      49.532  34.394  51.248  0.00  0.00    -0.241 NA
ATOM     10  C   UNL d   1      49.522  34.791  52.618  0.00  0.00     0.099 A 
ATOM     11  C   UNL d   1      48.853  34.803  51.138  0.00  0.00     0.120 A 
ATOM     12  C   UNL d   1      48.498  35.209  51.757  0.00  0.00     0.120 A 
ATOM     13  N   UNL d   1      48.821  35.209  52.490  0.00  0.00    -0.241 NA
ATOM     14  C   UNL d   1      49.865  34.782  53.369  0.00  0.00     0.021 A 
ATOM     15  C   UNL d   1      50.567  34.365  53.497  0.00  0.00     0.003 A 
ENDBRANCH   3   6
BRANCH   1  16
ATOM     16  S   UNL d   1      52.541  34.684  53.073  0.00  0.00     0.266 S 
ATOM     17  O   UNL d   1      52.586  34.621  52.229  0.00  0.00    -0.203 OA
ATOM     18  O   UNL d   1      52.715  35.487  53.017  0.00  0.00    -0.203 OA
ATOM     19  C   UNL d   1      52.493  34.726  53.886  0.00  0.00     0.165 C 
ENDBRANCH   1  16
BRANCH   4  20
ATOM     20  C   UNL d   1      52.792  31.806  53.285  0.00  0.00     0.019 A 
ATOM     21  C   UNL d   1      52.481  31.170  52.887  0.00  0.00     0.002 A 
ATOM     22  C   UNL d   1      52.795  30.397  52.972  0.00  0.00     0.000 A 
ATOM     23  C   UNL d   1      53.443  30.285  53.479  0.00  0.00     0.000 A 
ATOM     24  C   UNL d   1      53.749  30.948  53.879  0.00  0.00     0.000 A 
ATOM     25  C   UNL d   1      53.757  29.544  53.571  0.00  0.00     0.000 C 
ATOM     26  C   UNL d   1      53.440  31.689  53.791  0.00  0.00     0.002 A 
ENDBRANCH   4  20
TORSDOF 3
ENDMDL
MODEL 2
REMARK VINA RESULT:      -8.8      1.740      4.903
REMARK  3 active torsions:
REMARK  status: ('A' for Active; 'I' for Inactive)
REMARK    1  A    between atoms: S_3  and  N_1 
REMARK    2  A    between atoms: C_7  and  C_4 
REMARK    3  A    between atoms: C_12  and  C_5 
ROOT
ATOM      1  N   UNL d   1      53.253  32.612  53.488  0.00  0.00    -0.155 N 
ATOM      2  N   UNL d   1      52.815  33.276  53.307  0.00  0.00    -0.156 NA
ATOM      3  C   UNL d   1      52.779  31.959  53.396  0.00  0.00     0.096 A 
ATOM      4  C   UNL d   1      52.064  33.027  53.101  0.00  0.00     0.103 A 
ATOM      5  C   UNL d   1      52.033  32.217  53.154  0.00  0.00     0.041 A 
ENDROOT
BRANCH   3   6
ATOM      6  C   UNL d   1      53.000  31.172  53.523  0.00  0.00     0.020 A 
ATOM      7  C   UNL d   1      52.923  30.835  54.273  0.00  0.00     0.022 A 
ATOM      8  C   UNL d   1      53.143  30.049  54.398  0.00  0.00     0.099 A 
ATOM      9  N   UNL d   1      53.066  29.713  55.149  0.00  0.00    -0.241 NA
ATOM     10  C   UNL d   1      53.439  29.602  53.777  0.00  0.00     0.099 A 
ATOM     11  C   UNL d   1      53.284  28.950  55.256  0.00  0.00     0.120 A 
ATOM     12  C   UNL d   1      53.580  28.503  54.634  0.00  0.00     0.120 A 
ATOM     13  N   UNL d   1      53.660  28.816  53.902  0.00  0.00    -0.241 NA
ATOM     14  C   UNL d   1      53.517  29.938  53.026  0.00  0.00     0.021 A 
ATOM     15  C   UNL d   1      53.296  30.725  52.901  0.00  0.00     0.003 A 
ENDBRANCH   3   6
BRANCH   1  16
ATOM     16  S   UNL d   1      54.059  32.593  53.731  0.00  0.00     0.266 S 
ATOM     17  O   UNL d   1      54.270  32.447  52.922  0.00  0.00    -0.203 OA
ATOM     18  O   UNL d   1      54.856  32.569  53.937  0.00  0.00    -0.203 OA
ATOM     19  C   UNL d   1      53.839  32.734  54.503  0.00  0.00     0.165 C 
ENDBRANCH   1  16
BRANCH   4  20
ATOM     20  C   UNL d   1      51.447  33.511  52.880  0.00  0.00     0.019 A 
ATOM     21  C   UNL d   1      51.483  33.946  52.195  0.00  0.00     0.002 A 
ATOM     22  C   UNL d   1      50.856  34.448  51.955  0.00  0.00     0.000 A 
ATOM     23  C   UNL d   1      50.181  34.497  52.435  0.00  0.00     0.000 A 
ATOM     24  C   UNL d   1      50.160  34.044  53.133  0.00  0.00     0.000 A 
ATOM     25  C   UNL d   1      49.567  34.978  52.216  0.00  0.00     0.000 C 
ATOM     26  C   UNL d   1      50.769  33.563  53.357  0.00  0.00     0.002 A 
ENDBRANCH   4  20
TORSDOF 3
ENDMDL
MODEL 3
REMARK VINA RESULT:      -8.2      0.941      4.471
REMARK  3 active torsions:
REMARK  status: ('A' for Active; 'I' for Inactive)
REMARK    1  A    between atoms: S_3  and  N_1 
REMARK    2  A    between atoms: C_7  and  C_4 
REMARK    3  A    between atoms: C_12  and  C_5 
ROOT
ATOM      1  N   UNL d   1      51.999  34.505  53.135  0.00  0.00    -0.155 N 
ATOM      2  N   UNL d   1      51.360  34.966  52.923  0.00  0.00    -0.156 NA
ATOM      3  C   UNL d   1      51.753  33.733  53.183  0.00  0.00     0.096 A 
ATOM      4  C   UNL d   1      50.716  34.470  52.839  0.00  0.00     0.103 A 
ATOM      5  C   UNL d   1      50.949  33.708  52.997  0.00  0.00     0.041 A 
ENDROOT
BRANCH   3   6
ATOM      6  C   UNL d   1      52.222  33.081  53.382  0.00  0.00     0.020 A 
ATOM      7  C   UNL d   1      52.283  32.440  52.863  0.00  0.00     0.022 A 
ATOM      8  C   UNL d   1      52.752  31.790  53.062  0.00  0.00     0.099 A 
ATOM      9  N   UNL d   1      52.812  31.151  52.543  0.00  0.00    -0.241 NA
ATOM     10  C   UNL d   1      53.157  31.780  53.776  0.00  0.00     0.099 A 
ATOM     11  C   UNL d   1      53.270  30.527  52.749  0.00  0.00     0.120 A 
ATOM     12  C   UNL d   1      53.675  30.516  53.463  0.00  0.00     0.120 A 
ATOM     13  N   UNL d   1      53.625  31.130  53.975  0.00  0.00    -0.241 NA
ATOM     14  C   UNL d   1      53.096  32.419  54.295  0.00  0.00     0.021 A 
ATOM     15  C   UNL d   1      52.627  33.070  54.096  0.00  0.00     0.003 A 
ENDBRANCH   3   6
BRANCH   1  16
ATOM     16  S   UNL d   1      52.783  34.772  53.284  0.00  0.00     0.266 S 
ATOM     17  O   UNL d   1      52.967  34.595  52.475  0.00  0.00    -0.203 OA
ATOM     18  O   UNL d   1      53.558  35.027  53.398  0.00  0.00    -0.203 OA
ATOM     19  C   UNL d   1      52.590  34.937  54.058  0.00  0.00     0.165 C 
ENDBRANCH   1  16
BRANCH   4  20
ATOM     20  C   UNL d   1      49.962  34.701  52.630  0.00  0.00     0.019 A 
ATOM     21  C   UNL d   1      49.490  35.104  53.153  0.00  0.00     0.002 A 
ATOM     22  C   UNL d   1      48.714  35.348  52.953  0.00  0.00     0.000 A 
ATOM     23  C   UNL d   1      48.424  35.168  52.196  0.00  0.00     0.000 A 
ATOM     24  C   UNL d   1      48.921  34.754  51.672  0.00  0.00     0.000 A 
ATOM     25  C   UNL d   1      47.675  35.397  51.988  0.00  0.00     0.000 C 
ATOM     26  C   UNL d   1      49.668  34.523  51.874  0.00  0.00     0.002 A 
ENDBRANCH   4  20
TORSDOF 3
ENDMDL
MODEL 4
REMARK VINA RESULT:      -8.0      1.842      4.753
REMARK  3 active torsions:
REMARK  status: ('A' for Active; 'I' for Inactive)
REMARK    1  A    between atoms: S_3  and  N_1 
REMARK    2  A    between atoms: C_7  and  C_4 
REMARK    3  A    between atoms: C_12  and  C_5 
ROOT
ATOM      1  N   UNL d   1      52.004  32.607  52.929  0.00  0.00    -0.155 N 
ATOM      2  N   UNL d   1      51.266  32.803  52.640  0.00  0.00    -0.156 NA
ATOM      3  C   UNL d   1      52.364  33.285  53.193  0.00  0.00     0.096 A 
ATOM      4  C   UNL d   1      51.174  33.610  52.729  0.00  0.00     0.103 A 
ATOM      5  C   UNL d   1      51.845  33.915  53.069  0.00  0.00     0.041 A 
ENDROOT
BRANCH   3   6
ATOM      6  C   UNL d   1      53.118  33.341  53.529  0.00  0.00     0.020 A 
ATOM      7  C   UNL d   1      53.202  33.461  54.342  0.00  0.00     0.022 A 
ATOM      8  C   UNL d   1      53.955  33.516  54.676  0.00  0.00     0.099 A 
ATOM      9  N   UNL d   1      54.038  33.637  55.489  0.00  0.00    -0.241 NA
ATOM     10  C   UNL d   1      54.621  33.451  54.201  0.00  0.00     0.099 A 
ATOM     11  C   UNL d   1      54.774  33.688  55.800  0.00  0.00     0.120 A 
ATOM     12  C   UNL d   1      55.440  33.623  55.324  0.00  0.00     0.120 A 
ATOM     13  N   UNL d   1      55.374  33.507  54.535  0.00  0.00    -0.241 NA
ATOM     14  C   UNL d   1      54.538  33.331  53.388  0.00  0.00     0.021 A 
ATOM     15  C   UNL d   1      53.784  33.276  53.053  0.00  0.00     0.003 A 
ENDBRANCH   3   6
BRANCH   1  16
ATOM     16  S   UNL d   1      52.346  31.838  52.954  0.00  0.00     0.266 S 
ATOM     17  O   UNL d   1      52.738  32.018  52.224  0.00  0.00    -0.203 OA
ATOM     18  O   UNL d   1      52.695  31.092  52.951  0.00  0.00    -0.203 OA
ATOM     19  C   UNL d   1      51.961  31.681  53.656  0.00  0.00     0.165 C 
ENDBRANCH   1  16
BRANCH   4  20
ATOM     20  C   UNL d   1      50.515  34.039  52.513  0.00  0.00     0.019 A 
ATOM     21  C   UNL d   1      50.255  34.043  51.744  0.00  0.00     0.002 A 
ATOM     22  C   UNL d   1      49.580  34.480  51.506  0.00  0.00     0.000 A 
ATOM     23  C   UNL d   1      49.170  34.919  52.079  0.00  0.00     0.000 A 
ATOM     24  C   UNL d   1      49.450  34.904  52.863  0.00  0.00     0.000 A 
ATOM     25  C   UNL d   1      48.515  35.346  51.865  0.00  0.00     0.000 C 
ATOM     26  C   UNL d   1      50.101  34.480  53.082  0.00  0.00     0.002 A 
ENDBRANCH   4  20
TORSDOF 3
ENDMDL
MODEL 5
REMARK VINA RESULT:      -7.8      1.305      1.999
REMARK  3 active torsions:
REMARK  status: ('A' for Active; 'I' for Inactive)
REMARK    1  A    between atoms: S_3  and  N_1 
REMARK    2  A    between atoms: C_7  and  C_4 
REMARK    3  A    between atoms: C_12  and  C_5 
ROOT
ATOM      1  N   UNL d   1      53.363  32.605  53.950  0.00  0.00    -0.155 N 
ATOM      2  N   UNL d   1      53.670  31.904  54.234  0.00  0.00    -0.156 NA
ATOM      3  C   UNL d   1      52.703  32.435  53.509  0.00  0.00     0.096 A 
ATOM      4  C   UNL d   1      53.193  31.299  53.963  0.00  0.00     0.103 A 
ATOM      5  C   UNL d   1      52.594  31.617  53.516  0.00  0.00     0.041 A 
ENDROOT
BRANCH   3   6
ATOM      6  C   UNL d   1      52.220  32.982  53.119  0.00  0.00     0.020 A 
ATOM      7  C   UNL d   1      51.478  33.174  53.428  0.00  0.00     0.022 A 
ATOM      8  C   UNL d   1      50.997  33.721  53.038  0.00  0.00     0.099 A 
ATOM      9  N   UNL d   1      50.256  33.912  53.348  0.00  0.00    -0.241 NA
ATOM     10  C   UNL d   1      51.255  34.073  52.343  0.00  0.00     0.099 A 
ATOM     11  C   UNL d   1      49.799  34.444  52.960  0.00  0.00     0.120 A 
ATOM     12  C   UNL d   1      50.058  34.796  52.265  0.00  0.00     0.120 A 
ATOM     13  N   UNL d   1      50.774  34.619  51.954  0.00  0.00    -0.241 NA
ATOM     14  C   UNL d   1      51.996  33.881  52.034  0.00  0.00     0.021 A 
ATOM     15  C   UNL d   1      52.478  33.334  52.424  0.00  0.00     0.003 A 
ENDBRANCH   3   6
BRANCH   1  16
ATOM     16  S   UNL d   1      53.668  33.378  54.084  0.00  0.00     0.266 S 
ATOM     17  O   UNL d   1      53.132  33.446  54.738  0.00  0.00    -0.203 OA
ATOM     18  O   UNL d   1      53.946  34.137  54.241  0.00  0.00    -0.203 OA
ATOM     19  C   UNL d   1      54.176  33.296  53.452  0.00  0.00     0.165 C 
ENDBRANCH   1  16
BRANCH   4  20
ATOM     20  C   UNL d   1      53.299  30.505  54.116  0.00  0.00     0.019 A 
ATOM     21  C   UNL d   1      53.220  30.212  54.869  0.00  0.00     0.002 A 
ATOM     22  C   UNL d   1      53.326  29.398  55.042  0.00  0.00     0.000 A 
ATOM     23  C   UNL d   1      53.518  28.883  54.421  0.00  0.00     0.000 A 
ATOM     24  C   UNL d   1      53.596  29.200  53.655  0.00  0.00     0.000 A 
ATOM     25  C   UNL d   1      53.624  28.093  54.572  0.00  0.00     0.000 C 
ATOM     26  C   UNL d   1      53.492  29.985  53.498  0.00  0.00     0.002 A 
ENDBRANCH   4  20
TORSDOF 3
ENDMDL
MODEL 6
REMARK VINA RESULT:      -6.7      1.772      2.910
REMARK  3 active torsions:
REMARK  status: ('A' for Active; 'I' for Inactive)
REMARK    1  A    between atoms: S_3  and  N_1 
REMARK    2  A    between atoms: C_7  and  C_4 
REMARK    3  A    between atoms: C_12  and  C_5 
ROOT
ATOM      1  N   UNL d   1      51.952  32.928  52.991  0.00  0.00    -0.155 N 
ATOM      2  N   UNL d   1      51.956  32.113  52.943  0.00  0.00    -0.156 NA
ATOM      3  C   UNL d   1      52.607  33.164  53.408  0.00  0.00     0.096 A 
ATOM      4  C   UNL d   1      52.621  31.848  53.336  0.00  0.00     0.103 A 
ATOM      5  C   UNL d   1      53.028  32.489  53.626  0.00  0.00     0.041 A 
ENDROOT
BRANCH   3   6
ATOM      6  C   UNL d   1      52.819  33.944  53.587  0.00  0.00     0.020 A 
ATOM      7  C   UNL d   1      52.735  34.229  54.358  0.00  0.00     0.022 A 
ATOM      8  C   UNL d   1      52.948  35.007  54.536  0.00  0.00     0.099 A 
ATOM      9  N   UNL d   1      52.864  35.292  55.306  0.00  0.00    -0.241 NA
ATOM     10  C   UNL d   1      53.242  35.497  53.947  0.00  0.00     0.099 A 
ATOM     11  C   UNL d   1      53.074  36.048  55.465  0.00  0.00     0.120 A 
ATOM     12  C   UNL d   1      53.368  36.539  54.875  0.00  0.00     0.120 A 
ATOM     13  N   UNL d   1      53.454  36.275  54.124  0.00  0.00    -0.241 NA
ATOM     14  C   UNL d   1      53.325  35.212  53.176  0.00  0.00     0.021 A 
ATOM     15  C   UNL d   1      53.113  34.434  52.998  0.00  0.00     0.003 A 
ENDBRANCH   3   6
BRANCH   1  16
ATOM     16  S   UNL d   1      51.373  33.447  52.666  0.00  0.00     0.266 S 
ATOM     17  O   UNL d   1      51.866  33.523  51.980  0.00  0.00    -0.203 OA
ATOM     18  O   UNL d   1      50.826  33.958  52.323  0.00  0.00    -0.203 OA
ATOM     19  C   UNL d   1      50.912  33.363  53.333  0.00  0.00     0.165 C 
ENDBRANCH   1  16
BRANCH   4  20
ATOM     20  C   UNL d   1      52.842  31.068  53.424  0.00  0.00     0.019 A 
ATOM     21  C   UNL d   1      52.311  30.468  53.295  0.00  0.00     0.002 A 
ATOM     22  C   UNL d   1      52.523  29.661  53.381  0.00  0.00     0.000 A 
ATOM     23  C   UNL d   1      53.301  29.478  53.605  0.00  0.00     0.000 A 
ATOM     24  C   UNL d   1      53.833  30.105  53.733  0.00  0.00     0.000 A 
ATOM     25  C   UNL d   1      53.521  28.702  53.692  0.00  0.00     0.000 C 
ATOM     26  C   UNL d   1      53.619  30.879  53.647  0.00  0.00     0.002 A 
ENDBRANCH   4  20
TORSDOF 3
ENDMDL
