MODEL 1
REMARK VINA RESULT:      -8.7      0.000      0.000
REMARK  5 active torsions:
REMARK  status: ('A' for Active; 'I' for Inactive)
REMARK    1  A    between atoms: N_2  and  S_1 
REMARK    2  A    between atoms: C_3  and  S_1 
REMARK    3  A    between atoms: C_8  and  N_2 
REMARK    4  A    between atoms: C_7  and  C_6 
REMARK    5  A    between atoms: C_16  and  C_8 
ROOT
ATOM      1  C   UNL d   1      52.291  32.722  52.945  0.00  0.00     0.105 A 
ATOM      2  C   UNL d   1      50.991  33.748  52.864  0.00  0.00     0.000 A 
ATOM      3  C   UNL d   1      51.589  32.530  53.331  0.00  0.00     0.013 A 
ATOM      4  C   UNL d   1      52.346  33.425  52.520  0.00  0.00     0.013 A 
ATOM      5  C   UNL d   1      50.935  33.046  53.290  0.00  0.00     0.001 A 
ATOM      6  C   UNL d   1      51.693  33.940  52.479  0.00  0.00     0.001 A 
ENDROOT
BRANCH   1   7
ATOM      7  S   UNL d   1      52.935  32.208  52.989  0.00  0.00     0.285 S 
ATOM      8  O   UNL d   1      52.614  31.747  52.392  0.00  0.00    -0.198 OA
ATOM      9  O   UNL d   1      53.572  31.698  53.030  0.00  0.00    -0.198 OA
BRANCH   7  10
ATOM     10  N   UNL d   1      53.261  32.670  53.590  0.00  0.00    -0.155 NA
BRANCH  10  11
ATOM     11  C   UNL d   1      53.987  32.454  53.922  0.00  0.00     0.137 C 
BRANCH  11  12
ATOM     12  C   UNL d   1      54.311  32.913  54.543  0.00  0.00     0.120 A 
ATOM     13  O   UNL d   1      54.078  32.903  55.336  0.00  0.00    -0.304 OA
ATOM     14  C   UNL d   1      54.549  33.444  55.743  0.00  0.00     0.123 A 
ATOM     15  C   UNL d   1      55.066  33.784  55.211  0.00  0.00     0.029 A 
ATOM     16  C   UNL d   1      54.922  33.458  54.466  0.00  0.00     0.028 A 
ENDBRANCH  11  12
ENDBRANCH  10  11
ENDBRANCH   7  10
ENDBRANCH   1   7
BRANCH   2  17
ATOM     17  C   UNL d   1      50.348  34.251  52.826  0.00  0.00     0.000 A 
ATOM     18  C   UNL d   1      49.891  34.279  52.141  0.00  0.00     0.000 A 
ATOM     19  C   UNL d   1      49.240  34.784  52.095  0.00  0.00     0.000 A 
ATOM     20  C   UNL d   1      49.049  35.265  52.749  0.00  0.00     0.000 A 
ATOM     21  C   UNL d   1      49.505  35.237  53.433  0.00  0.00     0.000 A 
ATOM     22  C   UNL d   1      48.399  35.771  52.707  0.00  0.00     0.000 C 
ATOM     23  C   UNL d   1      50.155  34.731  53.476  0.00  0.00     0.000 A 
ENDBRANCH   2  17
TORSDOF 5
ENDMDL
MODEL 2
REMARK VINA RESULT:      -8.6      1.309      2.231
REMARK  5 active torsions:
REMARK  status: ('A' for Active; 'I' for Inactive)
REMARK    1  A    between atoms: N_2  and  S_1 
REMARK    2  A    between atoms: C_3  and  S_1 
REMARK    3  A    between atoms: C_8  and  N_2 
REMARK    4  A    between atoms: C_7  and  C_6 
REMARK    5  A    between atoms: C_16  and  C_8 
ROOT
ATOM      1  C   UNL d   1      52.214  33.739  53.260  0.00  0.00     0.105 A 
ATOM      2  C   UNL d   1      50.759  34.212  52.623  0.00  0.00     0.000 A 
ATOM      3  C   UNL d   1      52.186  34.105  52.523  0.00  0.00     0.013 A 
ATOM      4  C   UNL d   1      51.518  33.608  53.679  0.00  0.00     0.013 A 
ATOM      5  C   UNL d   1      51.454  34.343  52.203  0.00  0.00     0.001 A 
ATOM      6  C   UNL d   1      50.787  33.846  53.359  0.00  0.00     0.001 A 
ENDROOT
BRANCH   1   7
ATOM      7  S   UNL d   1      52.941  33.505  53.573  0.00  0.00     0.285 S 
ATOM      8  O   UNL d   1      53.088  34.273  53.819  0.00  0.00    -0.198 OA
ATOM      9  O   UNL d   1      53.661  33.276  53.884  0.00  0.00    -0.198 OA
BRANCH   7  10
ATOM     10  N   UNL d   1      52.797  32.731  53.328  0.00  0.00    -0.155 NA
BRANCH  10  11
ATOM     11  C   UNL d   1      53.390  32.160  53.405  0.00  0.00     0.137 C 
BRANCH  11  12
ATOM     12  C   UNL d   1      53.214  31.357  53.249  0.00  0.00     0.120 A 
ATOM     13  O   UNL d   1      52.846  31.055  52.573  0.00  0.00    -0.304 OA
ATOM     14  C   UNL d   1      52.788  30.238  52.662  0.00  0.00     0.123 A 
ATOM     15  C   UNL d   1      53.115  30.034  53.382  0.00  0.00     0.029 A 
ATOM     16  C   UNL d   1      53.380  30.725  53.748  0.00  0.00     0.028 A 
ENDBRANCH  11  12
ENDBRANCH  10  11
ENDBRANCH   7  10
ENDBRANCH   1   7
BRANCH   2  17
ATOM     17  C   UNL d   1      50.044  34.447  52.305  0.00  0.00     0.000 A 
ATOM     18  C   UNL d   1      49.526  34.904  52.756  0.00  0.00     0.000 A 
ATOM     19  C   UNL d   1      48.802  35.145  52.442  0.00  0.00     0.000 A 
ATOM     20  C   UNL d   1      48.599  34.922  51.665  0.00  0.00     0.000 A 
ATOM     21  C   UNL d   1      49.115  34.466  51.215  0.00  0.00     0.000 A 
ATOM     22  C   UNL d   1      47.876  35.162  51.348  0.00  0.00     0.000 C 
ATOM     23  C   UNL d   1      49.838  34.227  51.532  0.00  0.00     0.000 A 
ENDBRANCH   2  17
TORSDOF 5
ENDMDL
MODEL 3
REMARK VINA RESULT:      -7.9      2.405      3.407
REMARK  5 active torsions:
REMARK  status: ('A' for Active; 'I' for Inactive)
REMARK    1  A    between atoms: N_2  and  S_1 
REMARK    2  A    between atoms: C_3  and  S_1 
REMARK    3  A    between atoms: C_8  and  N_2 
REMARK    4  A    between atoms: C_7  and  C_6 
REMARK    5  A    between atoms: C_16  and  C_8 
ROOT
ATOM      1  C   UNL d   1      53.015  31.346  53.015  0.00  0.00     0.105 A 
ATOM      2  C   UNL d   1      53.059  32.896  53.603  0.00  0.00     0.000 A 
ATOM      3  C   UNL d   1      52.319  31.781  53.086  0.00  0.00     0.013 A 
ATOM      4  C   UNL d   1      53.733  31.684  53.237  0.00  0.00     0.013 A 
ATOM      5  C   UNL d   1      52.341  32.559  53.382  0.00  0.00     0.001 A 
ATOM      6  C   UNL d   1      53.755  32.462  53.532  0.00  0.00     0.001 A 
ENDROOT
BRANCH   1   7
ATOM      7  S   UNL d   1      52.989  30.575  52.722  0.00  0.00     0.285 S 
ATOM      8  O   UNL d   1      52.917  30.863  51.958  0.00  0.00    -0.198 OA
ATOM      9  O   UNL d   1      52.962  29.813  52.429  0.00  0.00    -0.198 OA
BRANCH   7  10
ATOM     10  N   UNL d   1      53.060  30.282  53.490  0.00  0.00    -0.155 NA
BRANCH  10  11
ATOM     11  C   UNL d   1      52.967  29.472  53.628  0.00  0.00     0.137 C 
BRANCH  11  12
ATOM     12  C   UNL d   1      53.127  29.161  54.388  0.00  0.00     0.120 A 
ATOM     13  O   UNL d   1      52.721  29.336  55.088  0.00  0.00    -0.304 OA
ATOM     14  C   UNL d   1      53.071  28.903  55.696  0.00  0.00     0.123 A 
ATOM     15  C   UNL d   1      53.685  28.466  55.379  0.00  0.00     0.029 A 
ATOM     16  C   UNL d   1      53.722  28.624  54.570  0.00  0.00     0.028 A 
ENDBRANCH  11  12
ENDBRANCH  10  11
ENDBRANCH   7  10
ENDBRANCH   1   7
BRANCH   2  17
ATOM     17  C   UNL d   1      53.076  33.660  53.893  0.00  0.00     0.000 A 
ATOM     18  C   UNL d   1      52.811  34.281  53.421  0.00  0.00     0.000 A 
ATOM     19  C   UNL d   1      52.825  35.055  53.705  0.00  0.00     0.000 A 
ATOM     20  C   UNL d   1      53.108  35.203  54.475  0.00  0.00     0.000 A 
ATOM     21  C   UNL d   1      53.372  34.583  54.947  0.00  0.00     0.000 A 
ATOM     22  C   UNL d   1      53.123  35.976  54.763  0.00  0.00     0.000 C 
ATOM     23  C   UNL d   1      53.357  33.810  54.659  0.00  0.00     0.000 A 
ENDBRANCH   2  17
TORSDOF 5
ENDMDL
MODEL 4
REMARK VINA RESULT:      -7.7      2.236      4.818
REMARK  5 active torsions:
REMARK  status: ('A' for Active; 'I' for Inactive)
REMARK    1  A    between atoms: N_2  and  S_1 
REMARK    2  A    between atoms: C_3  and  S_1 
REMARK    3  A    between atoms: C_8  and  N_2 
REMARK    4  A    between atoms: C_7  and  C_6 
REMARK    5  A    between atoms: C_16  and  C_8 
ROOT
ATOM      1  C   UNL d   1      50.656  34.174  52.479  0.00  0.00     0.105 A 
ATOM      2  C   UNL d   1      52.015  33.890  53.385  0.00  0.00     0.000 A 
ATOM      3  C   UNL d   1      51.347  34.596  52.329  0.00  0.00     0.013 A 
ATOM      4  C   UNL d   1      50.641  33.611  53.080  0.00  0.00     0.013 A 
ATOM      5  C   UNL d   1      52.030  34.453  52.785  0.00  0.00     0.001 A 
ATOM      6  C   UNL d   1      51.324  33.469  53.535  0.00  0.00     0.001 A 
ENDROOT
BRANCH   1   7
ATOM      7  S   UNL d   1      49.982  34.318  52.025  0.00  0.00     0.285 S 
ATOM      8  O   UNL d   1      50.284  33.855  51.420  0.00  0.00    -0.198 OA
ATOM      9  O   UNL d   1      49.316  34.460  51.573  0.00  0.00    -0.198 OA
BRANCH   7  10
ATOM     10  N   UNL d   1      49.675  34.785  52.632  0.00  0.00    -0.155 NA
BRANCH  10  11
ATOM     11  C   UNL d   1      48.974  35.207  52.508  0.00  0.00     0.137 C 
BRANCH  11  12
ATOM     12  C   UNL d   1      48.622  35.620  53.145  0.00  0.00     0.120 A 
ATOM     13  O   UNL d   1      49.003  36.132  53.671  0.00  0.00    -0.304 OA
ATOM     14  C   UNL d   1      48.439  36.409  54.205  0.00  0.00     0.123 A 
ATOM     15  C   UNL d   1      47.719  36.074  54.013  0.00  0.00     0.029 A 
ATOM     16  C   UNL d   1      47.829  35.585  53.357  0.00  0.00     0.028 A 
ENDBRANCH  11  12
ENDBRANCH  10  11
ENDBRANCH   7  10
ENDBRANCH   1   7
BRANCH   2  17
ATOM     17  C   UNL d   1      52.687  33.754  53.830  0.00  0.00     0.000 A 
ATOM     18  C   UNL d   1      53.112  33.057  53.723  0.00  0.00     0.000 A 
ATOM     19  C   UNL d   1      53.792  32.911  54.168  0.00  0.00     0.000 A 
ATOM     20  C   UNL d   1      54.044  33.477  54.725  0.00  0.00     0.000 A 
ATOM     21  C   UNL d   1      53.620  34.174  54.832  0.00  0.00     0.000 A 
ATOM     22  C   UNL d   1      54.724  33.335  55.172  0.00  0.00     0.000 C 
ATOM     23  C   UNL d   1      52.940  34.316  54.386  0.00  0.00     0.000 A 
ENDBRANCH   2  17
TORSDOF 5
ENDMDL
MODEL 5
REMARK VINA RESULT:      -7.2      2.131      4.788
REMARK  5 active torsions:
REMARK  status: ('A' for Active; 'I' for Inactive)
REMARK    1  A    between atoms: N_2  and  S_1 
REMARK    2  A    between atoms: C_3  and  S_1 
REMARK    3  A    between atoms: C_8  and  N_2 
REMARK    4  A    between atoms: C_7  and  C_6 
REMARK    5  A    between atoms: C_16  and  C_8 
ROOT
ATOM      1  C   UNL d   1      53.334  33.087  53.570  0.00  0.00     0.105 A 
ATOM      2  C   UNL d   1      53.367  31.464  53.908  0.00  0.00     0.000 A 
ATOM      3  C   UNL d   1      53.356  32.828  54.352  0.00  0.00     0.013 A 
ATOM      4  C   UNL d   1      53.328  32.538  52.957  0.00  0.00     0.013 A 
ATOM      5  C   UNL d   1      53.373  32.013  54.522  0.00  0.00     0.001 A 
ATOM      6  C   UNL d   1      53.345  31.722  53.127  0.00  0.00     0.001 A 
ENDROOT
BRANCH   1   7
ATOM      7  S   UNL d   1      53.317  33.896  53.407  0.00  0.00     0.285 S 
ATOM      8  O   UNL d   1      54.109  33.958  53.610  0.00  0.00    -0.198 OA
ATOM      9  O   UNL d   1      53.304  34.697  53.247  0.00  0.00    -0.198 OA
BRANCH   7  10
ATOM     10  N   UNL d   1      52.520  33.837  53.202  0.00  0.00    -0.155 NA
BRANCH  10  11
ATOM     11  C   UNL d   1      52.112  34.511  52.952  0.00  0.00     0.137 C 
BRANCH  11  12
ATOM     12  C   UNL d   1      51.300  34.454  52.758  0.00  0.00     0.120 A 
ATOM     13  O   UNL d   1      50.663  34.518  53.281  0.00  0.00    -0.304 OA
ATOM     14  C   UNL d   1      49.969  34.426  52.845  0.00  0.00     0.123 A 
ATOM     15  C   UNL d   1      50.172  34.308  52.063  0.00  0.00     0.029 A 
ATOM     16  C   UNL d   1      50.996  34.325  52.005  0.00  0.00     0.028 A 
ENDBRANCH  11  12
ENDBRANCH  10  11
ENDBRANCH   7  10
ENDBRANCH   1   7
BRANCH   2  17
ATOM     17  C   UNL d   1      53.384  30.665  54.079  0.00  0.00     0.000 A 
ATOM     18  C   UNL d   1      53.393  30.416  54.864  0.00  0.00     0.000 A 
ATOM     19  C   UNL d   1      53.410  29.611  55.046  0.00  0.00     0.000 A 
ATOM     20  C   UNL d   1      53.418  29.053  54.427  0.00  0.00     0.000 A 
ATOM     21  C   UNL d   1      53.409  29.302  53.643  0.00  0.00     0.000 A 
ATOM     22  C   UNL d   1      53.434  28.247  54.604  0.00  0.00     0.000 C 
ATOM     23  C   UNL d   1      53.392  30.107  53.465  0.00  0.00     0.000 A 
ENDBRANCH   2  17
TORSDOF 5
ENDMDL
MODEL 6
REMARK VINA RESULT:      -6.6      2.658      4.322
REMARK  5 active torsions:
REMARK  status: ('A' for Active; 'I' for Inactive)
REMARK    1  A    between atoms: N_2  and  S_1 
REMARK    2  A    between atoms: C_3  and  S_1 
REMARK    3  A    between atoms: C_8  and  N_2 
REMARK    4  A    between atoms: C_7  and  C_6 
REMARK    5  A    between atoms: C_16  and  C_8 
ROOT
ATOM      1  C   UNL d   1      54.491  33.035  54.613  0.00  0.00     0.105 A 
ATOM      2  C   UNL d   1      53.810  31.641  54.030  0.00  0.00     0.000 A 
ATOM      3  C   UNL d   1      54.011  32.576  55.099  0.00  0.00     0.013 A 
ATOM      4  C   UNL d   1      54.632  32.800  53.837  0.00  0.00     0.013 A 
ATOM      5  C   UNL d   1      53.668  31.875  54.807  0.00  0.00     0.001 A 
ATOM      6  C   UNL d   1      54.290  32.099  53.544  0.00  0.00     0.001 A 
ENDROOT
BRANCH   1   7
ATOM      7  S   UNL d   1      54.828  33.728  54.907  0.00  0.00     0.285 S 
ATOM      8  O   UNL d   1      55.536  33.335  55.037  0.00  0.00    -0.198 OA
ATOM      9  O   UNL d   1      55.164  34.413  55.199  0.00  0.00    -0.198 OA
BRANCH   7  10
ATOM     10  N   UNL d   1      54.117  34.127  54.778  0.00  0.00    -0.155 NA
BRANCH  10  11
ATOM     11  C   UNL d   1      54.105  34.954  54.792  0.00  0.00     0.137 C 
BRANCH  11  12
ATOM     12  C   UNL d   1      53.380  35.358  54.682  0.00  0.00     0.120 A 
ATOM     13  O   UNL d   1      52.983  35.820  55.242  0.00  0.00    -0.304 OA
ATOM     14  C   UNL d   1      52.296  36.107  54.890  0.00  0.00     0.123 A 
ATOM     15  C   UNL d   1      52.266  35.828  54.122  0.00  0.00     0.029 A 
ATOM     16  C   UNL d   1      52.936  35.364  53.991  0.00  0.00     0.028 A 
ENDBRANCH  11  12
ENDBRANCH  10  11
ENDBRANCH   7  10
ENDBRANCH   1   7
BRANCH   2  17
ATOM     17  C   UNL d   1      53.472  30.952  53.747  0.00  0.00     0.000 A 
ATOM     18  C   UNL d   1      52.972  30.982  53.093  0.00  0.00     0.000 A 
ATOM     19  C   UNL d   1      52.627  30.292  52.801  0.00  0.00     0.000 A 
ATOM     20  C   UNL d   1      52.789  29.564  53.174  0.00  0.00     0.000 A 
ATOM     21  C   UNL d   1      53.288  29.535  53.828  0.00  0.00     0.000 A 
ATOM     22  C   UNL d   1      52.445  28.872  52.885  0.00  0.00     0.000 C 
ATOM     23  C   UNL d   1      53.631  30.227  54.117  0.00  0.00     0.000 A 
ENDBRANCH   2  17
TORSDOF 5
ENDMDL
