MODEL 1
REMARK VINA RESULT:      35.8      0.000      0.000
REMARK  5 active torsions:
REMARK  status: ('A' for Active; 'I' for Inactive)
REMARK    1  A    between atoms: C_10  and  N_3 
REMARK    2  A    between atoms: C_12  and  N_6 
REMARK    3  A    between atoms: C_11  and  C_10 
REMARK    4  A    between atoms: O_18  and  C_11 
REMARK    5  A    between atoms: C_23  and  O_18 
ROOT
ATOM      1  C   UNL d   1      14.414  13.099  -1.996  0.00  0.00     0.172 A 
ATOM      2  C   UNL d   1      14.709  12.859  -1.264  0.00  0.00     0.113 A 
ATOM      3  N   UNL d   1      15.050  14.211  -0.959  0.00  0.00    -0.252 N 
ATOM      4  C   UNL d   1      15.026  13.411  -0.746  0.00  0.00     0.271 A 
ATOM      5  N   UNL d   1      14.436  13.890  -2.211  0.00  0.00    -0.206 NA
ATOM      6  N   UNL d   1      14.136  12.420  -2.385  0.00  0.00    -0.212 N 
ATOM      7  N   UNL d   1      14.262  11.780  -1.892  0.00  0.00    -0.162 NA
ATOM      8  C   UNL d   1      14.756  14.450  -1.691  0.00  0.00     0.187 A 
ATOM      9  C   UNL d   1      14.608  12.037  -1.213  0.00  0.00     0.129 A 
ATOM     10  O   UNL d   1      15.321  13.171  -0.014  0.00  0.00    -0.266 OA
ENDROOT
BRANCH   3  11
ATOM     11  C   UNL d   1      15.371  14.779  -0.438  0.00  0.00     0.132 C 
ATOM     12  C   UNL d   1      16.061  14.604  -0.020  0.00  0.00     0.025 C 
BRANCH  11  13
ATOM     13  C   UNL d   1      14.997  15.514  -0.342  0.00  0.00     0.317 C 
ATOM     14  O   UNL d   1      14.195  15.545  -0.188  0.00  0.00    -0.257 OA
BRANCH  13  15
ATOM     15  O   UNL d   1      15.446  16.203  -0.406  0.00  0.00    -0.270 OA
BRANCH  15  16
ATOM     16  C   UNL d   1      15.077  16.903  -0.662  0.00  0.00     0.126 C 
ATOM     17  C   UNL d   1      15.351  17.265  -1.343  0.00  0.00     0.029 C 
ENDBRANCH  15  16
ENDBRANCH  13  15
ENDBRANCH  11  13
ENDBRANCH   3  11
BRANCH   6  18
ATOM     18  C   UNL d   1      13.794  12.359  -3.121  0.00  0.00     0.085 A 
ATOM     19  C   UNL d   1      14.098  12.794  -3.756  0.00  0.00     0.020 A 
ATOM     20  C   UNL d   1      13.750  12.730  -4.498  0.00  0.00     0.013 A 
ATOM     21  C   UNL d   1      13.110  12.246  -4.624  0.00  0.00     0.058 A 
ATOM     22  C   UNL d   1      12.799  11.802  -3.979  0.00  0.00     0.013 A 
ATOM     23 CL   UNL d   1      12.769  12.194  -5.389  0.00  0.00    -0.082 Cl
ATOM     24  C   UNL d   1      13.138  11.859  -3.237  0.00  0.00     0.020 A 
ENDBRANCH   6  18
TORSDOF 5
ENDMDL
