MODEL 1
REMARK VINA RESULT:      27.1      0.000      0.000
REMARK  4 active torsions:
REMARK  status: ('A' for Active; 'I' for Inactive)
REMARK    1  A    between atoms: N_6  and  C_1 
REMARK    2  A    between atoms: C_7  and  N_2 
REMARK       I    between atoms: C_8  and  N_6 
REMARK    3  A    between atoms: C_19  and  C_8 
REMARK    4  A    between atoms: O_20  and  C_15 
ROOT
ATOM      1  C   UNL d   1     -58.411 -98.759 -44.613  0.00  0.00     0.169 A 
ATOM      2  N   UNL d   1     -57.676 -98.760 -45.002  0.00  0.00    -0.212 N 
ATOM      3  N   UNL d   1     -57.839 -98.762 -45.810  0.00  0.00    -0.163 NA
ATOM      4  C   UNL d   1     -58.994 -98.759 -45.181  0.00  0.00     0.062 A 
ATOM      5  C   UNL d   1     -58.659 -98.761 -45.937  0.00  0.00     0.111 A 
ATOM      6  S   UNL d   1     -59.958 -98.761 -46.112  0.00  0.00    -0.084 SA
ATOM      7  C   UNL d   1     -59.836 -98.759 -45.293  0.00  0.00     0.040 A 
ATOM      8  C   UNL d   1     -59.271 -98.762 -46.509  0.00  0.00     0.056 A 
ENDROOT
BRANCH   2   9
ATOM      9  C   UNL d   1     -56.958 -98.760 -44.665  0.00  0.00     0.085 A 
ATOM     10  C   UNL d   1     -56.291 -98.757 -45.118  0.00  0.00     0.021 A 
ATOM     11  C   UNL d   1     -55.539 -98.756 -44.774  0.00  0.00     0.026 A 
ATOM     12  C   UNL d   1     -55.456 -98.760 -43.973  0.00  0.00     0.094 A 
ATOM     13  C   UNL d   1     -56.130 -98.764 -43.503  0.00  0.00     0.026 A 
ATOM     14  C   UNL d   1     -56.883 -98.764 -43.847  0.00  0.00     0.021 A 
BRANCH  12  15
ATOM     15  O   UNL d   1     -54.783 -98.760 -43.626  0.00  0.00    -0.328 OA
ATOM     16  C   UNL d   1     -54.720 -98.945 -42.714  0.00  0.00     0.181 C 
ENDBRANCH  12  15
ENDBRANCH   2   9
BRANCH   1  17
ATOM     17  N   UNL d   1     -58.495 -98.757 -43.840  0.00  0.00    -0.188 NA
ATOM     18  C   UNL d   1     -59.235 -98.831 -43.496  0.00  0.00     0.292 C 
ATOM     19  O   UNL d   1     -59.901 -98.909 -44.001  0.00  0.00    -0.264 OA
BRANCH  18  20
ATOM     20  C   UNL d   1     -59.301 -98.827 -42.673  0.00  0.00     0.131 C 
ATOM     21 CL   UNL d   1     -59.945 -99.150 -42.283  0.00  0.00    -0.076 Cl
ENDBRANCH  18  20
ENDBRANCH   1  17
TORSDOF 4
ENDMDL
