MODEL 1
REMARK VINA RESULT:      11.7      0.000      0.000
REMARK  6 active torsions:
REMARK  status: ('A' for Active; 'I' for Inactive)
REMARK    1  A    between atoms: C_7  and  C_1 
REMARK    2  A    between atoms: N_6  and  C_3 
REMARK    3  A    between atoms: N_8  and  N_6 
REMARK    4  A    between atoms: O_12  and  C_7 
REMARK    5  A    between atoms: C_9  and  N_8 
REMARK    6  A    between atoms: C_18  and  O_12 
ROOT
ATOM      1  C   UNL d   1      46.309 -18.849  43.665  0.00  0.00     0.084 A 
ATOM      2  N   UNL d   1      46.105 -18.213  44.771  0.00  0.00    -0.225 NA
ATOM      3  C   UNL d   1      46.191 -17.647  44.184  0.00  0.00     0.184 A 
ATOM      4  C   UNL d   1      46.179 -18.965  44.440  0.00  0.00     0.088 A 
ATOM      5  C   UNL d   1      46.321 -18.059  43.482  0.00  0.00     0.044 A 
ATOM      6  C   UNL d   1      46.137 -19.714  44.797  0.00  0.00     0.021 C 
ATOM      7  C   UNL d   1      46.440 -17.716  42.738  0.00  0.00     0.003 C 
ENDROOT
BRANCH   3   8
ATOM      8  N   UNL d   1      46.171 -16.836  44.186  0.00  0.00    -0.129 NA
BRANCH   8   9
ATOM      9  N   UNL d   1      45.594 -16.413  44.610  0.00  0.00    -0.147 NA
BRANCH   9  10
ATOM     10  C   UNL d   1      45.626 -15.583  44.715  0.00  0.00     0.103 A 
ATOM     11  C   UNL d   1      44.945 -15.146  44.853  0.00  0.00     0.019 A 
ATOM     12  C   UNL d   1      44.164 -15.544  44.893  0.00  0.00     0.002 C 
ATOM     13  C   UNL d   1      44.975 -14.339  44.955  0.00  0.00     0.002 A 
ATOM     14  C   UNL d   1      45.698 -13.965  44.918  0.00  0.00     0.000 A 
ATOM     15  C   UNL d   1      46.382 -14.363  44.785  0.00  0.00     0.002 A 
ATOM     16  C   UNL d   1      46.341 -15.173  44.684  0.00  0.00     0.021 A 
ENDBRANCH   9  10
ENDBRANCH   8   9
ENDBRANCH   3   8
BRANCH   1  17
ATOM     17  C   UNL d   1      46.418 -19.494  43.121  0.00  0.00     0.302 C 
ATOM     18  O   UNL d   1      46.647 -20.244  43.442  0.00  0.00    -0.259 OA
BRANCH  17  19
ATOM     19  O   UNL d   1      46.304 -19.385  42.321  0.00  0.00    -0.271 OA
BRANCH  19  20
ATOM     20  C   UNL d   1      46.582 -19.972  41.790  0.00  0.00     0.126 C 
ATOM     21  C   UNL d   1      46.645 -19.784  40.971  0.00  0.00     0.029 C 
ENDBRANCH  19  20
ENDBRANCH  17  19
ENDBRANCH   1  17
TORSDOF 6
ENDMDL
