MODEL 1
REMARK VINA RESULT:       6.3      0.000      0.000
REMARK  2 active torsions:
REMARK  status: ('A' for Active; 'I' for Inactive)
REMARK    1  A    between atoms: C_5  and  C_1 
REMARK       I    between atoms: N_7  and  C_5 
REMARK    2  A    between atoms: C_9  and  N_7 
ROOT
ATOM      1  C   UNL d   1     -41.664-122.159 -49.819  0.00  0.00     0.161 A 
ATOM      2  C   UNL d   1     -41.772-121.531 -50.304  0.00  0.00     0.072 A 
ATOM      3  O   UNL d   1     -41.467-122.931 -50.143  0.00  0.00    -0.302 OA
ATOM      4  C   UNL d   1     -41.700-121.604 -51.115  0.00  0.00     0.200 A 
ATOM      5  C   UNL d   1     -41.509-122.342 -51.453  0.00  0.00     0.062 A 
ATOM      6  C   UNL d   1     -41.398-122.982 -50.969  0.00  0.00     0.103 A 
ATOM      7  O   UNL d   1     -41.819-120.928 -51.593  0.00  0.00    -0.286 OA
ATOM      8  C   UNL d   1     -41.432-122.430 -52.281  0.00  0.00     0.005 A 
ATOM      9  C   UNL d   1     -41.205-123.732 -51.313  0.00  0.00     0.025 A 
ATOM     10  C   UNL d   1     -41.242-123.172 -52.600  0.00  0.00     0.000 A 
ATOM     11  C   UNL d   1     -41.132-123.805 -52.124  0.00  0.00     0.002 A 
ENDROOT
BRANCH   1  12
ATOM     12  C   UNL d   1     -41.751-122.034 -48.974  0.00  0.00     0.302 C 
ATOM     13  N   UNL d   1     -42.435-122.276 -48.582  0.00  0.00    -0.206 NA
ATOM     14  O   UNL d   1     -41.129-121.662 -48.559  0.00  0.00    -0.263 OA
BRANCH  13  15
ATOM     15  C   UNL d   1     -43.033-122.639 -49.009  0.00  0.00     0.085 A 
ATOM     16  C   UNL d   1     -43.293-123.392 -48.791  0.00  0.00     0.018 A 
ATOM     17  C   UNL d   1     -43.886-123.769 -49.204  0.00  0.00     0.002 A 
ATOM     18  C   UNL d   1     -42.933-123.781 -48.125  0.00  0.00     0.002 C 
ATOM     19  C   UNL d   1     -44.231-123.392 -49.846  0.00  0.00     0.000 A 
ATOM     20  C   UNL d   1     -43.977-122.639 -50.069  0.00  0.00     0.002 A 
ATOM     21  C   UNL d   1     -44.848-123.768 -50.284  0.00  0.00     0.000 C 
ATOM     22  C   UNL d   1     -43.379-122.275 -49.643  0.00  0.00     0.019 A 
ENDBRANCH  13  15
ENDBRANCH   1  12
TORSDOF 2
ENDMDL
MODEL 2
REMARK VINA RESULT:       7.1      1.593      3.659
REMARK  2 active torsions:
REMARK  status: ('A' for Active; 'I' for Inactive)
REMARK    1  A    between atoms: C_5  and  C_1 
REMARK       I    between atoms: N_7  and  C_5 
REMARK    2  A    between atoms: C_9  and  N_7 
ROOT
ATOM      1  C   UNL d   1     -42.194-122.972 -51.268  0.00  0.00     0.161 A 
ATOM      2  C   UNL d   1     -42.887-122.595 -51.130  0.00  0.00     0.072 A 
ATOM      3  O   UNL d   1     -41.717-123.259 -50.613  0.00  0.00    -0.302 OA
ATOM      4  C   UNL d   1     -43.160-122.474 -50.369  0.00  0.00     0.200 A 
ATOM      5  C   UNL d   1     -42.715-122.743 -49.718  0.00  0.00     0.062 A 
ATOM      6  C   UNL d   1     -42.012-123.124 -49.849  0.00  0.00     0.103 A 
ATOM      7  O   UNL d   1     -43.888-122.077 -50.260  0.00  0.00    -0.286 OA
ATOM      8  C   UNL d   1     -42.982-122.625 -48.934  0.00  0.00     0.005 A 
ATOM      9  C   UNL d   1     -41.560-123.398 -49.187  0.00  0.00     0.025 A 
ATOM     10  C   UNL d   1     -42.526-122.899 -48.298  0.00  0.00     0.000 A 
ATOM     11  C   UNL d   1     -41.833-123.276 -48.426  0.00  0.00     0.002 A 
ENDROOT
BRANCH   1  12
ATOM     12  C   UNL d   1     -41.949-123.076 -52.084  0.00  0.00     0.302 C 
ATOM     13  N   UNL d   1     -41.594-122.458 -52.498  0.00  0.00    -0.206 NA
ATOM     14  O   UNL d   1     -42.079-123.817 -52.448  0.00  0.00    -0.263 OA
BRANCH  13  15
ATOM     15  C   UNL d   1     -41.477-121.739 -52.122  0.00  0.00     0.085 A 
ATOM     16  C   UNL d   1     -41.601-121.035 -52.535  0.00  0.00     0.018 A 
ATOM     17  C   UNL d   1     -41.490-120.312 -52.177  0.00  0.00     0.002 A 
ATOM     18  C   UNL d   1     -41.850-121.067 -53.348  0.00  0.00     0.002 C 
ATOM     19  C   UNL d   1     -41.249-120.284 -51.392  0.00  0.00     0.000 A 
ATOM     20  C   UNL d   1     -41.123-120.984 -50.974  0.00  0.00     0.002 A 
ATOM     21  C   UNL d   1     -41.129-119.542 -51.006  0.00  0.00     0.000 C 
ATOM     22  C   UNL d   1     -41.240-121.703 -51.349  0.00  0.00     0.019 A 
ENDBRANCH  13  15
ENDBRANCH   1  12
TORSDOF 2
ENDMDL
MODEL 3
REMARK VINA RESULT:       8.0      1.593      3.508
REMARK  2 active torsions:
REMARK  status: ('A' for Active; 'I' for Inactive)
REMARK    1  A    between atoms: C_5  and  C_1 
REMARK       I    between atoms: N_7  and  C_5 
REMARK    2  A    between atoms: C_9  and  N_7 
ROOT
ATOM      1  C   UNL d   1     -41.700-121.441 -51.312  0.00  0.00     0.161 A 
ATOM      2  C   UNL d   1     -42.499-121.458 -51.280  0.00  0.00     0.072 A 
ATOM      3  O   UNL d   1     -41.234-122.023 -50.882  0.00  0.00    -0.302 OA
ATOM      4  C   UNL d   1     -42.895-122.024 -50.842  0.00  0.00     0.200 A 
ATOM      5  C   UNL d   1     -42.466-122.598 -50.417  0.00  0.00     0.062 A 
ATOM      6  C   UNL d   1     -41.656-122.588 -50.444  0.00  0.00     0.103 A 
ATOM      7  O   UNL d   1     -43.731-122.012 -50.830  0.00  0.00    -0.286 OA
ATOM      8  C   UNL d   1     -42.858-123.182 -49.964  0.00  0.00     0.005 A 
ATOM      9  C   UNL d   1     -41.220-123.172 -50.012  0.00  0.00     0.025 A 
ATOM     10  C   UNL d   1     -42.415-123.745 -49.547  0.00  0.00     0.000 A 
ATOM     11  C   UNL d   1     -41.616-123.737 -49.573  0.00  0.00     0.002 A 
ENDROOT
BRANCH   1  12
ATOM     12  C   UNL d   1     -41.329-120.829 -51.786  0.00  0.00     0.302 C 
ATOM     13  N   UNL d   1     -41.181-120.950 -52.588  0.00  0.00    -0.206 NA
ATOM     14  O   UNL d   1     -41.122-120.108 -51.417  0.00  0.00    -0.263 OA
BRANCH  13  15
ATOM     15  C   UNL d   1     -41.392-121.664 -52.930  0.00  0.00     0.085 A 
ATOM     16  C   UNL d   1     -41.888-121.672 -53.590  0.00  0.00     0.018 A 
ATOM     17  C   UNL d   1     -42.108-122.373 -53.943  0.00  0.00     0.002 A 
ATOM     18  C   UNL d   1     -42.174-120.935 -53.905  0.00  0.00     0.002 C 
ATOM     19  C   UNL d   1     -41.831-123.082 -53.637  0.00  0.00     0.000 A 
ATOM     20  C   UNL d   1     -41.335-123.082 -52.978  0.00  0.00     0.002 A 
ATOM     21  C   UNL d   1     -42.050-123.817 -53.992  0.00  0.00     0.000 C 
ATOM     22  C   UNL d   1     -41.123-122.368 -52.635  0.00  0.00     0.019 A 
ENDBRANCH  13  15
ENDBRANCH   1  12
TORSDOF 2
ENDMDL
MODEL 4
REMARK VINA RESULT:       8.6      2.392      3.859
REMARK  2 active torsions:
REMARK  status: ('A' for Active; 'I' for Inactive)
REMARK    1  A    between atoms: C_5  and  C_1 
REMARK       I    between atoms: N_7  and  C_5 
REMARK    2  A    between atoms: C_9  and  N_7 
ROOT
ATOM      1  C   UNL d   1     -41.968-122.632 -53.061  0.00  0.00     0.161 A 
ATOM      2  C   UNL d   1     -42.682-122.275 -53.117  0.00  0.00     0.072 A 
ATOM      3  O   UNL d   1     -41.438-122.655 -53.739  0.00  0.00    -0.302 OA
ATOM      4  C   UNL d   1     -42.928-121.925 -53.813  0.00  0.00     0.200 A 
ATOM      5  C   UNL d   1     -42.433-121.933 -54.483  0.00  0.00     0.062 A 
ATOM      6  C   UNL d   1     -41.708-122.292 -54.435  0.00  0.00     0.103 A 
ATOM      7  O   UNL d   1     -43.680-121.560 -53.837  0.00  0.00    -0.286 OA
ATOM      8  C   UNL d   1     -42.672-121.578 -55.202  0.00  0.00     0.005 A 
ATOM      9  C   UNL d   1     -41.204-122.301 -55.116  0.00  0.00     0.025 A 
ATOM     10  C   UNL d   1     -42.166-121.597 -55.859  0.00  0.00     0.000 A 
ATOM     11  C   UNL d   1     -41.450-121.951 -55.813  0.00  0.00     0.002 A 
ENDROOT
BRANCH   1  12
ATOM     12  C   UNL d   1     -41.753-122.987 -52.309  0.00  0.00     0.302 C 
ATOM     13  N   UNL d   1     -41.460-122.522 -51.694  0.00  0.00    -0.206 NA
ATOM     14  O   UNL d   1     -41.848-123.812 -52.215  0.00  0.00    -0.263 OA
BRANCH  13  15
ATOM     15  C   UNL d   1     -41.375-121.715 -51.808  0.00  0.00     0.085 A 
ATOM     16  C   UNL d   1     -41.443-121.201 -51.166  0.00  0.00     0.018 A 
ATOM     17  C   UNL d   1     -41.362-120.396 -51.260  0.00  0.00     0.002 A 
ATOM     18  C   UNL d   1     -41.601-121.519 -50.392  0.00  0.00     0.002 C 
ATOM     19  C   UNL d   1     -41.210-120.092 -52.007  0.00  0.00     0.000 A 
ATOM     20  C   UNL d   1     -41.140-120.599 -52.654  0.00  0.00     0.002 A 
ATOM     21  C   UNL d   1     -41.123-119.259 -52.122  0.00  0.00     0.000 C 
ATOM     22  C   UNL d   1     -41.225-121.407 -52.541  0.00  0.00     0.019 A 
ENDBRANCH  13  15
ENDBRANCH   1  12
TORSDOF 2
ENDMDL
