MODEL 1
REMARK VINA RESULT:       2.3      0.000      0.000
REMARK  4 active torsions:
REMARK  status: ('A' for Active; 'I' for Inactive)
REMARK    1  A    between atoms: S_11  and  C_7 
REMARK    2  A    between atoms: C_17  and  C_10 
REMARK    3  A    between atoms: C_16  and  S_11 
REMARK    4  A    between atoms: C_20  and  C_17 
ROOT
ATOM      1  N   UNL d   1     -41.604-123.084 -53.584  0.00  0.00    -0.224 N 
ATOM      2  N   UNL d   1     -41.492-121.652 -53.632  0.00  0.00    -0.241 N 
ATOM      3  C   UNL d   1     -41.588-122.373 -54.020  0.00  0.00     0.343 A 
ATOM      4  C   UNL d   1     -41.412-121.642 -52.808  0.00  0.00     0.160 A 
ATOM      5  C   UNL d   1     -41.524-123.067 -52.764  0.00  0.00     0.273 A 
ATOM      6  C   UNL d   1     -41.428-122.346 -52.376  0.00  0.00     0.115 A 
ATOM      7  C   UNL d   1     -41.347-122.329 -51.555  0.00  0.00     0.120 A 
ATOM      8  N   UNL d   1     -41.315-120.917 -52.413  0.00  0.00    -0.209 NA
ATOM      9  N   UNL d   1     -41.251-121.611 -51.166  0.00  0.00    -0.220 NA
ATOM     10  C   UNL d   1     -41.234-120.900 -51.593  0.00  0.00     0.165 A 
ATOM     11  O   UNL d   1     -41.669-122.393 -54.844  0.00  0.00    -0.245 OA
ATOM     12  O   UNL d   1     -41.540-123.773 -52.335  0.00  0.00    -0.266 OA
ATOM     13  C   UNL d   1     -41.700-123.798 -53.976  0.00  0.00     0.107 C 
ATOM     14  C   UNL d   1     -41.476-120.949 -54.065  0.00  0.00     0.105 C 
ENDROOT
BRANCH   7  15
ATOM     15  S   UNL d   1     -41.363-123.034 -51.127  0.00  0.00    -0.068 SA
BRANCH  15  16
ATOM     16  C   UNL d   1     -41.684-123.048 -50.365  0.00  0.00     0.031 A 
ATOM     17  C   UNL d   1     -42.377-122.676 -50.123  0.00  0.00     0.006 A 
ATOM     18  C   UNL d   1     -42.500-122.827 -49.323  0.00  0.00     0.001 A 
ATOM     19  C   UNL d   1     -41.868-123.303 -49.067  0.00  0.00     0.001 A 
ATOM     20  C   UNL d   1     -41.364-123.438 -49.716  0.00  0.00     0.006 A 
ENDBRANCH  15  16
ENDBRANCH   7  15
BRANCH  10  21
ATOM     21  C   UNL d   1     -41.138-120.180 -51.199  0.00  0.00     0.039 C 
BRANCH  21  22
ATOM     22  C   UNL d   1     -41.222-119.469 -51.616  0.00  0.00     0.003 C 
ATOM     23  C   UNL d   1     -41.127-118.751 -51.238  0.00  0.00     0.000 C 
ENDBRANCH  21  22
ENDBRANCH  10  21
TORSDOF 4
ENDMDL
