MODEL 1
REMARK VINA RESULT:      13.9      0.000      0.000
REMARK  5 active torsions:
REMARK  status: ('A' for Active; 'I' for Inactive)
REMARK    1  A    between atoms: N_2  and  S_1 
REMARK    2  A    between atoms: C_4  and  S_1 
REMARK    3  A    between atoms: C_3  and  N_2 
REMARK    4  A    between atoms: N_7  and  C_3 
REMARK    5  A    between atoms: C_15  and  N_7 
ROOT
ATOM      1  S   UNL d   1      13.795  12.024  -2.233  0.00  0.00     0.287 S 
ATOM      2  O   UNL d   1      14.580  12.265  -2.372  0.00  0.00    -0.198 OA
ATOM      3  O   UNL d   1      13.012  11.792  -2.113  0.00  0.00    -0.198 OA
ENDROOT
BRANCH   1   4
ATOM      4  N   UNL d   1      13.994  11.780  -1.469  0.00  0.00    -0.128 NA
BRANCH   4   5
ATOM      5  C   UNL d   1      13.998  11.922  -0.645  0.00  0.00     0.232 C 
ATOM      6  S   UNL d   1      13.311  11.819  -0.209  0.00  0.00    -0.036 SA
BRANCH   5   7
ATOM      7  N   UNL d   1      14.698  12.164  -0.280  0.00  0.00    -0.217 NA
BRANCH   7   8
ATOM      8  C   UNL d   1      14.882  12.969  -0.248  0.00  0.00     0.084 A 
ATOM      9  C   UNL d   1      15.644  13.221  -0.418  0.00  0.00     0.019 A 
ATOM     10  C   UNL d   1      15.830  14.018  -0.387  0.00  0.00     0.002 A 
ATOM     11  C   UNL d   1      15.257  14.569  -0.186  0.00  0.00     0.000 A 
ATOM     12  C   UNL d   1      14.489  14.318  -0.014  0.00  0.00     0.002 A 
ATOM     13  C   UNL d   1      14.301  13.519  -0.045  0.00  0.00     0.019 A 
ENDBRANCH   7   8
ENDBRANCH   5   7
ENDBRANCH   4   5
ENDBRANCH   1   4
BRANCH   1  14
ATOM     14  C   UNL d   1      13.594  12.270  -3.002  0.00  0.00     0.105 A 
ATOM     15  C   UNL d   1      13.128  11.779  -3.488  0.00  0.00     0.014 A 
ATOM     16  C   UNL d   1      12.930  12.022  -4.246  0.00  0.00     0.012 A 
ATOM     17  C   UNL d   1      13.191  12.752  -4.529  0.00  0.00     0.058 A 
ATOM     18  C   UNL d   1      13.654  13.243  -4.050  0.00  0.00     0.012 A 
ATOM     19 CL   UNL d   1      12.993  12.994  -5.287  0.00  0.00    -0.082 Cl
ATOM     20  C   UNL d   1      13.853  12.999  -3.287  0.00  0.00     0.014 A 
ENDBRANCH   1  14
TORSDOF 5
ENDMDL
