MODEL 1
REMARK VINA RESULT:       9.6      0.000      0.000
REMARK  4 active torsions:
REMARK  status: ('A' for Active; 'I' for Inactive)
REMARK    1  A    between atoms: C_2  and  N_1 
REMARK       I    between atoms: C_3  and  N_1 
REMARK    2  A    between atoms: N_4  and  C_2 
REMARK    3  A    between atoms: C_7  and  C_3 
REMARK    4  A    between atoms: C_8  and  N_4 
ROOT
ATOM      1  C   UNL d   1      45.784 -16.649  44.328  0.00  0.00     0.179 C 
ATOM      2  S   UNL d   1      45.882 -16.341  43.565  0.00  0.00    -0.040 SA
ENDROOT
BRANCH   1   3
ATOM      3  N   UNL d   1      45.942 -17.444  44.481  0.00  0.00    -0.299 N 
ATOM      4  C   UNL d   1      46.167 -17.926  43.863  0.00  0.00     0.259 C 
ATOM      5  O   UNL d   1      46.235 -17.626  43.095  0.00  0.00    -0.267 OA
ATOM      6  H   UNL d   1      45.875 -17.740  45.238  0.00  0.00     0.171 HD
BRANCH   4   7
ATOM      7  C   UNL d   1      46.329 -18.732  44.012  0.00  0.00     0.056 A 
ATOM      8  C   UNL d   1      46.331 -19.267  43.396  0.00  0.00     0.005 A 
ATOM      9  C   UNL d   1      46.490 -20.065  43.538  0.00  0.00     0.000 A 
ATOM     10  C   UNL d   1      46.647 -20.314  44.308  0.00  0.00     0.000 A 
ATOM     11  C   UNL d   1      46.645 -19.779  44.924  0.00  0.00     0.000 A 
ATOM     12  C   UNL d   1      46.486 -18.982  44.783  0.00  0.00     0.005 A 
ENDBRANCH   4   7
ENDBRANCH   1   3
BRANCH   1  13
ATOM     13  N   UNL d   1      45.526 -16.163  44.943  0.00  0.00    -0.332 N 
ATOM     14  H   UNL d   1      45.261 -16.489  45.643  0.00  0.00     0.168 HD
BRANCH  13  15
ATOM     15  C   UNL d   1      45.540 -15.349  44.841  0.00  0.00     0.058 A 
ATOM     16  C   UNL d   1      46.258 -14.937  44.844  0.00  0.00     0.018 A 
ATOM     17  C   UNL d   1      46.250 -14.122  44.740  0.00  0.00     0.013 A 
ATOM     18  C   UNL d   1      45.554 -13.710  44.634  0.00  0.00     0.058 A 
ATOM     19  C   UNL d   1      44.836 -14.123  44.631  0.00  0.00     0.013 A 
ATOM     20 CL   UNL d   1      45.549 -12.900  44.531  0.00  0.00    -0.082 Cl
ATOM     21  C   UNL d   1      44.825 -14.941  44.734  0.00  0.00     0.018 A 
ENDBRANCH  13  15
ENDBRANCH   1  13
TORSDOF 4
ENDMDL
MODEL 2
REMARK VINA RESULT:      10.6      2.003      4.693
REMARK  4 active torsions:
REMARK  status: ('A' for Active; 'I' for Inactive)
REMARK    1  A    between atoms: C_2  and  N_1 
REMARK       I    between atoms: C_3  and  N_1 
REMARK    2  A    between atoms: N_4  and  C_2 
REMARK    3  A    between atoms: C_7  and  C_3 
REMARK    4  A    between atoms: C_8  and  N_4 
ROOT
ATOM      1  C   UNL d   1      45.927 -17.052  44.197  0.00  0.00     0.179 C 
ATOM      2  S   UNL d   1      45.174 -17.396  44.221  0.00  0.00    -0.040 SA
ENDROOT
BRANCH   1   3
ATOM      3  N   UNL d   1      46.011 -16.231  44.196  0.00  0.00    -0.299 N 
ATOM      4  C   UNL d   1      45.450 -15.778  44.575  0.00  0.00     0.259 C 
ATOM      5  O   UNL d   1      44.805 -16.133  44.955  0.00  0.00    -0.267 OA
ATOM      6  H   UNL d   1      46.647 -15.882  43.822  0.00  0.00     0.171 HD
BRANCH   4   7
ATOM      7  C   UNL d   1      45.530 -14.947  44.578  0.00  0.00     0.056 A 
ATOM      8  C   UNL d   1      44.865 -14.474  44.555  0.00  0.00     0.005 A 
ATOM      9  C   UNL d   1      44.938 -13.652  44.558  0.00  0.00     0.000 A 
ATOM     10  C   UNL d   1      45.690 -13.313  44.585  0.00  0.00     0.000 A 
ATOM     11  C   UNL d   1      46.355 -13.786  44.608  0.00  0.00     0.000 A 
ATOM     12  C   UNL d   1      46.282 -14.608  44.605  0.00  0.00     0.005 A 
ENDBRANCH   4   7
ENDBRANCH   1   3
BRANCH   1  13
ATOM     13  N   UNL d   1      46.602 -17.527  44.172  0.00  0.00    -0.332 N 
ATOM     14  H   UNL d   1      47.281 -17.298  44.563  0.00  0.00     0.168 HD
BRANCH  13  15
ATOM     15  C   UNL d   1      46.579 -18.230  43.751  0.00  0.00     0.058 A 
ATOM     16  C   UNL d   1      46.566 -18.957  44.147  0.00  0.00     0.018 A 
ATOM     17  C   UNL d   1      46.544 -19.650  43.707  0.00  0.00     0.013 A 
ATOM     18  C   UNL d   1      46.534 -19.640  42.891  0.00  0.00     0.058 A 
ATOM     19  C   UNL d   1      46.547 -18.912  42.495  0.00  0.00     0.013 A 
ATOM     20 CL   UNL d   1      46.512 -20.330  42.456  0.00  0.00    -0.082 Cl
ATOM     21  C   UNL d   1      46.570 -18.206  42.922  0.00  0.00     0.018 A 
ENDBRANCH  13  15
ENDBRANCH   1  13
TORSDOF 4
ENDMDL
