MODEL 1
REMARK VINA RESULT:      -2.5      0.000      0.000
REMARK  2 active torsions:
REMARK  status: ('A' for Active; 'I' for Inactive)
REMARK    1  A    between atoms: N_4  and  C_1 
REMARK    2  A    between atoms: C_6  and  C_2 
ROOT
ATOM      1  C   UNL d   1      30.143  16.210 -23.931  0.00  0.00     0.149 A 
ATOM      2  C   UNL d   1      30.372  16.893 -24.346  0.00  0.00     0.056 A 
ATOM      3  N   UNL d   1      30.695  15.735 -23.560  0.00  0.00    -0.228 NA
ATOM      4  C   UNL d   1      31.165  17.090 -24.382  0.00  0.00     0.006 A 
ATOM      5  C   UNL d   1      31.489  15.929 -23.593  0.00  0.00     0.083 A 
ATOM      6  C   UNL d   1      31.729  16.608 -24.004  0.00  0.00     0.019 A 
ATOM      7  C   UNL d   1      31.413  17.768 -24.791  0.00  0.00     0.000 C 
ATOM      8  C   UNL d   1      32.051  15.453 -23.220  0.00  0.00     0.021 C 
ENDROOT
BRANCH   1   9
ATOM      9  N   UNL d   1      29.341  16.010 -23.895  0.00  0.00    -0.289 N 
ATOM     10  C   UNL d   1      28.943  16.224 -23.331  0.00  0.00     0.082 A 
ATOM     11  C   UNL d   1      28.247  16.046 -23.308  0.00  0.00     0.021 A 
ATOM     12  C   UNL d   1      28.359  15.456 -24.392  0.00  0.00     0.021 A 
ATOM     13  C   UNL d   1      29.051  15.632 -24.416  0.00  0.00     0.082 A 
ENDBRANCH   1   9
BRANCH   2  14
ATOM     14  C   UNL d   1      29.813  17.362 -24.714  0.00  0.00     0.125 C 
ATOM     15  N   UNL d   1      30.041  18.052 -25.095  0.00  0.00    -0.146 N 
ENDBRANCH   2  14
TORSDOF 2
ENDMDL
MODEL 2
REMARK VINA RESULT:      -2.0      5.945      7.141
REMARK  2 active torsions:
REMARK  status: ('A' for Active; 'I' for Inactive)
REMARK    1  A    between atoms: N_4  and  C_1 
REMARK    2  A    between atoms: C_6  and  C_2 
ROOT
ATOM      1  C   UNL d   1      32.852  22.002 -21.646  0.00  0.00     0.149 A 
ATOM      2  C   UNL d   1      32.977  21.950 -20.825  0.00  0.00     0.056 A 
ATOM      3  N   UNL d   1      32.863  21.334 -22.119  0.00  0.00    -0.228 NA
ATOM      4  C   UNL d   1      33.113  21.217 -20.488  0.00  0.00     0.006 A 
ATOM      5  C   UNL d   1      32.999  20.600 -21.786  0.00  0.00     0.083 A 
ATOM      6  C   UNL d   1      33.125  20.537 -20.969  0.00  0.00     0.019 A 
ATOM      7  C   UNL d   1      33.240  21.145 -19.672  0.00  0.00     0.000 C 
ATOM      8  C   UNL d   1      33.011  19.923 -22.258  0.00  0.00     0.021 C 
ENDROOT
BRANCH   1   9
ATOM      9  N   UNL d   1      32.714  22.742 -21.987  0.00  0.00    -0.289 N 
ATOM     10  C   UNL d   1      33.231  23.058 -22.381  0.00  0.00     0.082 A 
ATOM     11  C   UNL d   1      33.103  23.702 -22.673  0.00  0.00     0.021 A 
ATOM     12  C   UNL d   1      31.965  23.702 -22.181  0.00  0.00     0.021 A 
ATOM     13  C   UNL d   1      32.091  23.062 -21.890  0.00  0.00     0.082 A 
ENDBRANCH   1   9
BRANCH   2  14
ATOM     14  C   UNL d   1      32.964  22.622 -20.361  0.00  0.00     0.125 C 
ATOM     15  N   UNL d   1      33.199  22.584 -19.575  0.00  0.00    -0.146 N 
ENDBRANCH   2  14
TORSDOF 2
ENDMDL
MODEL 3
REMARK VINA RESULT:      -2.0      6.211      7.261
REMARK  2 active torsions:
REMARK  status: ('A' for Active; 'I' for Inactive)
REMARK    1  A    between atoms: N_4  and  C_1 
REMARK    2  A    between atoms: C_6  and  C_2 
ROOT
ATOM      1  C   UNL d   1      32.889  22.222 -21.032  0.00  0.00     0.149 A 
ATOM      2  C   UNL d   1      32.976  22.408 -21.839  0.00  0.00     0.056 A 
ATOM      3  N   UNL d   1      32.976  21.455 -20.764  0.00  0.00    -0.228 NA
ATOM      4  C   UNL d   1      33.151  21.811 -22.369  0.00  0.00     0.006 A 
ATOM      5  C   UNL d   1      33.151  20.854 -21.291  0.00  0.00     0.083 A 
ATOM      6  C   UNL d   1      33.239  21.028 -22.096  0.00  0.00     0.019 A 
ATOM      7  C   UNL d   1      33.241  21.976 -23.177  0.00  0.00     0.000 C 
ATOM      8  C   UNL d   1      33.240  20.078 -21.025  0.00  0.00     0.021 C 
ENDROOT
BRANCH   1   9
ATOM      9  N   UNL d   1      32.712  22.826 -20.496  0.00  0.00    -0.289 N 
ATOM     10  C   UNL d   1      32.031  23.055 -20.425  0.00  0.00     0.082 A 
ATOM     11  C   UNL d   1      31.886  23.580 -19.958  0.00  0.00     0.021 A 
ATOM     12  C   UNL d   1      33.084  23.636 -19.645  0.00  0.00     0.021 A 
ATOM     13  C   UNL d   1      33.229  23.114 -20.110  0.00  0.00     0.082 A 
ENDBRANCH   1   9
BRANCH   2  14
ATOM     14  C   UNL d   1      32.887  23.178 -22.098  0.00  0.00     0.125 C 
ATOM     15  N   UNL d   1      32.893  23.344 -22.902  0.00  0.00    -0.146 N 
ENDBRANCH   2  14
TORSDOF 2
ENDMDL
MODEL 4
REMARK VINA RESULT:      -1.4      1.574      3.046
REMARK  2 active torsions:
REMARK  status: ('A' for Active; 'I' for Inactive)
REMARK    1  A    between atoms: N_4  and  C_1 
REMARK    2  A    between atoms: C_6  and  C_2 
ROOT
ATOM      1  C   UNL d   1      32.298  17.137 -24.155  0.00  0.00     0.149 A 
ATOM      2  C   UNL d   1      31.494  17.097 -24.364  0.00  0.00     0.056 A 
ATOM      3  N   UNL d   1      32.764  17.768 -24.384  0.00  0.00    -0.228 NA
ATOM      4  C   UNL d   1      31.167  17.703 -24.807  0.00  0.00     0.006 A 
ATOM      5  C   UNL d   1      32.442  18.376 -24.827  0.00  0.00     0.083 A 
ATOM      6  C   UNL d   1      31.641  18.347 -25.041  0.00  0.00     0.019 A 
ATOM      7  C   UNL d   1      30.368  17.682 -25.026  0.00  0.00     0.000 C 
ATOM      8  C   UNL d   1      32.908  19.015 -25.060  0.00  0.00     0.021 C 
ENDROOT
BRANCH   1   9
ATOM      9  N   UNL d   1      32.628  16.525 -23.707  0.00  0.00    -0.289 N 
ATOM     10  C   UNL d   1      32.581  16.542 -22.987  0.00  0.00     0.082 A 
ATOM     11  C   UNL d   1      32.870  16.006 -22.605  0.00  0.00     0.021 A 
ATOM     12  C   UNL d   1      33.241  15.457 -23.653  0.00  0.00     0.021 A 
ATOM     13  C   UNL d   1      32.954  15.989 -24.033  0.00  0.00     0.082 A 
ENDBRANCH   1   9
BRANCH   2  14
ATOM     14  C   UNL d   1      31.035  16.463 -24.131  0.00  0.00     0.125 C 
ATOM     15  N   UNL d   1      30.235  16.444 -24.315  0.00  0.00    -0.146 N 
ENDBRANCH   2  14
TORSDOF 2
ENDMDL
