MODEL 1
REMARK VINA RESULT:      49.9      0.000      0.000
REMARK  6 active torsions:
REMARK  status: ('A' for Active; 'I' for Inactive)
REMARK    1  A    between atoms: C_8  and  C_6 
REMARK    2  A    between atoms: C_9  and  C_8 
REMARK       I    between atoms: N_11  and  C_9 
REMARK    3  A    between atoms: C_10  and  C_12 
REMARK    4  A    between atoms: O_20  and  C_10 
REMARK    5  A    between atoms: C_19  and  N_11 
REMARK    6  A    between atoms: C_29  and  O_20 
ROOT
ATOM      1  N   UNL d   1      13.761  14.470  -5.173  0.00  0.00    -0.207 NA
ATOM      2  N   UNL d   1      13.672  14.358  -3.502  0.00  0.00    -0.240 NA
ATOM      3  C   UNL d   1      13.446  13.906  -4.679  0.00  0.00     0.297 A 
ATOM      4  C   UNL d   1      14.142  15.179  -4.991  0.00  0.00     0.086 A 
ATOM      5  C   UNL d   1      14.063  15.077  -3.557  0.00  0.00     0.083 A 
ATOM      6  C   UNL d   1      13.418  13.871  -4.113  0.00  0.00     0.144 A 
ATOM      7  C   UNL d   1      14.300  15.493  -4.234  0.00  0.00     0.035 A 
ATOM      8  O   UNL d   1      13.102  13.260  -5.054  0.00  0.00    -0.264 OA
ATOM      9  C   UNL d   1      14.692  16.217  -4.171  0.00  0.00     0.003 A 
ATOM     10  C   UNL d   1      14.219  15.388  -2.809  0.00  0.00     0.019 A 
ATOM     11  C   UNL d   1      14.377  15.591  -5.668  0.00  0.00     0.019 A 
ATOM     12  C   UNL d   1      14.617  16.123  -2.736  0.00  0.00     0.002 A 
ATOM     13  C   UNL d   1      14.770  16.316  -5.596  0.00  0.00     0.002 A 
ATOM     14  C   UNL d   1      14.851  16.532  -3.414  0.00  0.00     0.000 A 
ATOM     15  C   UNL d   1      14.926  16.627  -4.848  0.00  0.00     0.000 A 
ENDROOT
BRANCH   6  16
ATOM     16  C   UNL d   1      13.041  13.186  -3.849  0.00  0.00     0.086 C 
BRANCH  16  17
ATOM     17  C   UNL d   1      13.174  12.468  -4.249  0.00  0.00     0.281 C 
ATOM     18  N   UNL d   1      13.402  11.795  -3.825  0.00  0.00    -0.208 NA
ATOM     19  O   UNL d   1      13.079  12.423  -5.069  0.00  0.00    -0.265 OA
BRANCH  18  20
ATOM     20  C   UNL d   1      13.499  11.835  -3.004  0.00  0.00     0.085 A 
ATOM     21  C   UNL d   1      14.253  11.908  -2.687  0.00  0.00     0.019 A 
ATOM     22  C   UNL d   1      14.356  11.948  -1.872  0.00  0.00     0.007 A 
ATOM     23  C   UNL d   1      13.695  11.914  -1.370  0.00  0.00     0.064 A 
ATOM     24  C   UNL d   1      12.939  11.840  -1.692  0.00  0.00     0.007 A 
ATOM     25  C   UNL d   1      12.841  11.801  -2.510  0.00  0.00     0.019 A 
BRANCH  23  26
ATOM     26  C   UNL d   1      13.792  11.953  -0.567  0.00  0.00     0.300 C 
ATOM     27  O   UNL d   1      13.168  11.783  -0.069  0.00  0.00    -0.259 OA
BRANCH  26  28
ATOM     28  O   UNL d   1      14.511  12.162  -0.252  0.00  0.00    -0.271 OA
BRANCH  28  29
ATOM     29  C   UNL d   1      14.905  12.816  -0.532  0.00  0.00     0.126 C 
ATOM     30  C   UNL d   1      15.072  13.436  -0.034  0.00  0.00     0.029 C 
ENDBRANCH  28  29
ENDBRANCH  26  28
ENDBRANCH  23  26
ENDBRANCH  18  20
ENDBRANCH  16  17
ENDBRANCH   6  16
TORSDOF 6
ENDMDL
