MODEL 1
REMARK VINA RESULT:     103.4      0.000      0.000
REMARK  9 active torsions:
REMARK  status: ('A' for Active; 'I' for Inactive)
REMARK    1  A    between atoms: C_2  and  N_1 
REMARK    2  A    between atoms: C_6  and  C_2 
REMARK    3  A    between atoms: C_8  and  C_2 
REMARK    4  A    between atoms: C_10  and  N_3 
REMARK       I    between atoms: C_4  and  N_7 
REMARK    5  A    between atoms: C_5  and  C_4 
REMARK       I    between atoms: N_9  and  C_5 
REMARK    6  A    between atoms: N_7  and  C_8 
REMARK    7  A    between atoms: C_24  and  N_9 
REMARK    8  A    between atoms: C_26  and  C_24 
REMARK    9  A    between atoms: O_29  and  C_25 
ROOT
ATOM      1  C   UNL d   1      60.557  48.977  51.025  0.00  0.00     0.106 C 
ENDROOT
BRANCH   1   2
ATOM      2  N   UNL d   1      60.896  48.285  50.708  0.00  0.00    -0.298 N 
ATOM      3  C   UNL d   1      61.439  48.337  50.100  0.00  0.00     0.100 A 
ATOM      4  C   UNL d   1      61.778  47.645  49.783  0.00  0.00     0.100 A 
ATOM      5  N   UNL d   1      61.562  46.909  50.087  0.00  0.00    -0.301 N 
ATOM      6  C   UNL d   1      61.009  46.869  50.705  0.00  0.00     0.100 A 
ATOM      7  C   UNL d   1      60.680  47.549  51.012  0.00  0.00     0.100 A 
BRANCH   5   8
ATOM      8  C   UNL d   1      61.886  46.233  49.786  0.00  0.00     0.064 A 
ATOM      9  C   UNL d   1      61.451  45.525  49.785  0.00  0.00     0.020 A 
ATOM     10  C   UNL d   1      61.773  44.831  49.481  0.00  0.00     0.026 A 
ATOM     11  C   UNL d   1      62.538  44.837  49.171  0.00  0.00     0.094 A 
ATOM     12  C   UNL d   1      62.977  45.545  49.170  0.00  0.00     0.026 A 
ATOM     13  C   UNL d   1      62.651  46.239  49.476  0.00  0.00     0.020 A 
BRANCH  11  14
ATOM     14  O   UNL d   1      62.864  44.139  48.864  0.00  0.00    -0.328 OA
ATOM     15  C   UNL d   1      62.502  43.412  49.012  0.00  0.00     0.181 C 
ENDBRANCH  11  14
ENDBRANCH   5   8
ENDBRANCH   1   2
BRANCH   1  16
ATOM     16  C   UNL d   1      60.795  49.235  51.787  0.00  0.00     0.118 A 
ATOM     17  O   UNL d   1      61.513  49.530  52.076  0.00  0.00    -0.304 OA
ATOM     18  C   UNL d   1      61.405  49.690  52.884  0.00  0.00     0.123 A 
ATOM     19  C   UNL d   1      60.639  49.499  53.088  0.00  0.00     0.029 A 
ATOM     20  C   UNL d   1      60.258  49.215  52.408  0.00  0.00     0.028 A 
ENDBRANCH   1  16
BRANCH   1  21
ATOM     21  C   UNL d   1      59.996  49.410  50.608  0.00  0.00     0.122 C 
BRANCH  21  22
ATOM     22  N   UNL d   1      59.183  49.212  50.678  0.00  0.00    -0.201 NA
ATOM     23  C   UNL d   1      58.663  49.360  50.058  0.00  0.00     0.337 C 
ATOM     24  O   UNL d   1      58.934  49.701  49.368  0.00  0.00    -0.260 OA
BRANCH  23  25
ATOM     25  C   UNL d   1      57.873  49.161  50.143  0.00  0.00     0.337 C 
ATOM     26  N   UNL d   1      57.625  48.396  49.954  0.00  0.00    -0.200 NA
ATOM     27  O   UNL d   1      57.328  49.707  50.414  0.00  0.00    -0.260 OA
BRANCH  26  28
ATOM     28  C   UNL d   1      56.831  48.187  50.037  0.00  0.00     0.127 C 
BRANCH  28  29
ATOM     29  C   UNL d   1      56.618  47.391  50.081  0.00  0.00     0.119 A 
ATOM     30  O   UNL d   1      56.502  46.886  50.723  0.00  0.00    -0.304 OA
ATOM     31  C   UNL d   1      56.292  46.145  50.420  0.00  0.00     0.123 A 
ATOM     32  C   UNL d   1      56.278  46.193  49.605  0.00  0.00     0.029 A 
ATOM     33  C   UNL d   1      56.479  46.963  49.390  0.00  0.00     0.028 A 
ENDBRANCH  28  29
ENDBRANCH  26  28
ENDBRANCH  23  25
ENDBRANCH  21  22
ENDBRANCH   1  21
TORSDOF 9
ENDMDL
