MODEL 1
REMARK VINA RESULT:      45.7      0.000      0.000
REMARK  2 active torsions:
REMARK  status: ('A' for Active; 'I' for Inactive)
REMARK    1  A    between atoms: C_5  and  C_1 
REMARK    2  A    between atoms: C_7  and  C_3 
REMARK       I    between atoms: N_8  and  C_7 
ROOT
ATOM      1  C   UNL d   1      13.965  12.665  -2.014  0.00  0.00     0.086 A 
ATOM      2  S   UNL d   1      13.983  13.492  -1.961  0.00  0.00    -0.080 SA
ATOM      3  C   UNL d   1      14.632  13.699  -1.492  0.00  0.00     0.053 A 
ATOM      4  C   UNL d   1      14.600  12.365  -1.580  0.00  0.00     0.012 A 
ATOM      5  C   UNL d   1      15.012  13.007  -1.258  0.00  0.00     0.009 A 
ENDROOT
BRANCH   3   6
ATOM      6  C   UNL d   1      14.859  14.467  -1.294  0.00  0.00     0.117 A 
ATOM      7  N   UNL d   1      14.704  15.142  -1.741  0.00  0.00    -0.238 NA
ATOM      8  C   UNL d   1      15.032  15.787  -1.335  0.00  0.00     0.088 A 
ATOM      9  C   UNL d   1      15.051  16.591  -1.510  0.00  0.00     0.020 A 
ATOM     10  C   UNL d   1      15.383  15.505  -0.644  0.00  0.00     0.049 A 
ATOM     11  C   UNL d   1      15.422  17.109  -0.994  0.00  0.00     0.002 A 
ATOM     12  C   UNL d   1      15.774  16.827  -0.303  0.00  0.00     0.001 A 
ATOM     13  C   UNL d   1      15.755  16.027  -0.128  0.00  0.00     0.008 A 
ATOM     14  S   UNL d   1      15.275  14.684  -0.621  0.00  0.00    -0.066 SA
ENDBRANCH   3   6
BRANCH   1  15
ATOM     15  C   UNL d   1      13.407  12.221  -2.431  0.00  0.00     0.271 C 
ATOM     16  N   UNL d   1      13.418  12.224  -3.254  0.00  0.00    -0.267 N 
ATOM     17  C   UNL d   1      12.861  11.781  -3.666  0.00  0.00     0.110 A 
ATOM     18  C   UNL d   1      13.979  12.662  -3.654  0.00  0.00     0.110 A 
ATOM     19  C   UNL d   1      12.867  11.779  -4.486  0.00  0.00     0.142 A 
ATOM     20  O   UNL d   1      13.431  12.221  -4.893  0.00  0.00    -0.300 OA
ATOM     21  C   UNL d   1      13.989  12.664  -4.480  0.00  0.00     0.142 A 
ATOM     22  O   UNL d   1      12.842  11.779  -2.023  0.00  0.00    -0.266 OA
ENDBRANCH   1  15
TORSDOF 2
ENDMDL
MODEL 2
REMARK VINA RESULT:      47.5      2.528      3.652
REMARK  2 active torsions:
REMARK  status: ('A' for Active; 'I' for Inactive)
REMARK    1  A    between atoms: C_5  and  C_1 
REMARK    2  A    between atoms: C_7  and  C_3 
REMARK       I    between atoms: N_8  and  C_7 
ROOT
ATOM      1  C   UNL d   1      13.458  12.270  -2.427  0.00  0.00     0.086 A 
ATOM      2  S   UNL d   1      13.499  13.056  -2.688  0.00  0.00    -0.080 SA
ATOM      3  C   UNL d   1      13.473  13.046  -3.515  0.00  0.00     0.053 A 
ATOM      4  C   UNL d   1      13.406  11.781  -3.089  0.00  0.00     0.012 A 
ATOM      5  C   UNL d   1      13.416  12.263  -3.762  0.00  0.00     0.009 A 
ENDROOT
BRANCH   3   6
ATOM      6  C   UNL d   1      13.499  13.708  -4.006  0.00  0.00     0.117 A 
ATOM      7  N   UNL d   1      14.132  14.234  -4.068  0.00  0.00    -0.238 NA
ATOM      8  C   UNL d   1      13.919  14.812  -4.623  0.00  0.00     0.088 A 
ATOM      9  C   UNL d   1      14.321  15.470  -4.910  0.00  0.00     0.020 A 
ATOM     10  C   UNL d   1      13.160  14.639  -4.897  0.00  0.00     0.049 A 
ATOM     11  C   UNL d   1      13.964  15.952  -5.469  0.00  0.00     0.002 A 
ATOM     12  C   UNL d   1      13.205  15.779  -5.743  0.00  0.00     0.001 A 
ATOM     13  C   UNL d   1      12.804  15.124  -5.458  0.00  0.00     0.008 A 
ATOM     14  S   UNL d   1      12.901  13.953  -4.513  0.00  0.00    -0.066 SA
ENDBRANCH   3   6
BRANCH   1  15
ATOM     15  C   UNL d   1      13.467  12.024  -1.638  0.00  0.00     0.271 C 
ATOM     16  N   UNL d   1      14.176  12.026  -1.221  0.00  0.00    -0.267 N 
ATOM     17  C   UNL d   1      14.183  11.780  -0.436  0.00  0.00     0.110 A 
ATOM     18  C   UNL d   1      14.865  12.269  -1.585  0.00  0.00     0.110 A 
ATOM     19  C   UNL d   1      14.885  11.779  -0.014  0.00  0.00     0.142 A 
ATOM     20  O   UNL d   1      15.583  12.024  -0.379  0.00  0.00    -0.300 OA
ATOM     21  C   UNL d   1      15.576  12.270  -1.165  0.00  0.00     0.142 A 
ATOM     22  O   UNL d   1      12.769  11.779  -1.273  0.00  0.00    -0.266 OA
ENDBRANCH   1  15
TORSDOF 2
ENDMDL
