MODEL 1
REMARK VINA RESULT:      50.0      0.000      0.000
REMARK  13 active torsions:
REMARK  status: ('A' for Active; 'I' for Inactive)
REMARK    1  A    between atoms: C_21  and  N_1 
REMARK    2  A    between atoms: C_7  and  N_3 
REMARK    3  A    between atoms: C_8  and  C_7 
REMARK       I    between atoms: N_12  and  C_8 
REMARK    4  A    between atoms: C_11  and  C_22 
REMARK    5  A    between atoms: C_26  and  N_12 
REMARK    6  A    between atoms: C_27  and  N_12 
REMARK    7  A    between atoms: C_13  and  C_25 
REMARK       I    between atoms: N_15  and  C_13 
REMARK    8  A    between atoms: C_22  and  N_15 
REMARK    9  A    between atoms: C_28  and  C_21 
REMARK   10  A    between atoms: C_25  and  C_31 
REMARK   11  A    between atoms: C_29  and  C_26 
REMARK   12  A    between atoms: C_30  and  C_27 
REMARK   13  A    between atoms: C_31  and  C_28 
ROOT
ATOM      1  N   UNL d   1      13.640  14.640  -4.419  0.00  0.00    -0.226 N 
ATOM      2  C   UNL d   1      13.633  14.459  -3.614  0.00  0.00     0.342 A 
ATOM      3  N   UNL d   1      13.432  13.692  -3.365  0.00  0.00    -0.254 N 
ATOM      4  C   UNL d   1      13.445  14.055  -4.974  0.00  0.00     0.270 A 
ATOM      5  C   UNL d   1      13.247  13.296  -4.724  0.00  0.00     0.073 A 
ATOM      6  C   UNL d   1      13.240  13.115  -3.919  0.00  0.00     0.073 A 
ATOM      7  O   UNL d   1      13.827  15.040  -3.054  0.00  0.00    -0.245 OA
ATOM      8  O   UNL d   1      13.451  14.236  -5.779  0.00  0.00    -0.266 OA
ATOM      9  C   UNL d   1      13.054  12.718  -5.278  0.00  0.00     0.006 A 
ATOM     10  C   UNL d   1      13.042  12.356  -3.668  0.00  0.00     0.018 A 
ATOM     11  C   UNL d   1      12.856  11.960  -5.028  0.00  0.00     0.000 A 
ATOM     12  C   UNL d   1      12.850  11.779  -4.223  0.00  0.00     0.002 A 
ENDROOT
BRANCH   1  13
ATOM     13  C   UNL d   1      13.839  15.403  -4.668  0.00  0.00     0.087 C 
BRANCH  13  14
ATOM     14  C   UNL d   1      13.531  15.708  -5.370  0.00  0.00     0.019 C 
BRANCH  14  15
ATOM     15  C   UNL d   1      13.305  16.499  -5.421  0.00  0.00     0.006 C 
BRANCH  15  16
ATOM     16  C   UNL d   1      13.822  17.059  -5.756  0.00  0.00     0.063 C 
BRANCH  16  17
ATOM     17  C   UNL d   1      13.564  17.829  -5.893  0.00  0.00     0.279 C 
ATOM     18  N   UNL d   1      13.951  18.465  -5.538  0.00  0.00    -0.204 NA
ATOM     19  O   UNL d   1      12.915  17.965  -6.388  0.00  0.00    -0.265 OA
BRANCH  18  20
ATOM     20  C   UNL d   1      13.693  19.233  -5.676  0.00  0.00     0.127 C 
BRANCH  20  21
ATOM     21  C   UNL d   1      14.240  19.830  -5.854  0.00  0.00     0.119 A 
ATOM     22  O   UNL d   1      15.003  19.899  -5.531  0.00  0.00    -0.304 OA
ATOM     23  C   UNL d   1      15.356  20.576  -5.865  0.00  0.00     0.123 A 
ATOM     24  C   UNL d   1      14.813  20.918  -6.389  0.00  0.00     0.029 A 
ATOM     25  C   UNL d   1      14.123  20.458  -6.382  0.00  0.00     0.028 A 
ENDBRANCH  20  21
ENDBRANCH  18  20
ENDBRANCH  16  17
ENDBRANCH  15  16
ENDBRANCH  14  15
ENDBRANCH  13  14
ENDBRANCH   1  13
BRANCH   3  26
ATOM     26  C   UNL d   1      13.426  13.511  -2.560  0.00  0.00     0.146 C 
BRANCH  26  27
ATOM     27  C   UNL d   1      14.116  13.583  -2.116  0.00  0.00     0.283 C 
ATOM     28  N   UNL d   1      14.331  12.984  -1.584  0.00  0.00    -0.271 N 
ATOM     29  O   UNL d   1      14.591  14.249  -2.201  0.00  0.00    -0.265 OA
BRANCH  28  30
ATOM     30  C   UNL d   1      15.021  13.054  -1.140  0.00  0.00     0.083 C 
BRANCH  30  31
ATOM     31  C   UNL d   1      15.014  13.470  -0.428  0.00  0.00     0.019 C 
ATOM     32  C   UNL d   1      15.610  14.013  -0.262  0.00  0.00     0.002 C 
ENDBRANCH  30  31
ENDBRANCH  28  30
BRANCH  28  33
ATOM     33  C   UNL d   1      13.856  12.317  -1.499  0.00  0.00     0.083 C 
BRANCH  33  34
ATOM     34  C   UNL d   1      14.009  11.779  -0.895  0.00  0.00     0.019 C 
ATOM     35  C   UNL d   1      13.636  11.865  -0.161  0.00  0.00     0.002 C 
ENDBRANCH  33  34
ENDBRANCH  28  33
ENDBRANCH  26  27
ENDBRANCH   3  26
TORSDOF 13
ENDMDL
