MODEL 1
REMARK VINA RESULT:      45.3      0.000      0.000
REMARK  4 active torsions:
REMARK  status: ('A' for Active; 'I' for Inactive)
REMARK    1  A    between atoms: C_2  and  C_1 
REMARK    2  A    between atoms: C_4  and  C_2 
REMARK    3  A    between atoms: N_6  and  C_2 
REMARK    4  A    between atoms: C_8  and  N_6 
ROOT
ATOM      1  C   UNL d   1      14.042  13.146  -2.200  0.00  0.00     0.088 C 
ENDROOT
BRANCH   1   2
ATOM      2  C   UNL d   1      14.266  13.941  -2.310  0.00  0.00     0.058 A 
ATOM      3  C   UNL d   1      14.385  14.435  -1.646  0.00  0.00     0.214 A 
ATOM      4  C   UNL d   1      14.608  15.223  -1.759  0.00  0.00     0.120 A 
ATOM      5  O   UNL d   1      14.280  14.133  -0.877  0.00  0.00    -0.285 OA
ATOM      6  N   UNL d   1      14.722  15.699  -1.102  0.00  0.00    -0.241 NA
ATOM      7  C   UNL d   1      14.713  15.522  -2.521  0.00  0.00     0.021 A 
ATOM      8  C   UNL d   1      14.948  16.498  -1.211  0.00  0.00     0.099 A 
ATOM      9  C   UNL d   1      15.053  16.797  -1.973  0.00  0.00     0.021 A 
ATOM     10  C   UNL d   1      14.933  16.302  -2.637  0.00  0.00     0.003 A 
ATOM     11  C   UNL d   1      14.596  15.038  -3.180  0.00  0.00     0.002 A 
ATOM     12  C   UNL d   1      14.371  14.241  -3.072  0.00  0.00     0.005 A 
ENDBRANCH   1   2
BRANCH   1  13
ATOM     13  C   UNL d   1      14.395  12.695  -1.590  0.00  0.00     0.045 A 
ATOM     14  C   UNL d   1      13.917  12.228  -1.106  0.00  0.00     0.141 A 
ATOM     15  F   UNL d   1      13.127  12.067  -1.047  0.00  0.00    -0.204 F 
ATOM     16  C   UNL d   1      14.264  11.780  -0.501  0.00  0.00     0.030 A 
ATOM     17  C   UNL d   1      15.083  11.810  -0.395  0.00  0.00     0.002 A 
ATOM     18  C   UNL d   1      15.560  12.277  -0.879  0.00  0.00     0.000 A 
ATOM     19  C   UNL d   1      15.207  12.727  -1.489  0.00  0.00     0.004 A 
ENDBRANCH   1  13
BRANCH   1  20
ATOM     20  N   UNL d   1      13.467  12.801  -2.695  0.00  0.00    -0.227 NA
BRANCH  20  21
ATOM     21  C   UNL d   1      13.297  12.611  -3.346  0.00  0.00     0.162 A 
ATOM     22  N   UNL d   1      13.492  11.975  -3.583  0.00  0.00    -0.225 NA
ATOM     23  C   UNL d   1      13.322  11.780  -4.239  0.00  0.00     0.101 A 
ATOM     24  C   UNL d   1      12.963  12.212  -4.652  0.00  0.00     0.021 A 
ATOM     25  C   UNL d   1      12.770  12.845  -4.413  0.00  0.00     0.005 A 
ATOM     26  C   UNL d   1      12.940  13.041  -3.756  0.00  0.00     0.039 A 
ENDBRANCH  20  21
ENDBRANCH   1  20
TORSDOF 4
ENDMDL
