MODEL 1
REMARK VINA RESULT:      -9.4      0.000      0.000
REMARK  5 active torsions:
REMARK  status: ('A' for Active; 'I' for Inactive)
REMARK    1  A    between atoms: C_3  and  C_1 
REMARK    2  A    between atoms: C_9  and  N_2 
REMARK    3  A    between atoms: C_7  and  C_3 
REMARK    4  A    between atoms: C_8  and  C_3 
REMARK    5  A    between atoms: C_20  and  C_6 
ROOT
ATOM      1  C   UNL d   1      52.562  32.631  53.190  0.00  0.00     0.103 A 
ATOM      2  N   UNL d   1      53.242  32.677  53.654  0.00  0.00    -0.269 N 
ATOM      3  S   UNL d   1      52.468  31.846  52.936  0.00  0.00    -0.064 SA
ATOM      4  C   UNL d   1      53.573  31.922  53.692  0.00  0.00     0.271 A 
ATOM      5  C   UNL d   1      53.101  31.407  53.252  0.00  0.00     0.087 A 
ATOM      6  O   UNL d   1      54.264  31.710  54.101  0.00  0.00    -0.266 OA
ENDROOT
BRANCH   2   7
ATOM      7  C   UNL d   1      53.846  32.979  54.130  0.00  0.00     0.068 A 
ATOM      8  C   UNL d   1      53.749  32.989  54.947  0.00  0.00     0.020 A 
ATOM      9  C   UNL d   1      54.351  33.291  55.423  0.00  0.00     0.031 A 
ATOM     10  C   UNL d   1      55.039  33.577  55.073  0.00  0.00     0.140 A 
ATOM     11  C   UNL d   1      55.128  33.563  54.257  0.00  0.00     0.031 A 
ATOM     12  F   UNL d   1      55.646  33.881  55.553  0.00  0.00    -0.204 F 
ATOM     13  C   UNL d   1      54.529  33.263  53.780  0.00  0.00     0.020 A 
ENDBRANCH   2   7
BRANCH   1  14
ATOM     14  C   UNL d   1      52.051  33.256  53.001  0.00  0.00     0.103 C 
BRANCH  14  15
ATOM     15  C   UNL d   1      51.329  33.320  53.396  0.00  0.00     0.300 C 
ATOM     16  O   UNL d   1      50.753  32.726  53.320  0.00  0.00    -0.264 OA
ATOM     17  N   UNL d   1      51.175  33.982  53.873  0.00  0.00    -0.102 N 
ENDBRANCH  14  15
BRANCH  14  18
ATOM     18  C   UNL d   1      52.260  33.805  52.429  0.00  0.00     0.129 C 
ATOM     19  N   UNL d   1      51.679  34.136  51.941  0.00  0.00    -0.146 N 
ENDBRANCH  14  18
ENDBRANCH   1  14
BRANCH   5  20
ATOM     20  C   UNL d   1      53.231  30.600  53.143  0.00  0.00     0.011 C 
ATOM     21  C   UNL d   1      52.608  30.114  52.889  0.00  0.00     0.001 C 
ENDBRANCH   5  20
TORSDOF 5
ENDMDL
MODEL 2
REMARK VINA RESULT:      -9.1      1.680      3.098
REMARK  5 active torsions:
REMARK  status: ('A' for Active; 'I' for Inactive)
REMARK    1  A    between atoms: C_3  and  C_1 
REMARK    2  A    between atoms: C_9  and  N_2 
REMARK    3  A    between atoms: C_7  and  C_3 
REMARK    4  A    between atoms: C_8  and  C_3 
REMARK    5  A    between atoms: C_20  and  C_6 
ROOT
ATOM      1  C   UNL d   1      53.556  32.501  53.777  0.00  0.00     0.103 A 
ATOM      2  N   UNL d   1      52.861  32.739  53.401  0.00  0.00    -0.269 N 
ATOM      3  S   UNL d   1      53.655  31.686  53.659  0.00  0.00    -0.064 SA
ATOM      4  C   UNL d   1      52.526  32.074  53.047  0.00  0.00     0.271 A 
ATOM      5  C   UNL d   1      53.010  31.422  53.203  0.00  0.00     0.087 A 
ATOM      6  O   UNL d   1      51.822  32.055  52.608  0.00  0.00    -0.266 OA
ENDROOT
BRANCH   2   7
ATOM      7  C   UNL d   1      52.244  33.213  53.124  0.00  0.00     0.068 A 
ATOM      8  C   UNL d   1      52.352  33.658  52.440  0.00  0.00     0.020 A 
ATOM      9  C   UNL d   1      51.736  34.131  52.163  0.00  0.00     0.031 A 
ATOM     10  C   UNL d   1      51.024  34.151  52.575  0.00  0.00     0.140 A 
ATOM     11  C   UNL d   1      50.924  33.704  53.257  0.00  0.00     0.031 A 
ATOM     12  F   UNL d   1      50.403  34.628  52.296  0.00  0.00    -0.204 F 
ATOM     13  C   UNL d   1      51.537  33.231  53.535  0.00  0.00     0.020 A 
ENDBRANCH   2   7
BRANCH   1  14
ATOM     14  C   UNL d   1      54.075  32.987  54.205  0.00  0.00     0.103 C 
BRANCH  14  15
ATOM     15  C   UNL d   1      53.980  33.056  55.023  0.00  0.00     0.300 C 
ATOM     16  O   UNL d   1      54.057  32.390  55.514  0.00  0.00    -0.264 OA
ATOM     17  N   UNL d   1      53.807  33.796  55.358  0.00  0.00    -0.102 N 
ENDBRANCH  14  15
BRANCH  14  18
ATOM     18  C   UNL d   1      54.675  33.393  53.823  0.00  0.00     0.129 C 
ATOM     19  N   UNL d   1      55.426  33.445  54.168  0.00  0.00    -0.146 N 
ENDBRANCH  14  18
ENDBRANCH   1  14
BRANCH   5  20
ATOM     20  C   UNL d   1      52.881  30.648  52.952  0.00  0.00     0.011 C 
ATOM     21  C   UNL d   1      53.293  30.025  53.311  0.00  0.00     0.001 C 
ENDBRANCH   5  20
TORSDOF 5
ENDMDL
MODEL 3
REMARK VINA RESULT:      -8.5      1.273      2.493
REMARK  5 active torsions:
REMARK  status: ('A' for Active; 'I' for Inactive)
REMARK    1  A    between atoms: C_3  and  C_1 
REMARK    2  A    between atoms: C_9  and  N_2 
REMARK    3  A    between atoms: C_7  and  C_3 
REMARK    4  A    between atoms: C_8  and  C_3 
REMARK    5  A    between atoms: C_20  and  C_6 
ROOT
ATOM      1  C   UNL d   1      52.980  31.725  53.495  0.00  0.00     0.103 A 
ATOM      2  N   UNL d   1      53.411  32.345  53.828  0.00  0.00    -0.269 N 
ATOM      3  S   UNL d   1      52.304  32.039  53.130  0.00  0.00    -0.064 SA
ATOM      4  C   UNL d   1      53.005  33.046  53.672  0.00  0.00     0.271 A 
ATOM      5  C   UNL d   1      52.323  32.863  53.242  0.00  0.00     0.087 A 
ATOM      6  O   UNL d   1      53.238  33.809  53.903  0.00  0.00    -0.266 OA
ENDROOT
BRANCH   2   7
ATOM      7  C   UNL d   1      54.000  32.761  54.230  0.00  0.00     0.068 A 
ATOM      8  C   UNL d   1      53.932  32.872  55.043  0.00  0.00     0.020 A 
ATOM      9  C   UNL d   1      54.520  33.287  55.445  0.00  0.00     0.031 A 
ATOM     10  C   UNL d   1      55.165  33.583  55.028  0.00  0.00     0.140 A 
ATOM     11  C   UNL d   1      55.226  33.468  54.217  0.00  0.00     0.031 A 
ATOM     12  F   UNL d   1      55.758  34.002  55.434  0.00  0.00    -0.204 F 
ATOM     13  C   UNL d   1      54.640  33.054  53.813  0.00  0.00     0.020 A 
ENDBRANCH   2   7
BRANCH   1  14
ATOM     14  C   UNL d   1      53.180  30.920  53.515  0.00  0.00     0.103 C 
BRANCH  14  15
ATOM     15  C   UNL d   1      53.436  30.550  52.822  0.00  0.00     0.300 C 
ATOM     16  O   UNL d   1      52.916  30.451  52.181  0.00  0.00    -0.264 OA
ATOM     17  N   UNL d   1      54.217  30.275  52.764  0.00  0.00    -0.102 N 
ENDBRANCH  14  15
BRANCH  14  18
ATOM     18  C   UNL d   1      53.124  30.496  54.214  0.00  0.00     0.129 C 
ATOM     19  N   UNL d   1      53.050  29.671  54.193  0.00  0.00    -0.146 N 
ENDBRANCH  14  18
ENDBRANCH   1  14
BRANCH   5  20
ATOM     20  C   UNL d   1      51.760  33.401  52.972  0.00  0.00     0.011 C 
ATOM     21  C   UNL d   1      50.953  33.219  53.039  0.00  0.00     0.001 C 
ENDBRANCH   5  20
TORSDOF 5
ENDMDL
MODEL 4
REMARK VINA RESULT:      -8.2      1.829      3.296
REMARK  5 active torsions:
REMARK  status: ('A' for Active; 'I' for Inactive)
REMARK    1  A    between atoms: C_3  and  C_1 
REMARK    2  A    between atoms: C_9  and  N_2 
REMARK    3  A    between atoms: C_7  and  C_3 
REMARK    4  A    between atoms: C_8  and  C_3 
REMARK    5  A    between atoms: C_20  and  C_6 
ROOT
ATOM      1  C   UNL d   1      53.499  32.999  53.783  0.00  0.00     0.103 A 
ATOM      2  N   UNL d   1      53.204  32.255  53.584  0.00  0.00    -0.269 N 
ATOM      3  S   UNL d   1      52.942  33.572  53.561  0.00  0.00    -0.064 SA
ATOM      4  C   UNL d   1      52.463  32.362  53.238  0.00  0.00     0.271 A 
ATOM      5  C   UNL d   1      52.296  33.172  53.221  0.00  0.00     0.087 A 
ATOM      6  O   UNL d   1      51.964  31.763  52.953  0.00  0.00    -0.266 OA
ENDROOT
BRANCH   2   7
ATOM      7  C   UNL d   1      53.143  31.437  53.491  0.00  0.00     0.068 A 
ATOM      8  C   UNL d   1      52.925  30.973  54.135  0.00  0.00     0.020 A 
ATOM      9  C   UNL d   1      52.864  30.156  54.043  0.00  0.00     0.031 A 
ATOM     10  C   UNL d   1      53.022  29.818  53.310  0.00  0.00     0.140 A 
ATOM     11  C   UNL d   1      53.240  30.287  52.672  0.00  0.00     0.031 A 
ATOM     12  F   UNL d   1      52.961  28.994  53.217  0.00  0.00    -0.204 F 
ATOM     13  C   UNL d   1      53.302  31.103  52.761  0.00  0.00     0.020 A 
ENDBRANCH   2   7
BRANCH   1  14
ATOM     14  C   UNL d   1      54.228  33.160  54.145  0.00  0.00     0.103 C 
BRANCH  14  15
ATOM     15  C   UNL d   1      54.239  33.466  54.912  0.00  0.00     0.300 C 
ATOM     16  O   UNL d   1      54.072  34.269  55.047  0.00  0.00    -0.264 OA
ATOM     17  N   UNL d   1      54.418  32.970  55.553  0.00  0.00    -0.102 N 
ENDBRANCH  14  15
BRANCH  14  18
ATOM     18  C   UNL d   1      54.930  33.016  53.747  0.00  0.00     0.129 C 
ATOM     19  N   UNL d   1      55.587  33.503  53.876  0.00  0.00    -0.146 N 
ENDBRANCH  14  18
ENDBRANCH   1  14
BRANCH   5  20
ATOM     20  C   UNL d   1      51.613  33.522  52.921  0.00  0.00     0.011 C 
ATOM     21  C   UNL d   1      51.616  34.328  52.725  0.00  0.00     0.001 C 
ENDBRANCH   5  20
TORSDOF 5
ENDMDL
MODEL 5
REMARK VINA RESULT:      -8.1      1.599      2.821
REMARK  5 active torsions:
REMARK  status: ('A' for Active; 'I' for Inactive)
REMARK    1  A    between atoms: C_3  and  C_1 
REMARK    2  A    between atoms: C_9  and  N_2 
REMARK    3  A    between atoms: C_7  and  C_3 
REMARK    4  A    between atoms: C_8  and  C_3 
REMARK    5  A    between atoms: C_20  and  C_6 
ROOT
ATOM      1  C   UNL d   1      52.740  33.097  53.551  0.00  0.00     0.103 A 
ATOM      2  N   UNL d   1      52.953  32.301  53.520  0.00  0.00    -0.269 N 
ATOM      3  S   UNL d   1      53.348  33.520  53.924  0.00  0.00    -0.064 SA
ATOM      4  C   UNL d   1      53.695  32.225  53.874  0.00  0.00     0.271 A 
ATOM      5  C   UNL d   1      53.943  32.973  54.124  0.00  0.00     0.087 A 
ATOM      6  O   UNL d   1      54.124  31.521  53.965  0.00  0.00    -0.266 OA
ENDROOT
BRANCH   2   7
ATOM      7  C   UNL d   1      52.929  31.490  53.369  0.00  0.00     0.068 A 
ATOM      8  C   UNL d   1      52.664  30.978  53.957  0.00  0.00     0.020 A 
ATOM      9  C   UNL d   1      52.639  30.167  53.807  0.00  0.00     0.031 A 
ATOM     10  C   UNL d   1      52.879  29.884  53.072  0.00  0.00     0.140 A 
ATOM     11  C   UNL d   1      53.142  30.401  52.491  0.00  0.00     0.031 A 
ATOM     12  F   UNL d   1      52.854  29.066  52.921  0.00  0.00    -0.204 F 
ATOM     13  C   UNL d   1      53.168  31.210  52.638  0.00  0.00     0.020 A 
ENDBRANCH   2   7
BRANCH   1  14
ATOM     14  C   UNL d   1      52.037  33.430  53.261  0.00  0.00     0.103 C 
BRANCH  14  15
ATOM     15  C   UNL d   1      52.076  33.978  52.643  0.00  0.00     0.300 C 
ATOM     16  O   UNL d   1      51.980  33.733  51.856  0.00  0.00    -0.264 OA
ATOM     17  N   UNL d   1      52.212  34.780  52.810  0.00  0.00    -0.102 N 
ENDBRANCH  14  15
BRANCH  14  18
ATOM     18  C   UNL d   1      51.314  33.219  53.581  0.00  0.00     0.129 C 
ATOM     19  N   UNL d   1      50.640  33.671  53.418  0.00  0.00    -0.146 N 
ENDBRANCH  14  18
ENDBRANCH   1  14
BRANCH   5  20
ATOM     20  C   UNL d   1      54.653  33.148  54.504  0.00  0.00     0.011 C 
ATOM     21  C   UNL d   1      54.687  33.780  55.041  0.00  0.00     0.001 C 
ENDBRANCH   5  20
TORSDOF 5
ENDMDL
MODEL 6
REMARK VINA RESULT:      -7.9      1.930      3.445
REMARK  5 active torsions:
REMARK  status: ('A' for Active; 'I' for Inactive)
REMARK    1  A    between atoms: C_3  and  C_1 
REMARK    2  A    between atoms: C_9  and  N_2 
REMARK    3  A    between atoms: C_7  and  C_3 
REMARK    4  A    between atoms: C_8  and  C_3 
REMARK    5  A    between atoms: C_20  and  C_6 
ROOT
ATOM      1  C   UNL d   1      52.955  32.038  53.578  0.00  0.00     0.103 A 
ATOM      2  N   UNL d   1      52.525  32.720  53.399  0.00  0.00    -0.269 N 
ATOM      3  S   UNL d   1      53.606  32.251  54.046  0.00  0.00    -0.064 SA
ATOM      4  C   UNL d   1      52.907  33.359  53.755  0.00  0.00     0.271 A 
ATOM      5  C   UNL d   1      53.573  33.076  54.155  0.00  0.00     0.087 A 
ATOM      6  O   UNL d   1      52.668  34.153  53.722  0.00  0.00    -0.266 OA
ENDROOT
BRANCH   2   7
ATOM      7  C   UNL d   1      51.946  33.221  53.092  0.00  0.00     0.068 A 
ATOM      8  C   UNL d   1      51.238  33.319  53.501  0.00  0.00     0.020 A 
ATOM      9  C   UNL d   1      50.659  33.820  53.195  0.00  0.00     0.031 A 
ATOM     10  C   UNL d   1      50.798  34.213  52.486  0.00  0.00     0.140 A 
ATOM     11  C   UNL d   1      51.506  34.111  52.083  0.00  0.00     0.031 A 
ATOM     12  F   UNL d   1      50.214  34.718  52.177  0.00  0.00    -0.204 F 
ATOM     13  C   UNL d   1      52.086  33.612  52.387  0.00  0.00     0.020 A 
ENDBRANCH   2   7
BRANCH   1  14
ATOM     14  C   UNL d   1      52.775  31.265  53.335  0.00  0.00     0.103 C 
BRANCH  14  15
ATOM     15  C   UNL d   1      53.300  30.867  52.837  0.00  0.00     0.300 C 
ATOM     16  O   UNL d   1      53.168  30.845  52.017  0.00  0.00    -0.264 OA
ATOM     17  N   UNL d   1      53.965  30.486  53.156  0.00  0.00    -0.102 N 
ENDBRANCH  14  15
BRANCH  14  18
ATOM     18  C   UNL d   1      52.086  30.901  53.586  0.00  0.00     0.129 C 
ATOM     19  N   UNL d   1      52.023  30.075  53.568  0.00  0.00    -0.146 N 
ENDBRANCH  14  18
ENDBRANCH   1  14
BRANCH   5  20
ATOM     20  C   UNL d   1      54.111  33.528  54.585  0.00  0.00     0.011 C 
ATOM     21  C   UNL d   1      54.582  33.166  55.165  0.00  0.00     0.001 C 
ENDBRANCH   5  20
TORSDOF 5
ENDMDL
MODEL 7
REMARK VINA RESULT:      -7.2      2.253      3.983
REMARK  5 active torsions:
REMARK  status: ('A' for Active; 'I' for Inactive)
REMARK    1  A    between atoms: C_3  and  C_1 
REMARK    2  A    between atoms: C_9  and  N_2 
REMARK    3  A    between atoms: C_7  and  C_3 
REMARK    4  A    between atoms: C_8  and  C_3 
REMARK    5  A    between atoms: C_20  and  C_6 
ROOT
ATOM      1  C   UNL d   1      53.311  33.807  54.023  0.00  0.00     0.103 A 
ATOM      2  N   UNL d   1      52.603  34.011  53.652  0.00  0.00    -0.269 N 
ATOM      3  S   UNL d   1      53.547  34.437  54.508  0.00  0.00    -0.064 SA
ATOM      4  C   UNL d   1      52.396  34.769  53.905  0.00  0.00     0.271 A 
ATOM      5  C   UNL d   1      52.973  35.036  54.432  0.00  0.00     0.087 A 
ATOM      6  O   UNL d   1      51.723  35.196  53.672  0.00  0.00    -0.266 OA
ENDROOT
BRANCH   2   7
ATOM      7  C   UNL d   1      51.929  33.971  53.177  0.00  0.00     0.068 A 
ATOM      8  C   UNL d   1      51.967  34.237  52.399  0.00  0.00     0.020 A 
ATOM      9  C   UNL d   1      51.294  34.197  51.924  0.00  0.00     0.031 A 
ATOM     10  C   UNL d   1      50.596  33.894  52.236  0.00  0.00     0.140 A 
ATOM     11  C   UNL d   1      50.565  33.631  53.013  0.00  0.00     0.031 A 
ATOM     12  F   UNL d   1      49.917  33.854  51.757  0.00  0.00    -0.204 F 
ATOM     13  C   UNL d   1      51.236  33.669  53.489  0.00  0.00     0.020 A 
ENDBRANCH   2   7
BRANCH   1  14
ATOM     14  C   UNL d   1      53.726  33.094  53.933  0.00  0.00     0.103 C 
BRANCH  14  15
ATOM     15  C   UNL d   1      53.727  32.548  54.553  0.00  0.00     0.300 C 
ATOM     16  O   UNL d   1      54.061  32.745  55.288  0.00  0.00    -0.264 OA
ATOM     17  N   UNL d   1      53.393  31.796  54.442  0.00  0.00    -0.102 N 
ENDBRANCH  14  15
BRANCH  14  18
ATOM     18  C   UNL d   1      54.130  32.933  53.239  0.00  0.00     0.129 C 
ATOM     19  N   UNL d   1      54.908  32.650  53.268  0.00  0.00    -0.146 N 
ENDBRANCH  14  18
ENDBRANCH   1  14
BRANCH   5  20
ATOM     20  C   UNL d   1      52.982  35.765  54.816  0.00  0.00     0.011 C 
ATOM     21  C   UNL d   1      53.658  36.245  54.773  0.00  0.00     0.001 C 
ENDBRANCH   5  20
TORSDOF 5
ENDMDL
