MODEL 1
REMARK VINA RESULT:      28.3      0.000      0.000
REMARK  5 active torsions:
REMARK  status: ('A' for Active; 'I' for Inactive)
REMARK    1  A    between atoms: C_3  and  C_1 
REMARK    2  A    between atoms: N_2  and  C_10 
REMARK    3  A    between atoms: N_6  and  C_3 
REMARK    4  A    between atoms: C_11  and  C_5 
REMARK    5  A    between atoms: C_20  and  N_7 
ROOT
ATOM      1  C   UNL d   1      45.877 -16.522  44.254  0.00  0.00     0.126 A 
ATOM      2  O   UNL d   1      46.233 -15.778  44.257  0.00  0.00    -0.305 OA
ATOM      3  C   UNL d   1      45.634 -15.203  44.259  0.00  0.00     0.100 A 
ATOM      4  C   UNL d   1      45.059 -16.408  44.255  0.00  0.00     0.029 A 
ATOM      5  C   UNL d   1      44.904 -15.602  44.258  0.00  0.00     0.027 A 
ENDROOT
BRANCH   1   6
ATOM      6  C   UNL d   1      46.279 -17.286  44.251  0.00  0.00     0.143 C 
ATOM      7  S   UNL d   1      46.589 -17.586  44.954  0.00  0.00    -0.057 SA
BRANCH   6   8
ATOM      8  N   UNL d   1      46.344 -17.706  43.521  0.00  0.00    -0.291 N 
ATOM      9  C   UNL d   1      46.594 -17.339  42.831  0.00  0.00     0.100 A 
ATOM     10  C   UNL d   1      46.647 -17.771  42.141  0.00  0.00     0.100 A 
ATOM     11  N   UNL d   1      46.461 -18.557  42.107  0.00  0.00    -0.301 N 
ATOM     12  C   UNL d   1      46.203 -18.954  42.804  0.00  0.00     0.100 A 
ATOM     13  C   UNL d   1      46.145 -18.523  43.515  0.00  0.00     0.100 A 
BRANCH  11  14
ATOM     14  C   UNL d   1      46.523 -18.976  41.394  0.00  0.00     0.064 A 
ATOM     15  C   UNL d   1      46.562 -19.790  41.414  0.00  0.00     0.018 A 
ATOM     16  C   UNL d   1      46.623 -20.231  40.720  0.00  0.00     0.002 A 
ATOM     17  C   UNL d   1      46.646 -19.842  39.998  0.00  0.00     0.000 A 
ATOM     18  C   UNL d   1      46.607 -19.012  39.970  0.00  0.00     0.002 A 
ATOM     19  C   UNL d   1      46.545 -18.586  40.671  0.00  0.00     0.018 A 
ENDBRANCH  11  14
ENDBRANCH   6   8
ENDBRANCH   1   6
BRANCH   3  20
ATOM     20  C   UNL d   1      45.660 -14.373  44.263  0.00  0.00     0.024 A 
ATOM     21  C   UNL d   1      45.260 -13.941  43.677  0.00  0.00     0.025 A 
ATOM     22  C   UNL d   1      45.286 -13.117  43.680  0.00  0.00     0.127 A 
ATOM     23  C   UNL d   1      45.712 -12.706  44.269  0.00  0.00     0.024 A 
ATOM     24  C   UNL d   1      46.106 -13.147  44.848  0.00  0.00     0.002 A 
ATOM     25  C   UNL d   1      46.081 -13.971  44.844  0.00  0.00     0.002 A 
BRANCH  22  26
ATOM     26  N   UNL d   1      44.890 -12.704  43.102  0.00  0.00    -0.114 N 
ATOM     27  O   UNL d   1      44.095 -12.426  43.151  0.00  0.00    -0.532 OA
ATOM     28  O   UNL d   1      45.232 -12.502  42.377  0.00  0.00    -0.532 OA
ENDBRANCH  22  26
ENDBRANCH   3  20
TORSDOF 5
ENDMDL
