MODEL 1
REMARK VINA RESULT:      13.9      0.000      0.000
REMARK  3 active torsions:
REMARK  status: ('A' for Active; 'I' for Inactive)
REMARK    1  A    between atoms: C_15  and  C_3 
REMARK    2  A    between atoms: C_10  and  N_4 
REMARK    3  A    between atoms: N_6  and  C_5 
ROOT
ATOM      1  C   UNL d   1     -42.092-122.460 -52.227  0.00  0.00     0.070 A 
ATOM      2  C   UNL d   1     -42.081-122.491 -53.041  0.00  0.00     0.152 A 
ATOM      3  C   UNL d   1     -41.705-121.380 -52.287  0.00  0.00     0.023 A 
ATOM      4  N   UNL d   1     -41.874-121.952 -53.541  0.00  0.00    -0.290 N 
ATOM      5  C   UNL d   1     -42.335-123.107 -51.797  0.00  0.00     0.153 A 
ATOM      6  C   UNL d   1     -41.707-121.443 -53.027  0.00  0.00     0.082 A 
ATOM      7  N   UNL d   1     -42.311-123.170 -53.427  0.00  0.00    -0.206 NA
ATOM      8  N   UNL d   1     -42.566-123.786 -52.183  0.00  0.00    -0.206 NA
ATOM      9  C   UNL d   1     -42.554-123.818 -52.997  0.00  0.00     0.202 A 
ENDROOT
BRANCH   5  10
ATOM     10  N   UNL d   1     -42.345-123.071 -50.958  0.00  0.00    -0.285 N 
ATOM     11  C   UNL d   1     -42.972-122.685 -50.571  0.00  0.00     0.106 A 
ATOM     12  C   UNL d   1     -42.990-122.646 -49.748  0.00  0.00     0.118 A 
ATOM     13  C   UNL d   1     -43.620-122.258 -49.348  0.00  0.00     0.028 C 
ATOM     14  O   UNL d   1     -42.367-123.000 -49.295  0.00  0.00    -0.304 OA
ATOM     15  C   UNL d   1     -41.740-123.386 -49.682  0.00  0.00     0.118 A 
ATOM     16  C   UNL d   1     -41.729-123.422 -50.518  0.00  0.00     0.106 A 
ATOM     17  C   UNL d   1     -41.123-123.736 -49.242  0.00  0.00     0.028 C 
ENDBRANCH   5  10
BRANCH   3  18
ATOM     18  C   UNL d   1     -41.514-120.800 -51.759  0.00  0.00     0.002 A 
ATOM     19  C   UNL d   1     -41.315-120.988 -50.993  0.00  0.00     0.000 A 
ATOM     20  C   UNL d   1     -41.123-120.404 -50.465  0.00  0.00     0.000 A 
ATOM     21  C   UNL d   1     -41.126-119.615 -50.692  0.00  0.00     0.000 A 
ATOM     22  C   UNL d   1     -41.327-119.427 -51.470  0.00  0.00     0.000 A 
ATOM     23  C   UNL d   1     -41.520-120.016 -51.997  0.00  0.00     0.000 A 
ENDBRANCH   3  18
BRANCH   4  24
ATOM     24  C   UNL d   1     -41.850-121.948 -54.370  0.00  0.00     0.066 A 
ATOM     25  C   UNL d   1     -42.479-121.640 -54.822  0.00  0.00     0.020 A 
ATOM     26  C   UNL d   1     -42.455-121.637 -55.650  0.00  0.00     0.031 A 
ATOM     27  C   UNL d   1     -41.790-121.947 -56.052  0.00  0.00     0.140 A 
ATOM     28  C   UNL d   1     -41.150-122.261 -55.617  0.00  0.00     0.031 A 
ATOM     29  F   UNL d   1     -41.766-121.944 -56.880  0.00  0.00    -0.204 F 
ATOM     30  C   UNL d   1     -41.181-122.261 -54.776  0.00  0.00     0.020 A 
ENDBRANCH   4  24
TORSDOF 3
ENDMDL
MODEL 2
REMARK VINA RESULT:      16.2      2.196      4.307
REMARK  3 active torsions:
REMARK  status: ('A' for Active; 'I' for Inactive)
REMARK    1  A    between atoms: C_15  and  C_3 
REMARK    2  A    between atoms: C_10  and  N_4 
REMARK    3  A    between atoms: N_6  and  C_5 
ROOT
ATOM      1  C   UNL d   1     -42.110-122.282 -51.861  0.00  0.00     0.070 A 
ATOM      2  C   UNL d   1     -42.100-122.586 -51.105  0.00  0.00     0.152 A 
ATOM      3  C   UNL d   1     -41.717-121.288 -51.440  0.00  0.00     0.023 A 
ATOM      4  N   UNL d   1     -41.892-122.248 -50.452  0.00  0.00    -0.290 N 
ATOM      5  C   UNL d   1     -42.355-122.745 -52.484  0.00  0.00     0.153 A 
ATOM      6  C   UNL d   1     -41.721-121.597 -50.765  0.00  0.00     0.082 A 
ATOM      7  N   UNL d   1     -42.336-123.353 -50.971  0.00  0.00    -0.206 NA
ATOM      8  N   UNL d   1     -42.591-123.513 -52.350  0.00  0.00    -0.206 NA
ATOM      9  C   UNL d   1     -42.582-123.817 -51.594  0.00  0.00     0.202 A 
ENDROOT
BRANCH   5  10
ATOM     10  N   UNL d   1     -42.364-122.429 -53.262  0.00  0.00    -0.285 N 
ATOM     11  C   UNL d   1     -42.997-121.945 -53.502  0.00  0.00     0.106 A 
ATOM     12  C   UNL d   1     -43.012-121.631 -54.264  0.00  0.00     0.118 A 
ATOM     13  C   UNL d   1     -43.648-121.141 -54.515  0.00  0.00     0.028 C 
ATOM     14  O   UNL d   1     -42.380-121.801 -54.804  0.00  0.00    -0.304 OA
ATOM     15  C   UNL d   1     -41.747-122.284 -54.563  0.00  0.00     0.118 A 
ATOM     16  C   UNL d   1     -41.739-122.600 -53.788  0.00  0.00     0.106 A 
ATOM     17  C   UNL d   1     -41.123-122.455 -55.089  0.00  0.00     0.028 C 
ENDBRANCH   5  10
BRANCH   3  18
ATOM     18  C   UNL d   1     -41.521-120.566 -51.742  0.00  0.00     0.002 A 
ATOM     19  C   UNL d   1     -41.375-120.475 -52.537  0.00  0.00     0.000 A 
ATOM     20  C   UNL d   1     -41.179-119.749 -52.837  0.00  0.00     0.000 A 
ATOM     21  C   UNL d   1     -41.123-119.092 -52.346  0.00  0.00     0.000 A 
ATOM     22  C   UNL d   1     -41.271-119.187 -51.540  0.00  0.00     0.000 A 
ATOM     23  C   UNL d   1     -41.468-119.918 -51.242  0.00  0.00     0.000 A 
ENDBRANCH   3  18
BRANCH   4  24
ATOM     24  C   UNL d   1     -41.870-122.525 -49.671  0.00  0.00     0.066 A 
ATOM     25  C   UNL d   1     -42.549-122.513 -49.187  0.00  0.00     0.020 A 
ATOM     26  C   UNL d   1     -42.527-122.790 -48.405  0.00  0.00     0.031 A 
ATOM     27  C   UNL d   1     -41.813-123.089 -48.086  0.00  0.00     0.140 A 
ATOM     28  C   UNL d   1     -41.123-123.108 -48.555  0.00  0.00     0.031 A 
ATOM     29  F   UNL d   1     -41.791-123.365 -47.305  0.00  0.00    -0.204 F 
ATOM     30  C   UNL d   1     -41.153-122.826 -49.347  0.00  0.00     0.020 A 
ENDBRANCH   4  24
TORSDOF 3
ENDMDL
