MODEL 1
REMARK VINA RESULT:      10.8      0.000      0.000
REMARK  9 active torsions:
REMARK  status: ('A' for Active; 'I' for Inactive)
REMARK    1  A    between atoms: C_2  and  C_1 
REMARK    2  A    between atoms: C_23  and  C_7 
REMARK    3  A    between atoms: C_12  and  O_16 
REMARK    4  A    between atoms: C_18  and  C_12 
REMARK    5  A    between atoms: O_16  and  C_14 
REMARK    6  A    between atoms: C_30  and  C_17 
REMARK    7  A    between atoms: C_20  and  C_28 
REMARK    8  A    between atoms: O_25  and  C_23 
REMARK    9  A    between atoms: C_28  and  O_25 
ROOT
ATOM      1  C   UNL d   1      56.722  -0.482  32.406  0.00  0.00     0.098 A 
ATOM      2  C   UNL d   1      57.328  -0.026  32.056  0.00  0.00     0.202 A 
ATOM      3  C   UNL d   1      57.687  -0.277  31.358  0.00  0.00     0.062 A 
ATOM      4  C   UNL d   1      56.482  -1.196  32.045  0.00  0.00     0.130 A 
ATOM      5  C   UNL d   1      57.447  -0.990  30.997  0.00  0.00     0.105 A 
ATOM      6  O   UNL d   1      56.840  -1.457  31.338  0.00  0.00    -0.305 OA
ATOM      7  C   UNL d   1      58.283   0.171  31.013  0.00  0.00     0.007 A 
ATOM      8  C   UNL d   1      58.404  -0.787  29.957  0.00  0.00     0.105 A 
ATOM      9  C   UNL d   1      57.807  -1.242  30.298  0.00  0.00     0.050 A 
ATOM     10  C   UNL d   1      58.642  -0.081  30.314  0.00  0.00     0.023 A 
ATOM     11  O   UNL d   1      57.566   0.681  32.414  0.00  0.00    -0.286 OA
ENDROOT
BRANCH   1  12
ATOM     12  C   UNL d   1      56.363  -0.227  33.106  0.00  0.00     0.153 A 
ATOM     13  N   UNL d   1      56.719  -0.215  33.850  0.00  0.00    -0.227 NA
ATOM     14  C   UNL d   1      56.167   0.078  34.388  0.00  0.00     0.099 A 
ATOM     15  C   UNL d   1      56.207   0.213  35.198  0.00  0.00     0.021 A 
ATOM     16  C   UNL d   1      55.472   0.245  33.975  0.00  0.00     0.083 A 
ATOM     17  C   UNL d   1      55.553   0.516  35.600  0.00  0.00     0.002 A 
ATOM     18  C   UNL d   1      54.858   0.681  35.179  0.00  0.00     0.002 A 
ATOM     19  C   UNL d   1      54.818   0.547  34.373  0.00  0.00     0.019 A 
ATOM     20  N   UNL d   1      55.599   0.054  33.183  0.00  0.00    -0.288 N 
ATOM     21  C   UNL d   1      55.047   0.135  32.574  0.00  0.00     0.101 C 
ENDBRANCH   1  12
BRANCH   4  22
ATOM     22  C   UNL d   1      55.878  -1.652  32.393  0.00  0.00     0.142 C 
BRANCH  22  23
ATOM     23  O   UNL d   1      56.052  -2.391  32.717  0.00  0.00    -0.315 OA
BRANCH  23  24
ATOM     24  C   UNL d   1      55.469  -2.980  32.741  0.00  0.00     0.246 C 
BRANCH  24  25
ATOM     25  C   UNL d   1      55.252  -3.308  33.471  0.00  0.00     0.217 C 
ATOM     26  O   UNL d   1      54.517  -3.676  33.565  0.00  0.00    -0.645 OA
ATOM     27  O   UNL d   1      55.777  -3.266  34.106  0.00  0.00    -0.645 OA
ENDBRANCH  24  25
ENDBRANCH  23  24
ENDBRANCH  22  23
ENDBRANCH   4  22
BRANCH  10  28
ATOM     28  C   UNL d   1      59.243   0.375  29.970  0.00  0.00     0.002 C 
ATOM     29  C   UNL d   1      59.981   0.427  30.336  0.00  0.00     0.000 C 
ENDBRANCH  10  28
BRANCH   8  30
ATOM     30  O   UNL d   1      58.764  -1.039  29.258  0.00  0.00    -0.276 OA
BRANCH  30  31
ATOM     31  C   UNL d   1      58.789  -1.843  29.072  0.00  0.00     0.275 C 
ATOM     32  O   UNL d   1      58.110  -2.307  29.145  0.00  0.00    -0.264 OA
BRANCH  31  33
ATOM     33  C   UNL d   1      59.498  -2.186  28.812  0.00  0.00     0.078 C 
ATOM     34  C   UNL d   1      60.209  -2.533  28.552  0.00  0.00     0.010 C 
ATOM     35  C   UNL d   1      59.748  -1.452  28.531  0.00  0.00     0.010 C 
ATOM     36  C   UNL d   1      59.239  -2.922  29.098  0.00  0.00     0.010 C 
ENDBRANCH  31  33
ENDBRANCH  30  31
ENDBRANCH   8  30
TORSDOF 9
ENDMDL
