MODEL 1
REMARK VINA RESULT:      91.6      0.000      0.000
REMARK  4 active torsions:
REMARK  status: ('A' for Active; 'I' for Inactive)
REMARK    1  A    between atoms: S_12  and  C_5 
REMARK       I    between atoms: N_7  and  C_9 
REMARK    2  A    between atoms: C_19  and  N_8 
REMARK    3  A    between atoms: C_9  and  C_14 
REMARK    4  A    between atoms: C_14  and  S_12 
ROOT
ATOM      1  C   UNL d   1      59.977  48.605  51.481  0.00  0.00     0.098 C 
ENDROOT
BRANCH   1   2
ATOM      2  C   UNL d   1      60.724  48.255  51.446  0.00  0.00     0.272 C 
ATOM      3  N   UNL d   1      60.832  47.552  51.024  0.00  0.00    -0.269 N 
ATOM      4  C   UNL d   1      60.194  47.203  50.641  0.00  0.00     0.102 A 
ATOM      5  C   UNL d   1      61.575  47.203  50.988  0.00  0.00     0.102 A 
ATOM      6  C   UNL d   1      60.303  46.500  50.220  0.00  0.00     0.100 A 
ATOM      7  N   UNL d   1      61.049  46.151  50.184  0.00  0.00    -0.301 N 
ATOM      8  C   UNL d   1      61.683  46.505  50.569  0.00  0.00     0.100 A 
ATOM      9  O   UNL d   1      61.357  48.613  51.833  0.00  0.00    -0.266 OA
BRANCH   7  10
ATOM     10  C   UNL d   1      61.159  45.452  49.765  0.00  0.00     0.064 A 
ATOM     11  C   UNL d   1      61.916  45.168  49.622  0.00  0.00     0.018 A 
ATOM     12  C   UNL d   1      62.024  44.466  49.201  0.00  0.00     0.002 A 
ATOM     13  C   UNL d   1      61.375  44.050  48.925  0.00  0.00     0.000 A 
ATOM     14  C   UNL d   1      60.614  44.333  49.068  0.00  0.00     0.002 A 
ATOM     15  C   UNL d   1      60.505  45.032  49.487  0.00  0.00     0.018 A 
ENDBRANCH   7  10
ENDBRANCH   1   2
BRANCH   1  16
ATOM     16  S   UNL d   1      59.863  49.369  51.186  0.00  0.00    -0.060 SA
BRANCH  16  17
ATOM     17  C   UNL d   1      59.589  49.472  50.406  0.00  0.00     0.137 A 
ATOM     18  C   UNL d   1      58.782  49.504  50.246  0.00  0.00     0.141 A 
ATOM     19  O   UNL d   1      58.122  49.452  50.739  0.00  0.00    -0.303 OA
ATOM     20  C   UNL d   1      58.517  49.607  49.468  0.00  0.00     0.110 A 
ATOM     21  C   UNL d   1      57.443  49.523  50.264  0.00  0.00     0.102 A 
ATOM     22  C   UNL d   1      56.635  49.512  50.446  0.00  0.00     0.025 A 
ATOM     23  C   UNL d   1      57.694  49.618  49.482  0.00  0.00     0.043 A 
ATOM     24  C   UNL d   1      56.081  49.597  49.838  0.00  0.00     0.002 A 
ATOM     25  C   UNL d   1      56.326  49.693  49.056  0.00  0.00     0.000 A 
ATOM     26  C   UNL d   1      57.135  49.703  48.873  0.00  0.00     0.004 A 
ATOM     27  N   UNL d   1      59.067  49.675  48.858  0.00  0.00    -0.222 NA
ATOM     28  C   UNL d   1      59.873  49.643  49.017  0.00  0.00     0.200 A 
ATOM     29  N   UNL d   1      60.138  49.542  49.787  0.00  0.00    -0.215 NA
ENDBRANCH  16  17
ENDBRANCH   1  16
TORSDOF 4
ENDMDL
