MODEL 1
REMARK VINA RESULT:      42.2      0.000      0.000
REMARK  4 active torsions:
REMARK  status: ('A' for Active; 'I' for Inactive)
REMARK    1  A    between atoms: S_9  and  C_2 
REMARK    2  A    between atoms: C_11  and  C_3 
REMARK    3  A    between atoms: C_7  and  C_10 
REMARK       I    between atoms: N_8  and  C_7 
REMARK    4  A    between atoms: C_10  and  S_9 
ROOT
ATOM      1  N   UNL d   1      14.007  13.359  -2.484  0.00  0.00    -0.220 NA
ATOM      2  C   UNL d   1      13.796  13.621  -3.229  0.00  0.00     0.114 A 
ATOM      3  C   UNL d   1      13.885  12.573  -2.268  0.00  0.00     0.163 A 
ATOM      4  N   UNL d   1      13.548  12.046  -2.808  0.00  0.00    -0.227 NA
ATOM      5  C   UNL d   1      13.459  13.094  -3.768  0.00  0.00     0.042 A 
ATOM      6  C   UNL d   1      13.333  12.305  -3.564  0.00  0.00     0.085 A 
ATOM      7  C   UNL d   1      13.246  13.356  -4.521  0.00  0.00     0.004 A 
ATOM      8  C   UNL d   1      13.004  11.782  -4.085  0.00  0.00     0.019 A 
ATOM      9  C   UNL d   1      12.910  12.821  -5.054  0.00  0.00     0.000 A 
ATOM     10  C   UNL d   1      12.789  12.032  -4.833  0.00  0.00     0.002 A 
ENDROOT
BRANCH   2  11
ATOM     11  S   UNL d   1      13.917  14.410  -3.449  0.00  0.00    -0.062 SA
BRANCH  11  12
ATOM     12  C   UNL d   1      14.276  14.941  -2.930  0.00  0.00     0.098 C 
BRANCH  12  13
ATOM     13  C   UNL d   1      14.443  15.704  -3.173  0.00  0.00     0.272 C 
ATOM     14  N   UNL d   1      14.751  16.255  -2.630  0.00  0.00    -0.267 N 
ATOM     15  C   UNL d   1      14.918  17.027  -2.881  0.00  0.00     0.110 A 
ATOM     16  C   UNL d   1      14.885  16.030  -1.858  0.00  0.00     0.110 A 
ATOM     17  C   UNL d   1      15.222  17.569  -2.347  0.00  0.00     0.142 A 
ATOM     18  O   UNL d   1      15.359  17.346  -1.563  0.00  0.00    -0.300 OA
ATOM     19  C   UNL d   1      15.188  16.572  -1.323  0.00  0.00     0.142 A 
ATOM     20  O   UNL d   1      14.306  15.928  -3.957  0.00  0.00    -0.266 OA
ENDBRANCH  12  13
ENDBRANCH  11  12
ENDBRANCH   2  11
BRANCH   3  21
ATOM     21  C   UNL d   1      14.099  12.307  -1.511  0.00  0.00     0.036 A 
ATOM     22  C   UNL d   1      13.523  12.242  -0.924  0.00  0.00     0.003 A 
ATOM     23  C   UNL d   1      13.737  11.977  -0.173  0.00  0.00     0.000 A 
ATOM     24  C   UNL d   1      14.524  11.780  -0.015  0.00  0.00     0.000 A 
ATOM     25  C   UNL d   1      15.096  11.847  -0.608  0.00  0.00     0.000 A 
ATOM     26  C   UNL d   1      14.874  12.112  -1.355  0.00  0.00     0.003 A 
ENDBRANCH   3  21
TORSDOF 4
ENDMDL
