MODEL 1
REMARK VINA RESULT:      50.1      0.000      0.000
REMARK  5 active torsions:
REMARK  status: ('A' for Active; 'I' for Inactive)
REMARK    1  A    between atoms: N_7  and  C_4 
REMARK    2  A    between atoms: N_9  and  N_7 
REMARK       I    between atoms: C_8  and  N_9 
REMARK    3  A    between atoms: C_11  and  C_8 
REMARK    4  A    between atoms: C_14  and  C_11 
REMARK    5  A    between atoms: C_15  and  C_11 
ROOT
ATOM      1  C   UNL d   1      13.292  13.128  -3.492  0.00  0.00     0.297 C 
ATOM      2  N   UNL d   1      13.690  13.472  -2.857  0.00  0.00    -0.104 NA
ATOM      3  O   UNL d   1      12.798  12.477  -3.368  0.00  0.00    -0.264 OA
ENDROOT
BRANCH   1   4
ATOM      4  C   UNL d   1      13.388  13.435  -4.252  0.00  0.00     0.059 C 
BRANCH   4   5
ATOM      5  C   UNL d   1      13.446  14.252  -4.364  0.00  0.00     0.005 A 
ATOM      6  C   UNL d   1      14.185  14.603  -4.378  0.00  0.00     0.000 A 
ATOM      7  C   UNL d   1      14.250  15.412  -4.489  0.00  0.00     0.000 A 
ATOM      8  C   UNL d   1      13.555  15.857  -4.586  0.00  0.00     0.000 A 
ATOM      9  C   UNL d   1      12.819  15.501  -4.572  0.00  0.00     0.000 A 
ATOM     10  C   UNL d   1      12.771  14.704  -4.462  0.00  0.00     0.000 A 
ENDBRANCH   4   5
BRANCH   4  11
ATOM     11  C   UNL d   1      13.427  12.924  -4.899  0.00  0.00     0.005 A 
ATOM     12  C   UNL d   1      12.906  12.301  -4.945  0.00  0.00     0.000 A 
ATOM     13  C   UNL d   1      12.938  11.786  -5.589  0.00  0.00     0.000 A 
ATOM     14  C   UNL d   1      13.501  11.907  -6.181  0.00  0.00     0.000 A 
ATOM     15  C   UNL d   1      14.034  12.553  -6.122  0.00  0.00     0.000 A 
ATOM     16  C   UNL d   1      13.986  13.054  -5.476  0.00  0.00     0.000 A 
ENDBRANCH   4  11
ENDBRANCH   1   4
BRANCH   2  17
ATOM     17  N   UNL d   1      13.594  13.165  -2.097  0.00  0.00    -0.127 NA
BRANCH  17  18
ATOM     18  C   UNL d   1      14.237  13.142  -1.575  0.00  0.00     0.178 A 
ATOM     19  N   UNL d   1      14.366  12.480  -1.104  0.00  0.00    -0.240 N 
ATOM     20  C   UNL d   1      15.002  12.457  -0.588  0.00  0.00     0.343 A 
ATOM     21  C   UNL d   1      13.851  11.835  -1.153  0.00  0.00     0.105 C 
ATOM     22  N   UNL d   1      15.517  13.102  -0.540  0.00  0.00    -0.224 N 
ATOM     23  O   UNL d   1      15.130  11.789  -0.116  0.00  0.00    -0.245 OA
ATOM     24  C   UNL d   1      15.401  13.776  -1.006  0.00  0.00     0.271 A 
ATOM     25  C   UNL d   1      16.160  13.079  -0.018  0.00  0.00     0.107 C 
ATOM     26  C   UNL d   1      14.752  13.788  -1.526  0.00  0.00     0.101 A 
ATOM     27  O   UNL d   1      15.910  14.414  -0.958  0.00  0.00    -0.266 OA
ENDBRANCH  17  18
ENDBRANCH   2  17
TORSDOF 5
ENDMDL
