MODEL 1
REMARK VINA RESULT:      -8.0      0.000      0.000
REMARK  3 active torsions:
REMARK  status: ('A' for Active; 'I' for Inactive)
REMARK    1  A    between atoms: N_3  and  C_1 
REMARK    2  A    between atoms: N_6  and  N_2 
REMARK    3  A    between atoms: S_5  and  N_6 
ROOT
ATOM      1  C   UNL d   1      52.729  33.191  53.783  0.00  0.00     0.771 A 
ATOM      2  N   UNL d   1      52.959  32.434  53.538  0.00  0.00    -0.026 N 
ATOM      3  N   UNL d   1      53.183  33.395  54.437  0.00  0.00     0.048 NA
ATOM      4  C   UNL d   1      53.552  32.174  54.040  0.00  0.00     0.204 A 
ATOM      5  N   UNL d   1      53.694  32.767  54.597  0.00  0.00    -0.112 NA
ATOM      6  C   UNL d   1      53.940  31.450  53.996  0.00  0.00     0.044 C 
ENDROOT
BRANCH   1   7
ATOM      7  N   UNL d   1      52.142  33.655  53.426  0.00  0.00    -0.056 N 
ATOM      8  N   UNL d   1      51.338  33.470  53.368  0.00  0.00    -0.150 NA
ATOM      9  C   UNL d   1      50.962  34.088  52.971  0.00  0.00     0.103 A 
ATOM     10  C   UNL d   1      50.155  34.133  52.791  0.00  0.00     0.022 C 
ATOM     11  C   UNL d   1      51.530  34.651  52.784  0.00  0.00     0.041 A 
ATOM     12  C   UNL d   1      52.260  34.386  53.063  0.00  0.00     0.102 A 
ATOM     13  C   UNL d   1      52.979  34.785  52.992  0.00  0.00     0.021 C 
ENDBRANCH   1   7
BRANCH   2  14
ATOM     14  N   UNL d   1      52.641  32.020  52.900  0.00  0.00    -0.059 NA
BRANCH  14  15
ATOM     15  S   UNL d   1      52.681  31.188  52.886  0.00  0.00     0.282 S 
ATOM     16  O   UNL d   1      52.132  31.078  53.479  0.00  0.00    -0.201 OA
ATOM     17  O   UNL d   1      53.237  31.309  52.285  0.00  0.00    -0.201 OA
ATOM     18  C   UNL d   1      52.777  30.380  52.812  0.00  0.00     0.167 C 
ENDBRANCH  14  15
ENDBRANCH   2  14
TORSDOF 3
ENDMDL
MODEL 2
REMARK VINA RESULT:      -8.0      1.428      2.939
REMARK  3 active torsions:
REMARK  status: ('A' for Active; 'I' for Inactive)
REMARK    1  A    between atoms: N_3  and  C_1 
REMARK    2  A    between atoms: N_6  and  N_2 
REMARK    3  A    between atoms: S_5  and  N_6 
ROOT
ATOM      1  C   UNL d   1      53.232  33.238  54.060  0.00  0.00     0.771 A 
ATOM      2  N   UNL d   1      52.689  33.741  53.688  0.00  0.00    -0.026 N 
ATOM      3  N   UNL d   1      53.521  33.624  54.725  0.00  0.00     0.048 NA
ATOM      4  C   UNL d   1      52.645  34.434  54.124  0.00  0.00     0.204 A 
ATOM      5  N   UNL d   1      53.160  34.364  54.767  0.00  0.00    -0.112 NA
ATOM      6  C   UNL d   1      52.173  35.085  53.952  0.00  0.00     0.044 C 
ENDROOT
BRANCH   1   7
ATOM      7  N   UNL d   1      53.440  32.479  53.799  0.00  0.00    -0.056 N 
ATOM      8  N   UNL d   1      52.948  31.815  53.776  0.00  0.00    -0.150 NA
ATOM      9  C   UNL d   1      53.385  31.182  53.479  0.00  0.00     0.103 A 
ATOM     10  C   UNL d   1      53.110  30.410  53.362  0.00  0.00     0.022 C 
ATOM     11  C   UNL d   1      54.144  31.453  53.318  0.00  0.00     0.041 A 
ATOM     12  C   UNL d   1      54.181  32.254  53.515  0.00  0.00     0.102 A 
ATOM     13  C   UNL d   1      54.843  32.741  53.440  0.00  0.00     0.021 C 
ENDBRANCH   1   7
BRANCH   2  14
ATOM     14  N   UNL d   1      52.269  33.569  52.999  0.00  0.00    -0.059 NA
BRANCH  14  15
ATOM     15  S   UNL d   1      51.519  33.911  52.876  0.00  0.00     0.282 S 
ATOM     16  O   UNL d   1      51.149  33.493  53.471  0.00  0.00    -0.201 OA
ATOM     17  O   UNL d   1      51.903  34.331  52.275  0.00  0.00    -0.201 OA
ATOM     18  C   UNL d   1      50.820  34.291  52.694  0.00  0.00     0.167 C 
ENDBRANCH  14  15
ENDBRANCH   2  14
TORSDOF 3
ENDMDL
MODEL 3
REMARK VINA RESULT:      -7.8      1.488      2.563
REMARK  3 active torsions:
REMARK  status: ('A' for Active; 'I' for Inactive)
REMARK    1  A    between atoms: N_3  and  C_1 
REMARK    2  A    between atoms: N_6  and  N_2 
REMARK    3  A    between atoms: S_5  and  N_6 
ROOT
ATOM      1  C   UNL d   1      53.229  32.262  53.353  0.00  0.00     0.771 A 
ATOM      2  N   UNL d   1      53.202  31.440  53.446  0.00  0.00    -0.026 N 
ATOM      3  N   UNL d   1      52.838  32.451  52.655  0.00  0.00     0.048 NA
ATOM      4  C   UNL d   1      52.796  31.124  52.808  0.00  0.00     0.204 A 
ATOM      5  N   UNL d   1      52.569  31.749  52.317  0.00  0.00    -0.112 NA
ATOM      6  C   UNL d   1      52.641  30.327  52.678  0.00  0.00     0.044 C 
ENDROOT
BRANCH   1   7
ATOM      7  N   UNL d   1      53.589  32.794  53.878  0.00  0.00    -0.056 N 
ATOM      8  N   UNL d   1      54.376  32.775  54.131  0.00  0.00    -0.150 NA
ATOM      9  C   UNL d   1      54.492  33.408  54.648  0.00  0.00     0.103 A 
ATOM     10  C   UNL d   1      55.200  33.600  55.034  0.00  0.00     0.022 C 
ATOM     11  C   UNL d   1      53.781  33.814  54.714  0.00  0.00     0.041 A 
ATOM     12  C   UNL d   1      53.222  33.437  54.239  0.00  0.00     0.102 A 
ATOM     13  C   UNL d   1      52.435  33.666  54.144  0.00  0.00     0.021 C 
ENDBRANCH   1   7
BRANCH   2  14
ATOM     14  N   UNL d   1      53.529  31.017  54.075  0.00  0.00    -0.059 NA
BRANCH  14  15
ATOM     15  S   UNL d   1      53.527  30.184  54.058  0.00  0.00     0.282 S 
ATOM     16  O   UNL d   1      54.127  30.120  53.508  0.00  0.00    -0.201 OA
ATOM     17  O   UNL d   1      52.919  30.258  54.615  0.00  0.00    -0.201 OA
ATOM     18  C   UNL d   1      53.463  29.371  54.098  0.00  0.00     0.167 C 
ENDBRANCH  14  15
ENDBRANCH   2  14
TORSDOF 3
ENDMDL
MODEL 4
REMARK VINA RESULT:      -7.6      1.789      3.495
REMARK  3 active torsions:
REMARK  status: ('A' for Active; 'I' for Inactive)
REMARK    1  A    between atoms: N_3  and  C_1 
REMARK    2  A    between atoms: N_6  and  N_2 
REMARK    3  A    between atoms: S_5  and  N_6 
ROOT
ATOM      1  C   UNL d   1      52.896  31.662  53.465  0.00  0.00     0.771 A 
ATOM      2  N   UNL d   1      53.384  32.287  53.705  0.00  0.00    -0.026 N 
ATOM      3  N   UNL d   1      52.251  31.983  53.068  0.00  0.00     0.048 NA
ATOM      4  C   UNL d   1      53.041  32.988  53.456  0.00  0.00     0.204 A 
ATOM      5  N   UNL d   1      52.339  32.803  53.061  0.00  0.00    -0.112 NA
ATOM      6  C   UNL d   1      53.341  33.744  53.577  0.00  0.00     0.044 C 
ENDROOT
BRANCH   1   7
ATOM      7  N   UNL d   1      53.039  30.858  53.606  0.00  0.00    -0.056 N 
ATOM      8  N   UNL d   1      53.113  30.495  54.345  0.00  0.00    -0.150 NA
ATOM      9  C   UNL d   1      53.253  29.691  54.221  0.00  0.00     0.103 A 
ATOM     10  C   UNL d   1      53.362  29.118  54.809  0.00  0.00     0.022 C 
ATOM     11  C   UNL d   1      53.266  29.559  53.410  0.00  0.00     0.041 A 
ATOM     12  C   UNL d   1      53.134  30.278  53.028  0.00  0.00     0.102 A 
ATOM     13  C   UNL d   1      53.103  30.393  52.211  0.00  0.00     0.021 C 
ENDBRANCH   1   7
BRANCH   2  14
ATOM     14  N   UNL d   1      54.092  32.209  54.122  0.00  0.00    -0.059 NA
BRANCH  14  15
ATOM     15  S   UNL d   1      54.395  32.860  54.545  0.00  0.00     0.282 S 
ATOM     16  O   UNL d   1      53.859  32.805  55.158  0.00  0.00    -0.201 OA
ATOM     17  O   UNL d   1      54.934  32.908  53.919  0.00  0.00    -0.201 OA
ATOM     18  C   UNL d   1      54.749  33.506  54.898  0.00  0.00     0.167 C 
ENDBRANCH  14  15
ENDBRANCH   2  14
TORSDOF 3
ENDMDL
MODEL 5
REMARK VINA RESULT:      -7.5      1.727      3.102
REMARK  3 active torsions:
REMARK  status: ('A' for Active; 'I' for Inactive)
REMARK    1  A    between atoms: N_3  and  C_1 
REMARK    2  A    between atoms: N_6  and  N_2 
REMARK    3  A    between atoms: S_5  and  N_6 
ROOT
ATOM      1  C   UNL d   1      53.330  32.511  53.618  0.00  0.00     0.771 A 
ATOM      2  N   UNL d   1      52.617  32.877  53.413  0.00  0.00    -0.026 N 
ATOM      3  N   UNL d   1      53.354  31.777  53.248  0.00  0.00     0.048 NA
ATOM      4  C   UNL d   1      52.203  32.371  52.919  0.00  0.00     0.204 A 
ATOM      5  N   UNL d   1      52.657  31.689  52.815  0.00  0.00    -0.112 NA
ATOM      6  C   UNL d   1      51.465  32.515  52.585  0.00  0.00     0.044 C 
ENDROOT
BRANCH   1   7
ATOM      7  N   UNL d   1      53.913  32.835  54.111  0.00  0.00    -0.056 N 
ATOM      8  N   UNL d   1      53.818  33.059  54.901  0.00  0.00    -0.150 NA
ATOM      9  C   UNL d   1      54.541  33.352  55.171  0.00  0.00     0.103 A 
ATOM     10  C   UNL d   1      54.697  33.639  55.932  0.00  0.00     0.022 C 
ATOM     11  C   UNL d   1      55.079  33.308  54.552  0.00  0.00     0.041 A 
ATOM     12  C   UNL d   1      54.694  32.989  53.896  0.00  0.00     0.102 A 
ATOM     13  C   UNL d   1      55.033  32.850  53.156  0.00  0.00     0.021 C 
ENDBRANCH   1   7
BRANCH   2  14
ATOM     14  N   UNL d   1      52.371  33.623  53.667  0.00  0.00    -0.059 NA
BRANCH  14  15
ATOM     15  S   UNL d   1      51.762  34.018  53.257  0.00  0.00     0.282 S 
ATOM     16  O   UNL d   1      52.245  34.303  52.665  0.00  0.00    -0.201 OA
ATOM     17  O   UNL d   1      51.279  33.725  53.862  0.00  0.00    -0.201 OA
ATOM     18  C   UNL d   1      51.113  34.378  52.915  0.00  0.00     0.167 C 
ENDBRANCH  14  15
ENDBRANCH   2  14
TORSDOF 3
ENDMDL
MODEL 6
REMARK VINA RESULT:      -6.9      1.499      1.992
REMARK  3 active torsions:
REMARK  status: ('A' for Active; 'I' for Inactive)
REMARK    1  A    between atoms: N_3  and  C_1 
REMARK    2  A    between atoms: N_6  and  N_2 
REMARK    3  A    between atoms: S_5  and  N_6 
ROOT
ATOM      1  C   UNL d   1      52.345  32.907  52.990  0.00  0.00     0.771 A 
ATOM      2  N   UNL d   1      52.939  32.880  53.566  0.00  0.00    -0.026 N 
ATOM      3  N   UNL d   1      52.465  32.279  52.473  0.00  0.00     0.048 NA
ATOM      4  C   UNL d   1      53.423  32.239  53.403  0.00  0.00     0.204 A 
ATOM      5  N   UNL d   1      53.131  31.865  52.727  0.00  0.00    -0.112 NA
ATOM      6  C   UNL d   1      54.082  32.007  53.837  0.00  0.00     0.044 C 
ENDROOT
BRANCH   1   7
ATOM      7  N   UNL d   1      51.739  33.471  52.950  0.00  0.00    -0.056 N 
ATOM      8  N   UNL d   1      51.108  33.552  53.479  0.00  0.00    -0.150 NA
ATOM      9  C   UNL d   1      50.642  34.184  53.225  0.00  0.00     0.103 A 
ATOM     10  C   UNL d   1      49.953  34.460  53.592  0.00  0.00     0.022 C 
ATOM     11  C   UNL d   1      50.982  34.491  52.543  0.00  0.00     0.041 A 
ATOM     12  C   UNL d   1      51.660  34.053  52.371  0.00  0.00     0.102 A 
ATOM     13  C   UNL d   1      52.167  34.176  51.732  0.00  0.00     0.021 C 
ENDBRANCH   1   7
BRANCH   2  14
ATOM     14  N   UNL d   1      53.024  33.410  54.192  0.00  0.00    -0.059 NA
BRANCH  14  15
ATOM     15  S   UNL d   1      53.757  33.474  54.584  0.00  0.00     0.282 S 
ATOM     16  O   UNL d   1      54.116  33.913  53.997  0.00  0.00    -0.201 OA
ATOM     17  O   UNL d   1      53.386  33.027  55.173  0.00  0.00    -0.201 OA
ATOM     18  C   UNL d   1      54.442  33.491  55.029  0.00  0.00     0.167 C 
ENDBRANCH  14  15
ENDBRANCH   2  14
TORSDOF 3
ENDMDL
