MODEL 1
REMARK VINA RESULT:      -3.0      0.000      0.000
REMARK  7 active torsions:
REMARK  status: ('A' for Active; 'I' for Inactive)
REMARK    1  A    between atoms: C_10  and  N_1 
REMARK    2  A    between atoms: S_8  and  C_6 
REMARK    3  A    between atoms: C_13  and  S_8 
REMARK    4  A    between atoms: C_11  and  C_13 
REMARK    5  A    between atoms: O_18  and  C_11 
REMARK    6  A    between atoms: C_22  and  C_13 
REMARK    7  A    between atoms: C_23  and  O_18 
ROOT
ATOM      1  N   UNL d   1     -42.069-122.035 -52.976  0.00  0.00    -0.193 N 
ATOM      2  N   UNL d   1     -42.415-121.454 -52.517  0.00  0.00    -0.058 NA
ATOM      3  C   UNL d   1     -41.788-122.624 -52.467  0.00  0.00     0.188 A 
ATOM      4  C   UNL d   1     -41.970-122.391 -51.697  0.00  0.00     0.164 A 
ATOM      5  N   UNL d   1     -42.359-121.663 -51.742  0.00  0.00    -0.125 NA
ATOM      6  C   UNL d   1     -41.759-122.868 -51.061  0.00  0.00     0.135 A 
ATOM      7  N   UNL d   1     -41.397-123.333 -52.603  0.00  0.00    -0.203 NA
ATOM      8  N   UNL d   1     -41.364-123.583 -51.195  0.00  0.00    -0.216 NA
ATOM      9  C   UNL d   1     -41.183-123.816 -51.965  0.00  0.00     0.201 A 
ENDROOT
BRANCH   6  10
ATOM     10  S   UNL d   1     -41.941-122.635 -50.290  0.00  0.00    -0.061 SA
BRANCH  10  11
ATOM     11  C   UNL d   1     -42.127-123.198 -49.722  0.00  0.00     0.094 C 
BRANCH  11  12
ATOM     12  C   UNL d   1     -41.695-123.233 -49.020  0.00  0.00     0.306 C 
ATOM     13  O   UNL d   1     -41.123-123.817 -48.912  0.00  0.00    -0.258 OA
BRANCH  12  14
ATOM     14  O   UNL d   1     -41.839-122.677 -48.422  0.00  0.00    -0.271 OA
BRANCH  14  15
ATOM     15  C   UNL d   1     -41.373-122.677 -47.740  0.00  0.00     0.126 C 
ATOM     16  C   UNL d   1     -41.712-122.537 -47.009  0.00  0.00     0.029 C 
ENDBRANCH  14  15
ENDBRANCH  12  14
ENDBRANCH  11  12
BRANCH  11  17
ATOM     17  C   UNL d   1     -42.747-123.727 -49.856  0.00  0.00     0.012 C 
ATOM     18  C   UNL d   1     -43.396-123.735 -49.356  0.00  0.00     0.001 C 
ENDBRANCH  11  17
ENDBRANCH  10  11
ENDBRANCH   6  10
BRANCH   1  19
ATOM     19  C   UNL d   1     -42.028-122.002 -53.790  0.00  0.00     0.086 A 
ATOM     20  C   UNL d   1     -42.708-122.129 -54.244  0.00  0.00     0.022 A 
ATOM     21  C   UNL d   1     -42.667-122.095 -55.067  0.00  0.00     0.031 A 
ATOM     22  C   UNL d   1     -41.962-121.937 -55.444  0.00  0.00     0.140 A 
ATOM     23  C   UNL d   1     -41.272-121.807 -54.986  0.00  0.00     0.031 A 
ATOM     24  F   UNL d   1     -41.941-121.906 -56.285  0.00  0.00    -0.204 F 
ATOM     25  C   UNL d   1     -41.305-121.840 -54.168  0.00  0.00     0.022 A 
ENDBRANCH   1  19
TORSDOF 7
ENDMDL
MODEL 2
REMARK VINA RESULT:      -2.7      2.765      5.267
REMARK  7 active torsions:
REMARK  status: ('A' for Active; 'I' for Inactive)
REMARK    1  A    between atoms: C_10  and  N_1 
REMARK    2  A    between atoms: S_8  and  C_6 
REMARK    3  A    between atoms: C_13  and  S_8 
REMARK    4  A    between atoms: C_11  and  C_13 
REMARK    5  A    between atoms: O_18  and  C_11 
REMARK    6  A    between atoms: C_22  and  C_13 
REMARK    7  A    between atoms: C_23  and  O_18 
ROOT
ATOM      1  N   UNL d   1     -42.252-123.210 -49.989  0.00  0.00    -0.193 N 
ATOM      2  N   UNL d   1     -42.745-123.720 -50.396  0.00  0.00    -0.058 NA
ATOM      3  C   UNL d   1     -41.915-122.693 -50.540  0.00  0.00     0.188 A 
ATOM      4  C   UNL d   1     -42.210-122.896 -51.283  0.00  0.00     0.164 A 
ATOM      5  N   UNL d   1     -42.725-123.536 -51.179  0.00  0.00    -0.125 NA
ATOM      6  C   UNL d   1     -41.975-122.478 -51.949  0.00  0.00     0.135 A 
ATOM      7  N   UNL d   1     -41.384-122.071 -50.462  0.00  0.00    -0.203 NA
ATOM      8  N   UNL d   1     -41.440-121.850 -51.875  0.00  0.00    -0.216 NA
ATOM      9  C   UNL d   1     -41.145-121.646 -51.132  0.00  0.00     0.201 A 
ENDROOT
BRANCH   6  10
ATOM     10  S   UNL d   1     -42.271-122.682 -52.693  0.00  0.00    -0.061 SA
BRANCH  10  11
ATOM     11  C   UNL d   1     -41.802-122.595 -53.362  0.00  0.00     0.094 C 
BRANCH  11  12
ATOM     12  C   UNL d   1     -42.012-122.048 -53.943  0.00  0.00     0.306 C 
ATOM     13  O   UNL d   1     -42.275-121.295 -53.731  0.00  0.00    -0.258 OA
BRANCH  12  14
ATOM     14  O   UNL d   1     -41.956-122.259 -54.743  0.00  0.00    -0.271 OA
BRANCH  14  15
ATOM     15  C   UNL d   1     -42.239-121.745 -55.325  0.00  0.00     0.126 C 
ATOM     16  C   UNL d   1     -42.460-122.033 -56.058  0.00  0.00     0.029 C 
ENDBRANCH  14  15
ENDBRANCH  12  14
ENDBRANCH  11  12
BRANCH  11  17
ATOM     17  C   UNL d   1     -41.123-123.055 -53.450  0.00  0.00     0.012 C 
ATOM     18  C   UNL d   1     -41.124-123.697 -53.958  0.00  0.00     0.001 C 
ENDBRANCH  11  17
ENDBRANCH  10  11
ENDBRANCH   6  10
BRANCH   1  19
ATOM     19  C   UNL d   1     -42.140-123.240 -49.181  0.00  0.00     0.086 A 
ATOM     20  C   UNL d   1     -42.601-122.768 -48.682  0.00  0.00     0.022 A 
ATOM     21  C   UNL d   1     -42.489-122.798 -47.866  0.00  0.00     0.031 A 
ATOM     22  C   UNL d   1     -41.926-123.289 -47.539  0.00  0.00     0.140 A 
ATOM     23  C   UNL d   1     -41.458-123.768 -48.044  0.00  0.00     0.031 A 
ATOM     24  F   UNL d   1     -41.826-123.305 -46.704  0.00  0.00    -0.204 F 
ATOM     25  C   UNL d   1     -41.564-123.744 -48.856  0.00  0.00     0.022 A 
ENDBRANCH   1  19
TORSDOF 7
ENDMDL
