MODEL 1
REMARK VINA RESULT:      52.6      0.000      0.000
REMARK  5 active torsions:
REMARK  status: ('A' for Active; 'I' for Inactive)
REMARK    1  A    between atoms: S_10  and  C_6 
REMARK    2  A    between atoms: C_15  and  S_10 
REMARK    3  A    between atoms: C_11  and  C_15 
REMARK       I    between atoms: N_13  and  C_11 
REMARK    4  A    between atoms: C_17  and  N_13 
REMARK    5  A    between atoms: O_25  and  C_18 
ROOT
ATOM      1  C   UNL d   1      14.134  12.435  -1.780  0.00  0.00     0.155 A 
ATOM      2  C   UNL d   1      14.099  13.116  -2.251  0.00  0.00     0.107 A 
ATOM      3  N   UNL d   1      14.849  13.165  -0.781  0.00  0.00    -0.250 N 
ATOM      4  C   UNL d   1      14.506  12.458  -1.050  0.00  0.00     0.285 A 
ATOM      5  N   UNL d   1      14.441  13.822  -1.982  0.00  0.00    -0.220 NA
ATOM      6  C   UNL d   1      14.813  13.837  -1.248  0.00  0.00     0.182 A 
ATOM      7  N   UNL d   1      13.753  11.825  -2.184  0.00  0.00    -0.239 NA
ATOM      8  C   UNL d   1      13.698  12.933  -2.944  0.00  0.00     0.037 A 
ATOM      9  C   UNL d   1      13.481  12.128  -2.906  0.00  0.00     0.083 A 
ATOM     10  O   UNL d   1      14.546  11.780  -0.573  0.00  0.00    -0.265 OA
ATOM     11  C   UNL d   1      15.225  13.191  -0.043  0.00  0.00     0.104 C 
ATOM     12  C   UNL d   1      13.499  13.379  -3.606  0.00  0.00     0.003 A 
ATOM     13  C   UNL d   1      13.066  11.779  -3.531  0.00  0.00     0.019 A 
ATOM     14  C   UNL d   1      13.084  13.030  -4.231  0.00  0.00     0.000 A 
ATOM     15  C   UNL d   1      12.870  12.235  -4.191  0.00  0.00     0.002 A 
ENDROOT
BRANCH   6  16
ATOM     16  S   UNL d   1      15.154  14.539  -0.978  0.00  0.00    -0.044 SA
BRANCH  16  17
ATOM     17  C   UNL d   1      14.732  15.247  -1.012  0.00  0.00     0.101 C 
BRANCH  17  18
ATOM     18  C   UNL d   1      14.929  15.818  -1.571  0.00  0.00     0.286 C 
ATOM     19  N   UNL d   1      14.626  15.759  -2.329  0.00  0.00    -0.208 NA
ATOM     20  O   UNL d   1      15.422  16.444  -1.381  0.00  0.00    -0.265 OA
BRANCH  19  21
ATOM     21  C   UNL d   1      14.821  16.332  -2.897  0.00  0.00     0.085 A 
ATOM     22  C   UNL d   1      15.044  17.077  -2.661  0.00  0.00     0.021 A 
ATOM     23  C   UNL d   1      15.239  17.649  -3.228  0.00  0.00     0.026 A 
ATOM     24  C   UNL d   1      15.206  17.464  -4.031  0.00  0.00     0.094 A 
ATOM     25  C   UNL d   1      14.974  16.692  -4.262  0.00  0.00     0.026 A 
ATOM     26  C   UNL d   1      14.784  16.133  -3.695  0.00  0.00     0.021 A 
BRANCH  24  27
ATOM     27  O   UNL d   1      15.403  18.045  -4.590  0.00  0.00    -0.328 OA
ATOM     28  C   UNL d   1      14.822  18.528  -4.908  0.00  0.00     0.181 C 
ENDBRANCH  24  27
ENDBRANCH  19  21
ENDBRANCH  17  18
ENDBRANCH  16  17
ENDBRANCH   6  16
TORSDOF 5
ENDMDL
