MODEL 1
REMARK VINA RESULT:      16.0      0.000      0.000
REMARK  2 active torsions:
REMARK  status: ('A' for Active; 'I' for Inactive)
REMARK    1  A    between atoms: C_2  and  N_1 
REMARK    2  A    between atoms: C_4  and  C_7 
ROOT
ATOM      1  C   UNL d   1      14.561  12.351  -1.284  0.00  0.00     0.146 A 
ATOM      2  C   UNL d   1      14.422  12.487  -2.086  0.00  0.00     0.027 A 
ATOM      3  C   UNL d   1      13.687  12.267  -2.429  0.00  0.00     0.021 A 
ATOM      4  C   UNL d   1      13.978  11.999  -0.820  0.00  0.00     0.125 A 
ATOM      5  C   UNL d   1      13.111  11.918  -1.961  0.00  0.00     0.003 A 
ATOM      6  C   UNL d   1      13.243  11.780  -1.162  0.00  0.00     0.023 A 
ATOM      7  N   UNL d   1      14.115  11.862  -0.015  0.00  0.00    -0.146 N 
ENDROOT
BRANCH   3   8
ATOM      8  C   UNL d   1      13.555  12.405  -3.227  0.00  0.00     0.103 A 
ATOM      9  N   UNL d   1      13.425  11.780  -3.754  0.00  0.00    -0.145 NA
ATOM     10  N   UNL d   1      13.293  11.918  -4.552  0.00  0.00    -0.106 NA
ATOM     11  C   UNL d   1      13.290  12.694  -4.837  0.00  0.00     0.297 A 
ATOM     12  C   UNL d   1      13.420  13.327  -4.313  0.00  0.00     0.066 A 
ATOM     13  O   UNL d   1      13.158  12.840  -5.638  0.00  0.00    -0.264 OA
ATOM     14  C   UNL d   1      13.552  13.181  -3.511  0.00  0.00     0.024 A 
ATOM     15  C   UNL d   1      13.681  13.813  -2.991  0.00  0.00     0.002 C 
ENDBRANCH   3   8
BRANCH   1  16
ATOM     16  N   UNL d   1      15.285  12.567  -0.947  0.00  0.00    -0.112 N 
ATOM     17  O   UNL d   1      15.334  13.238  -0.470  0.00  0.00    -0.532 OA
ATOM     18  O   UNL d   1      15.958  12.112  -1.088  0.00  0.00    -0.532 OA
ENDBRANCH   1  16
TORSDOF 2
ENDMDL
MODEL 2
REMARK VINA RESULT:      16.4      1.182      3.612
REMARK  2 active torsions:
REMARK  status: ('A' for Active; 'I' for Inactive)
REMARK    1  A    between atoms: C_2  and  N_1 
REMARK    2  A    between atoms: C_4  and  C_7 
ROOT
ATOM      1  C   UNL d   1      13.323  13.402  -3.873  0.00  0.00     0.146 A 
ATOM      2  C   UNL d   1      13.676  13.233  -3.147  0.00  0.00     0.027 A 
ATOM      3  C   UNL d   1      13.835  12.437  -2.932  0.00  0.00     0.021 A 
ATOM      4  C   UNL d   1      13.126  12.788  -4.387  0.00  0.00     0.125 A 
ATOM      5  C   UNL d   1      13.637  11.830  -3.449  0.00  0.00     0.003 A 
ATOM      6  C   UNL d   1      13.285  11.992  -4.173  0.00  0.00     0.023 A 
ATOM      7  N   UNL d   1      12.770  12.956  -5.116  0.00  0.00    -0.146 N 
ENDROOT
BRANCH   3   8
ATOM      8  C   UNL d   1      14.187  12.275  -2.208  0.00  0.00     0.103 A 
ATOM      9  N   UNL d   1      14.992  12.422  -2.081  0.00  0.00    -0.145 NA
ATOM     10  N   UNL d   1      15.344  12.260  -1.358  0.00  0.00    -0.106 NA
ATOM     11  C   UNL d   1      14.889  11.945  -0.744  0.00  0.00     0.297 A 
ATOM     12  C   UNL d   1      14.079  11.794  -0.865  0.00  0.00     0.066 A 
ATOM     13  O   UNL d   1      15.236  11.780  -0.014  0.00  0.00    -0.264 OA
ATOM     14  C   UNL d   1      13.732  11.960  -1.595  0.00  0.00     0.024 A 
ATOM     15  C   UNL d   1      12.926  11.809  -1.713  0.00  0.00     0.002 C 
ENDBRANCH   3   8
BRANCH   1  16
ATOM     16  N   UNL d   1      13.166  14.186  -4.084  0.00  0.00    -0.112 N 
ATOM     17  O   UNL d   1      12.815  14.356  -4.811  0.00  0.00    -0.532 OA
ATOM     18  O   UNL d   1      13.360  14.800  -3.568  0.00  0.00    -0.532 OA
ENDBRANCH   1  16
TORSDOF 2
ENDMDL
