MODEL 1
REMARK VINA RESULT:      75.9      0.000      0.000
REMARK  3 active torsions:
REMARK  status: ('A' for Active; 'I' for Inactive)
REMARK    1  A    between atoms: C_4  and  C_1 
REMARK    2  A    between atoms: C_11  and  C_10 
REMARK    3  A    between atoms: O_20  and  C_11 
ROOT
ATOM      1  C   UNL d   1     -51.487  25.201  33.710  0.00  0.00     0.004 A 
ATOM      2  C   UNL d   1     -52.024  23.912  33.413  0.00  0.00     0.102 A 
ATOM      3  C   UNL d   1     -52.136  24.705  33.611  0.00  0.00     0.023 A 
ATOM      4  O   UNL d   1     -51.261  23.615  33.314  0.00  0.00    -0.307 OA
ATOM      5  C   UNL d   1     -50.613  24.113  33.412  0.00  0.00     0.102 A 
ATOM      6  C   UNL d   1     -50.726  24.906  33.610  0.00  0.00     0.023 A 
ATOM      7  C   UNL d   1     -52.672  23.414  33.314  0.00  0.00     0.046 A 
ATOM      8  C   UNL d   1     -52.898  25.000  33.710  0.00  0.00     0.004 A 
ATOM      9  C   UNL d   1     -49.851  23.816  33.313  0.00  0.00     0.046 A 
ATOM     10  C   UNL d   1     -53.438  23.710  33.414  0.00  0.00     0.105 A 
ATOM     11  C   UNL d   1     -53.551  24.503  33.612  0.00  0.00     0.021 A 
ATOM     12  C   UNL d   1     -50.076  25.402  33.709  0.00  0.00     0.004 A 
ATOM     13  N   UNL d   1     -54.096  23.212  33.315  0.00  0.00    -0.148 N 
ATOM     14  C   UNL d   1     -49.194  24.315  33.412  0.00  0.00     0.105 A 
ATOM     15  C   UNL d   1     -49.307  25.107  33.610  0.00  0.00     0.021 A 
ATOM     16  N   UNL d   1     -48.428  24.019  33.312  0.00  0.00    -0.148 N 
ENDROOT
BRANCH   1  17
ATOM     17  C   UNL d   1     -51.600  25.994  33.908  0.00  0.00     0.005 A 
ATOM     18  C   UNL d   1     -51.629  26.222  34.698  0.00  0.00     0.063 A 
ATOM     19  C   UNL d   1     -51.742  27.019  34.897  0.00  0.00     0.005 A 
ATOM     20  C   UNL d   1     -51.826  27.585  34.305  0.00  0.00     0.000 A 
ATOM     21  C   UNL d   1     -51.797  27.358  33.510  0.00  0.00     0.000 A 
ATOM     22  C   UNL d   1     -51.684  26.561  33.311  0.00  0.00     0.000 A 
BRANCH  18  23
ATOM     23  C   UNL d   1     -51.590  25.985  35.514  0.00  0.00     0.296 C 
ATOM     24  O   UNL d   1     -52.397  26.113  35.941  0.00  0.00    -0.259 OA
BRANCH  23  25
ATOM     25  O   UNL d   1     -51.290  25.690  36.245  0.00  0.00    -0.296 OA
ATOM     26  C   UNL d   1     -50.982  26.174  37.017  0.00  0.00     0.185 C 
ENDBRANCH  23  25
ENDBRANCH  18  23
ENDBRANCH   1  17
TORSDOF 3
ENDMDL
