MODEL 1
REMARK VINA RESULT:      26.4      0.000      0.000
REMARK  1 active torsions:
REMARK  status: ('A' for Active; 'I' for Inactive)
REMARK    1  A    between atoms: C_6  and  N_1 
ROOT
ATOM      1  N   UNL d   1     -55.255-101.497 -44.488  0.00  0.00    -0.204 N 
ATOM      2  C   UNL d   1     -54.981-101.162 -43.782  0.00  0.00     0.271 A 
ATOM      3  C   UNL d   1     -55.401-100.884 -45.026  0.00  0.00     0.270 A 
ATOM      4  C   UNL d   1     -54.958-100.343 -43.884  0.00  0.00     0.080 A 
ATOM      5  C   UNL d   1     -55.214-100.173 -44.643  0.00  0.00     0.064 A 
ATOM      6  O   UNL d   1     -54.799-101.641 -43.170  0.00  0.00    -0.266 OA
ATOM      7  O   UNL d   1     -55.681-100.968 -45.797  0.00  0.00    -0.266 OA
ATOM      8  N   UNL d   1     -54.768 -98.961 -43.629  0.00  0.00    -0.242 NA
ATOM      9  C   UNL d   1     -54.733 -99.744 -43.370  0.00  0.00     0.104 A 
ATOM     10  C   UNL d   1     -55.248 -99.392 -44.898  0.00  0.00     0.026 A 
ATOM     11  C   UNL d   1     -55.024 -98.781 -44.390  0.00  0.00     0.099 A 
ENDROOT
BRANCH   1  12
ATOM     12  C   UNL d   1     -55.366-102.304 -44.636  0.00  0.00     0.326 C 
ATOM     13  O   UNL d   1     -54.782-102.732 -45.032  0.00  0.00    -0.261 OA
ENDBRANCH   1  12
TORSDOF 1
ENDMDL
