MODEL 1
REMARK VINA RESULT:      26.1      0.000      0.000
REMARK  4 active torsions:
REMARK  status: ('A' for Active; 'I' for Inactive)
REMARK    1  A    between atoms: N_6  and  C_1 
REMARK    2  A    between atoms: C_7  and  N_2 
REMARK       I    between atoms: C_8  and  N_6 
REMARK    3  A    between atoms: C_19  and  C_8 
REMARK    4  A    between atoms: O_20  and  C_15 
ROOT
ATOM      1  C   UNL d   1      13.435  13.098  -3.560  0.00  0.00     0.169 A 
ATOM      2  N   UNL d   1      13.594  12.382  -3.168  0.00  0.00    -0.212 N 
ATOM      3  N   UNL d   1      13.434  11.779  -3.707  0.00  0.00    -0.163 NA
ATOM      4  C   UNL d   1      13.185  12.918  -4.314  0.00  0.00     0.062 A 
ATOM      5  C   UNL d   1      13.178  12.099  -4.427  0.00  0.00     0.111 A 
ATOM      6  S   UNL d   1      12.774  12.628  -5.557  0.00  0.00    -0.084 SA
ATOM      7  C   UNL d   1      12.924  13.263  -5.046  0.00  0.00     0.040 A 
ATOM      8  C   UNL d   1      12.919  11.931  -5.206  0.00  0.00     0.056 A 
ENDROOT
BRANCH   2   9
ATOM      9  C   UNL d   1      13.851  12.295  -2.422  0.00  0.00     0.085 A 
ATOM     10  C   UNL d   1      13.395  11.921  -1.873  0.00  0.00     0.021 A 
ATOM     11  C   UNL d   1      13.655  11.825  -1.093  0.00  0.00     0.026 A 
ATOM     12  C   UNL d   1      14.375  12.106  -0.865  0.00  0.00     0.094 A 
ATOM     13  C   UNL d   1      14.846  12.489  -1.419  0.00  0.00     0.026 A 
ATOM     14  C   UNL d   1      14.587  12.584  -2.199  0.00  0.00     0.021 A 
BRANCH  12  15
ATOM     15  O   UNL d   1      14.643  12.035  -0.161  0.00  0.00    -0.328 OA
ATOM     16  C   UNL d   1      15.529  11.783  -0.014  0.00  0.00     0.181 C 
ENDBRANCH  12  15
ENDBRANCH   2   9
BRANCH   1  17
ATOM     17  N   UNL d   1      13.518  13.800  -3.238  0.00  0.00    -0.188 NA
ATOM     18  C   UNL d   1      13.676  14.460  -3.698  0.00  0.00     0.292 C 
ATOM     19  O   UNL d   1      13.746  14.356  -4.528  0.00  0.00    -0.264 OA
BRANCH  18  20
ATOM     20  C   UNL d   1      13.761  15.196  -3.335  0.00  0.00     0.131 C 
ATOM     21 CL   UNL d   1      14.274  15.769  -3.617  0.00  0.00    -0.076 Cl
ENDBRANCH  18  20
ENDBRANCH   1  17
TORSDOF 4
ENDMDL
