MODEL 1
REMARK VINA RESULT:      47.1      0.000      0.000
REMARK  6 active torsions:
REMARK  status: ('A' for Active; 'I' for Inactive)
REMARK    1  A    between atoms: C_13  and  C_4 
REMARK    2  A    between atoms: N_16  and  C_5 
REMARK    3  A    between atoms: N_11  and  C_18 
REMARK    4  A    between atoms: C_21  and  N_16 
REMARK    5  A    between atoms: C_18  and  C_19 
REMARK    6  A    between atoms: C_19  and  C_21 
ROOT
ATOM      1  N   UNL d   1     -50.159  26.253  33.389  0.00  0.00    -0.195 N 
ATOM      2  C   UNL d   1     -50.933  25.969  33.380  0.00  0.00     0.167 A 
ATOM      3  N   UNL d   1     -49.653  25.609  33.413  0.00  0.00    -0.163 NA
ATOM      4  C   UNL d   1     -50.899  25.152  33.398  0.00  0.00     0.055 A 
ATOM      5  C   UNL d   1     -50.016  27.063  33.374  0.00  0.00     0.167 A 
ATOM      6  C   UNL d   1     -50.112  24.926  33.419  0.00  0.00     0.104 A 
ATOM      7  N   UNL d   1     -51.565  26.495  33.355  0.00  0.00    -0.227 NA
ATOM      8  C   UNL d   1     -50.652  27.597  33.349  0.00  0.00     0.058 A 
ATOM      9  C   UNL d   1     -51.425  27.313  33.340  0.00  0.00     0.086 A 
ATOM     10  C   UNL d   1     -49.835  24.149  33.442  0.00  0.00     0.023 C 
ATOM     11  C   UNL d   1     -52.067  27.840  33.315  0.00  0.00     0.021 C 
ENDROOT
BRANCH   5  12
ATOM     12  N   UNL d   1     -49.243  27.347  33.383  0.00  0.00    -0.225 NA
BRANCH  12  13
ATOM     13  C   UNL d   1     -49.094  28.130  33.585  0.00  0.00     0.102 C 
BRANCH  13  14
ATOM     14  C   UNL d   1     -48.380  28.335  33.954  0.00  0.00     0.040 C 
BRANCH  14  15
ATOM     15  C   UNL d   1     -48.309  28.280  34.772  0.00  0.00     0.083 C 
BRANCH  15  16
ATOM     16  N   UNL d   1     -48.040  28.934  35.212  0.00  0.00    -0.285 N 
ATOM     17  C   UNL d   1     -47.533  28.994  35.861  0.00  0.00     0.183 A 
ATOM     18  N   UNL d   1     -47.470  29.783  36.062  0.00  0.00    -0.222 NA
ATOM     19  C   UNL d   1     -47.935  30.217  35.544  0.00  0.00     0.120 A 
ATOM     20  C   UNL d   1     -48.288  29.694  35.017  0.00  0.00     0.102 A 
ENDBRANCH  15  16
ENDBRANCH  14  15
ENDBRANCH  13  14
ENDBRANCH  12  13
ENDBRANCH   5  12
BRANCH   4  21
ATOM     21  C   UNL d   1     -51.494  24.573  33.399  0.00  0.00     0.004 A 
ATOM     22  C   UNL d   1     -51.293  23.778  33.306  0.00  0.00     0.000 A 
ATOM     23  C   UNL d   1     -51.888  23.200  33.307  0.00  0.00     0.000 A 
ATOM     24  C   UNL d   1     -52.678  23.418  33.400  0.00  0.00     0.000 A 
ATOM     25  C   UNL d   1     -52.877  24.218  33.494  0.00  0.00     0.000 A 
ATOM     26  C   UNL d   1     -52.284  24.793  33.493  0.00  0.00     0.000 A 
ENDBRANCH   4  21
TORSDOF 6
ENDMDL
MODEL 2
REMARK VINA RESULT:      48.0      0.710      1.571
REMARK  6 active torsions:
REMARK  status: ('A' for Active; 'I' for Inactive)
REMARK    1  A    between atoms: C_13  and  C_4 
REMARK    2  A    between atoms: N_16  and  C_5 
REMARK    3  A    between atoms: N_11  and  C_18 
REMARK    4  A    between atoms: C_21  and  N_16 
REMARK    5  A    between atoms: C_18  and  C_19 
REMARK    6  A    between atoms: C_19  and  C_21 
ROOT
ATOM      1  N   UNL d   1     -50.612  26.490  33.503  0.00  0.00    -0.195 N 
ATOM      2  C   UNL d   1     -50.641  25.669  33.442  0.00  0.00     0.167 A 
ATOM      3  N   UNL d   1     -51.381  26.768  33.552  0.00  0.00    -0.163 NA
ATOM      4  C   UNL d   1     -51.427  25.444  33.453  0.00  0.00     0.055 A 
ATOM      5  C   UNL d   1     -49.887  26.879  33.506  0.00  0.00     0.167 A 
ATOM      6  C   UNL d   1     -51.887  26.119  33.521  0.00  0.00     0.104 A 
ATOM      7  N   UNL d   1     -49.944  25.234  33.383  0.00  0.00    -0.227 NA
ATOM      8  C   UNL d   1     -49.182  26.444  33.447  0.00  0.00     0.058 A 
ATOM      9  C   UNL d   1     -49.210  25.623  33.386  0.00  0.00     0.086 A 
ATOM     10  C   UNL d   1     -52.711  26.137  33.553  0.00  0.00     0.023 C 
ATOM     11  C   UNL d   1     -48.510  25.181  33.327  0.00  0.00     0.021 C 
ENDROOT
BRANCH   5  12
ATOM     12  N   UNL d   1     -49.858  27.700  33.568  0.00  0.00    -0.225 NA
BRANCH  12  13
ATOM     13  C   UNL d   1     -49.133  28.084  33.628  0.00  0.00     0.102 C 
BRANCH  13  14
ATOM     14  C   UNL d   1     -49.024  28.678  34.197  0.00  0.00     0.040 C 
BRANCH  14  15
ATOM     15  C   UNL d   1     -48.515  28.552  34.831  0.00  0.00     0.083 C 
BRANCH  15  16
ATOM     16  N   UNL d   1     -48.124  29.196  35.186  0.00  0.00    -0.285 N 
ATOM     17  C   UNL d   1     -48.225  30.013  35.115  0.00  0.00     0.183 A 
ATOM     18  N   UNL d   1     -47.679  30.379  35.600  0.00  0.00    -0.222 NA
ATOM     19  C   UNL d   1     -47.238  29.797  35.973  0.00  0.00     0.120 A 
ATOM     20  C   UNL d   1     -47.511  29.065  35.719  0.00  0.00     0.102 A 
ENDBRANCH  15  16
ENDBRANCH  14  15
ENDBRANCH  13  14
ENDBRANCH  12  13
ENDBRANCH   5  12
BRANCH   4  21
ATOM     21  C   UNL d   1     -51.791  24.699  33.410  0.00  0.00     0.004 A 
ATOM     22  C   UNL d   1     -51.327  24.016  33.415  0.00  0.00     0.000 A 
ATOM     23  C   UNL d   1     -51.691  23.272  33.371  0.00  0.00     0.000 A 
ATOM     24  C   UNL d   1     -52.512  23.214  33.324  0.00  0.00     0.000 A 
ATOM     25  C   UNL d   1     -52.975  23.902  33.319  0.00  0.00     0.000 A 
ATOM     26  C   UNL d   1     -52.612  24.643  33.362  0.00  0.00     0.000 A 
ENDBRANCH   4  21
TORSDOF 6
ENDMDL
