MODEL 1
REMARK VINA RESULT:      15.8      0.000      0.000
REMARK  5 active torsions:
REMARK  status: ('A' for Active; 'I' for Inactive)
REMARK    1  A    between atoms: C_2  and  N_1 
REMARK    2  A    between atoms: N_5  and  C_3 
REMARK       I    between atoms: C_4  and  N_5 
REMARK       I    between atoms: N_9  and  C_4 
REMARK    3  A    between atoms: O_11  and  N_9 
REMARK    4  A    between atoms: C_13  and  O_11 
REMARK    5  A    between atoms: C_14  and  C_13 
ROOT
ATOM      1  C   UNL d   1     -51.026  26.841  33.345  0.00  0.00     0.156 A 
ATOM      2  C   UNL d   1     -50.660  26.102  33.342  0.00  0.00     0.160 A 
ATOM      3  C   UNL d   1     -50.574  27.524  33.349  0.00  0.00     0.026 A 
ATOM      4  C   UNL d   1     -49.828  26.049  33.343  0.00  0.00     0.034 A 
ATOM      5  C   UNL d   1     -49.747  27.474  33.351  0.00  0.00     0.002 A 
ATOM      6  C   UNL d   1     -49.379  26.728  33.348  0.00  0.00     0.003 A 
ENDROOT
BRANCH   2   7
ATOM      7  N   UNL d   1     -51.117  25.411  33.337  0.00  0.00    -0.335 NA
ATOM      8  C   UNL d   1     -51.571  24.724  33.333  0.00  0.00     0.499 C 
ATOM      9  O   UNL d   1     -50.926  24.306  33.619  0.00  0.00    -0.211 OA
ATOM     10  N   UNL d   1     -52.024  24.040  33.328  0.00  0.00    -0.199 NA
BRANCH  10  11
ATOM     11  O   UNL d   1     -52.480  23.349  33.324  0.00  0.00    -0.156 OA
BRANCH  11  12
ATOM     12  C   UNL d   1     -53.291  23.189  33.360  0.00  0.00     0.163 C 
BRANCH  12  13
ATOM     13  C   UNL d   1     -53.251  23.209  34.179  0.00  0.00     0.030 C 
ATOM     14  C   UNL d   1     -54.061  23.338  34.214  0.00  0.00     0.002 C 
ENDBRANCH  12  13
ENDBRANCH  11  12
ENDBRANCH  10  11
ENDBRANCH   2   7
BRANCH   1  15
ATOM     15  N   UNL d   1     -51.854  26.891  33.343  0.00  0.00    -0.111 N 
ATOM     16  O   UNL d   1     -52.235  27.621  33.377  0.00  0.00    -0.532 OA
ATOM     17  O   UNL d   1     -52.304  26.188  33.307  0.00  0.00    -0.532 OA
ENDBRANCH   1  15
TORSDOF 5
ENDMDL
