MODEL 1
REMARK VINA RESULT:      30.5      0.000      0.000
REMARK  4 active torsions:
REMARK  status: ('A' for Active; 'I' for Inactive)
REMARK    1  A    between atoms: N_2  and  S_1 
REMARK    2  A    between atoms: C_8  and  S_1 
REMARK    3  A    between atoms: C_4  and  C_3 
REMARK       I    between atoms: N_5  and  C_4 
REMARK    4  A    between atoms: C_6  and  N_5 
ROOT
ATOM      1  N   UNL d   1      13.294  12.332  -3.867  0.00  0.00    -0.226 N 
ATOM      2  C   UNL d   1      13.187  13.092  -4.178  0.00  0.00     0.133 A 
ATOM      3  C   UNL d   1      13.045  11.785  -4.429  0.00  0.00     0.092 A 
ATOM      4  C   UNL d   1      12.870  13.011  -4.937  0.00  0.00     0.025 A 
ATOM      5  C   UNL d   1      12.785  12.204  -5.087  0.00  0.00     0.021 A 
ENDROOT
BRANCH   1   6
ATOM      6  S   UNL d   1      13.606  12.221  -3.109  0.00  0.00     0.271 S 
ATOM      7  O   UNL d   1      14.386  12.218  -3.376  0.00  0.00    -0.200 OA
ATOM      8  O   UNL d   1      12.821  12.227  -2.854  0.00  0.00    -0.200 OA
BRANCH   6   9
ATOM      9  C   UNL d   1      13.864  12.111  -2.338  0.00  0.00     0.104 A 
ATOM     10  C   UNL d   1      14.666  12.189  -2.159  0.00  0.00     0.013 A 
ATOM     11  C   UNL d   1      14.930  12.079  -1.385  0.00  0.00     0.001 A 
ATOM     12  C   UNL d   1      14.388  11.891  -0.788  0.00  0.00     0.000 A 
ATOM     13  C   UNL d   1      13.584  11.814  -0.970  0.00  0.00     0.001 A 
ATOM     14  C   UNL d   1      14.651  11.781  -0.014  0.00  0.00     0.000 C 
ATOM     15  C   UNL d   1      13.324  11.925  -1.746  0.00  0.00     0.013 A 
ENDBRANCH   6   9
ENDBRANCH   1   6
BRANCH   2  16
ATOM     16  C   UNL d   1      13.366  13.807  -3.798  0.00  0.00     0.298 C 
ATOM     17  N   UNL d   1      14.054  14.218  -4.010  0.00  0.00    -0.181 NA
ATOM     18  O   UNL d   1      12.863  14.098  -3.218  0.00  0.00    -0.264 OA
BRANCH  17  19
ATOM     19  C   UNL d   1      14.230  14.930  -3.630  0.00  0.00     0.197 A 
ATOM     20  N   UNL d   1      14.446  15.006  -2.836  0.00  0.00    -0.219 NA
ATOM     21  C   UNL d   1      14.570  15.806  -2.690  0.00  0.00     0.108 A 
ATOM     22  C   UNL d   1      14.433  16.225  -3.384  0.00  0.00     0.059 A 
ATOM     23  S   UNL d   1      14.220  15.678  -3.970  0.00  0.00    -0.046 SA
ENDBRANCH  17  19
ENDBRANCH   2  16
TORSDOF 4
ENDMDL
