MODEL 1
REMARK VINA RESULT:      75.3      0.000      0.000
REMARK  5 active torsions:
REMARK  status: ('A' for Active; 'I' for Inactive)
REMARK    1  A    between atoms: N_2  and  S_1 
REMARK    2  A    between atoms: C_6  and  S_1 
REMARK       I    between atoms: C_3  and  N_4 
REMARK    3  A    between atoms: C_5  and  C_3 
REMARK    4  A    between atoms: O_22  and  C_12 
REMARK    5  A    between atoms: O_26  and  C_16 
ROOT
ATOM      1  N   UNL d   1     -55.389-101.093 -43.676  0.00  0.00    -0.226 N 
ATOM      2  C   UNL d   1     -56.399 -99.244 -44.984  0.00  0.00     0.265 C 
ATOM      3  N   UNL d   1     -56.062 -99.859 -44.550  0.00  0.00    -0.269 N 
ATOM      4  C   UNL d   1     -54.929-100.593 -44.131  0.00  0.00     0.111 A 
ATOM      5  C   UNL d   1     -56.211-100.969 -43.659  0.00  0.00     0.111 A 
ATOM      6  C   UNL d   1     -56.529-100.352 -44.099  0.00  0.00     0.103 A 
ATOM      7  C   UNL d   1     -55.240 -99.982 -44.567  0.00  0.00     0.103 A 
ATOM      8  O   UNL d   1     -55.914 -98.757 -45.433  0.00  0.00    -0.267 OA
ENDROOT
BRANCH   2   9
ATOM      9  C   UNL d   1     -57.198 -99.124 -44.968  0.00  0.00     0.059 A 
ATOM     10  C   UNL d   1     -57.605 -99.131 -44.252  0.00  0.00     0.031 A 
ATOM     11  C   UNL d   1     -58.398 -99.012 -44.236  0.00  0.00     0.116 A 
ATOM     12  C   UNL d   1     -58.813 -98.880 -44.935  0.00  0.00     0.116 A 
ATOM     13  C   UNL d   1     -58.406 -98.873 -45.652  0.00  0.00     0.026 A 
ATOM     14  C   UNL d   1     -57.613 -98.992 -45.668  0.00  0.00     0.007 A 
BRANCH  11  15
ATOM     15  O   UNL d   1     -58.781 -99.026 -43.488  0.00  0.00    -0.326 OA
ATOM     16  C   UNL d   1     -58.326 -99.085 -42.784  0.00  0.00     0.181 C 
ENDBRANCH  11  15
BRANCH  12  17
ATOM     17  O   UNL d   1     -59.634 -98.756 -44.923  0.00  0.00    -0.326 OA
ATOM     18  C   UNL d   1     -59.943 -98.775 -45.680  0.00  0.00     0.181 C 
ENDBRANCH  12  17
ENDBRANCH   2   9
BRANCH   1  19
ATOM     19  S   UNL d   1     -55.054-101.704 -43.243  0.00  0.00     0.271 S 
ATOM     20  O   UNL d   1     -55.132-102.222 -43.890  0.00  0.00    -0.200 OA
ATOM     21  O   UNL d   1     -54.712-102.316 -42.794  0.00  0.00    -0.200 OA
BRANCH  19  22
ATOM     22  C   UNL d   1     -54.971-101.201 -42.595  0.00  0.00     0.104 A 
ATOM     23  C   UNL d   1     -54.816-100.393 -42.697  0.00  0.00     0.014 A 
ATOM     24  C   UNL d   1     -54.731 -99.883 -42.066  0.00  0.00     0.012 A 
ATOM     25  C   UNL d   1     -54.802-100.179 -41.296  0.00  0.00     0.058 A 
ATOM     26  C   UNL d   1     -54.957-100.980 -41.171  0.00  0.00     0.012 A 
ATOM     27 CL   UNL d   1     -54.719 -99.675 -40.648  0.00  0.00    -0.082 Cl
ATOM     28  C   UNL d   1     -55.042-101.496 -41.825  0.00  0.00     0.014 A 
ENDBRANCH  19  22
ENDBRANCH   1  19
TORSDOF 5
ENDMDL
