MODEL 1
REMARK VINA RESULT:     318.3      0.000      0.000
REMARK  6 active torsions:
REMARK  status: ('A' for Active; 'I' for Inactive)
REMARK    1  A    between atoms: C_3  and  S_1 
REMARK    2  A    between atoms: N_5  and  S_1 
REMARK    3  A    between atoms: S_2  and  N_6 
REMARK    4  A    between atoms: C_4  and  S_2 
REMARK    5  A    between atoms: O_25  and  C_15 
REMARK    6  A    between atoms: O_26  and  C_16 
ROOT
ATOM      1  N   UNL d   1     -56.975-100.517 -41.121  0.00  0.00    -0.226 N 
ATOM      2  N   UNL d   1     -56.435-100.290 -42.660  0.00  0.00    -0.226 N 
ATOM      3  C   UNL d   1     -56.607-101.142 -41.516  0.00  0.00     0.111 A 
ATOM      4  C   UNL d   1     -56.806 -99.672 -42.254  0.00  0.00     0.111 A 
ATOM      5  C   UNL d   1     -56.336-101.025 -42.292  0.00  0.00     0.111 A 
ATOM      6  C   UNL d   1     -57.075 -99.783 -41.488  0.00  0.00     0.111 A 
ENDROOT
BRANCH   1   7
ATOM      7  S   UNL d   1     -57.249-100.635 -40.341  0.00  0.00     0.273 S 
ATOM      8  O   UNL d   1     -57.941-101.071 -40.215  0.00  0.00    -0.200 OA
ATOM      9  O   UNL d   1     -56.835-100.322 -39.705  0.00  0.00    -0.200 OA
BRANCH   7  10
ATOM     10  C   UNL d   1     -57.516-100.750 -39.566  0.00  0.00     0.126 A 
ATOM     11  C   UNL d   1     -57.782-101.488 -39.330  0.00  0.00     0.106 A 
ATOM     12  C   UNL d   1     -58.048-101.596 -38.554  0.00  0.00     0.025 A 
ATOM     13  C   UNL d   1     -58.045-100.962 -38.023  0.00  0.00     0.002 A 
ATOM     14  C   UNL d   1     -57.775-100.219 -38.271  0.00  0.00     0.001 A 
ATOM     15  C   UNL d   1     -57.511-100.109 -39.037  0.00  0.00     0.015 A 
ATOM     16  C   UNL d   1     -57.773 -99.582 -37.734  0.00  0.00     0.000 C 
BRANCH  11  17
ATOM     17  O   UNL d   1     -57.785-102.118 -39.857  0.00  0.00    -0.327 OA
ATOM     18  C   UNL d   1     -58.056-102.859 -39.610  0.00  0.00     0.181 C 
ENDBRANCH  11  17
ENDBRANCH   7  10
ENDBRANCH   1   7
BRANCH   2  19
ATOM     19  S   UNL d   1     -56.163-100.178 -43.432  0.00  0.00     0.273 S 
ATOM     20  O   UNL d   1     -56.641-100.395 -44.071  0.00  0.00    -0.200 OA
ATOM     21  O   UNL d   1     -55.419 -99.851 -43.570  0.00  0.00    -0.200 OA
BRANCH  19  22
ATOM     22  C   UNL d   1     -55.920-100.078 -44.216  0.00  0.00     0.126 A 
ATOM     23  C   UNL d   1     -55.197 -99.719 -44.377  0.00  0.00     0.106 A 
ATOM     24  C   UNL d   1     -54.956 -99.620 -45.154  0.00  0.00     0.025 A 
ATOM     25  C   UNL d   1     -55.437 -99.879 -45.772  0.00  0.00     0.002 A 
ATOM     26  C   UNL d   1     -56.161-100.238 -45.607  0.00  0.00     0.001 A 
ATOM     27  C   UNL d   1     -56.397-100.335 -44.820  0.00  0.00     0.015 A 
ATOM     28  C   UNL d   1     -56.645-100.499 -46.214  0.00  0.00     0.000 C 
BRANCH  23  29
ATOM     29  O   UNL d   1     -54.716 -99.460 -43.759  0.00  0.00    -0.327 OA
ATOM     30  C   UNL d   1     -54.963 -98.835 -43.281  0.00  0.00     0.181 C 
ENDBRANCH  23  29
ENDBRANCH  19  22
ENDBRANCH   2  19
TORSDOF 6
ENDMDL
