MODEL 1
REMARK VINA RESULT:      20.5      0.000      0.000
REMARK  5 active torsions:
REMARK  status: ('A' for Active; 'I' for Inactive)
REMARK    1  A    between atoms: C_11  and  N_1 
REMARK    2  A    between atoms: S_10  and  C_2 
REMARK    3  A    between atoms: S_3  and  C_12 
REMARK    4  A    between atoms: C_13  and  C_11 
REMARK    5  A    between atoms: C_12  and  C_13 
ROOT
ATOM      1  N   UNL d   1      13.619  12.730  -3.543  0.00  0.00    -0.295 N 
ATOM      2  C   UNL d   1      13.153  12.612  -4.207  0.00  0.00     0.121 A 
ATOM      3  S   UNL d   1      12.943  13.343  -4.520  0.00  0.00    -0.062 SA
ATOM      4  C   UNL d   1      13.703  13.545  -3.438  0.00  0.00     0.071 A 
ATOM      5  C   UNL d   1      13.281  13.927  -4.048  0.00  0.00     0.047 A 
ATOM      6  C   UNL d   1      14.106  13.990  -2.872  0.00  0.00     0.018 A 
ATOM      7  C   UNL d   1      13.269  14.747  -4.080  0.00  0.00     0.008 A 
ATOM      8  C   UNL d   1      14.089  14.818  -2.911  0.00  0.00     0.002 A 
ATOM      9  C   UNL d   1      13.676  15.191  -3.507  0.00  0.00     0.001 A 
ENDROOT
BRANCH   1  10
ATOM     10  C   UNL d   1      13.941  12.151  -3.073  0.00  0.00     0.082 C 
BRANCH  10  11
ATOM     11  C   UNL d   1      13.889  12.204  -2.243  0.00  0.00     0.034 C 
BRANCH  11  12
ATOM     12  C   UNL d   1      14.418  11.796  -1.766  0.00  0.00     0.119 C 
BRANCH  12  13
ATOM     13  S   UNL d   1      14.344  11.836  -0.943  0.00  0.00     0.140 S 
ATOM     14  O   UNL d   1      14.277  11.876  -0.138  0.00  0.00    -0.591 OA
ATOM     15  O   UNL d   1      13.525  11.781  -1.014  0.00  0.00    -0.591 OA
ATOM     16  O   UNL d   1      15.166  11.892  -0.872  0.00  0.00    -0.591 OA
ENDBRANCH  12  13
ENDBRANCH  11  12
ENDBRANCH  10  11
ENDBRANCH   1  10
BRANCH   2  17
ATOM     17  S   UNL d   1      12.931  11.881  -4.511  0.00  0.00    -0.089 SA
ATOM     18  C   UNL d   1      12.773  11.794  -5.303  0.00  0.00     0.076 C 
ENDBRANCH   2  17
TORSDOF 5
ENDMDL
MODEL 2
REMARK VINA RESULT:      21.0      2.075      3.094
REMARK  5 active torsions:
REMARK  status: ('A' for Active; 'I' for Inactive)
REMARK    1  A    between atoms: C_11  and  N_1 
REMARK    2  A    between atoms: S_10  and  C_2 
REMARK    3  A    between atoms: S_3  and  C_12 
REMARK    4  A    between atoms: C_13  and  C_11 
REMARK    5  A    between atoms: C_12  and  C_13 
ROOT
ATOM      1  N   UNL d   1      14.458  12.751  -1.755  0.00  0.00    -0.295 N 
ATOM      2  C   UNL d   1      14.103  12.148  -1.326  0.00  0.00     0.121 A 
ATOM      3  S   UNL d   1      13.540  11.779  -1.799  0.00  0.00    -0.062 SA
ATOM      4  C   UNL d   1      14.113  12.760  -2.505  0.00  0.00     0.071 A 
ATOM      5  C   UNL d   1      13.540  12.153  -2.532  0.00  0.00     0.047 A 
ATOM      6  C   UNL d   1      14.243  13.237  -3.166  0.00  0.00     0.018 A 
ATOM      7  C   UNL d   1      13.108  12.036  -3.220  0.00  0.00     0.008 A 
ATOM      8  C   UNL d   1      13.802  13.111  -3.857  0.00  0.00     0.002 A 
ATOM      9  C   UNL d   1      13.242  12.519  -3.883  0.00  0.00     0.001 A 
ENDROOT
BRANCH   1  10
ATOM     10  C   UNL d   1      15.042  13.248  -1.490  0.00  0.00     0.082 C 
BRANCH  10  11
ATOM     11  C   UNL d   1      14.867  14.040  -1.296  0.00  0.00     0.034 C 
BRANCH  11  12
ATOM     12  C   UNL d   1      15.294  14.430  -0.714  0.00  0.00     0.119 C 
BRANCH  12  13
ATOM     13  S   UNL d   1      15.198  15.245  -0.611  0.00  0.00     0.140 S 
ATOM     14  O   UNL d   1      15.107  16.042  -0.505  0.00  0.00    -0.591 OA
ATOM     15  O   UNL d   1      14.625  15.252  -1.203  0.00  0.00    -0.591 OA
ATOM     16  O   UNL d   1      15.773  15.237  -0.016  0.00  0.00    -0.591 OA
ENDBRANCH  12  13
ENDBRANCH  11  12
ENDBRANCH  10  11
ENDBRANCH   1  10
BRANCH   2  17
ATOM     17  S   UNL d   1      14.281  11.945  -0.550  0.00  0.00    -0.089 SA
ATOM     18  C   UNL d   1      13.687  11.801  -0.014  0.00  0.00     0.076 C 
ENDBRANCH   2  17
TORSDOF 5
ENDMDL
MODEL 3
REMARK VINA RESULT:      21.5      0.861      2.101
REMARK  5 active torsions:
REMARK  status: ('A' for Active; 'I' for Inactive)
REMARK    1  A    between atoms: C_11  and  N_1 
REMARK    2  A    between atoms: S_10  and  C_2 
REMARK    3  A    between atoms: S_3  and  C_12 
REMARK    4  A    between atoms: C_13  and  C_11 
REMARK    5  A    between atoms: C_12  and  C_13 
ROOT
ATOM      1  N   UNL d   1      13.646  13.233  -3.061  0.00  0.00    -0.295 N 
ATOM      2  C   UNL d   1      13.870  13.975  -3.327  0.00  0.00     0.121 A 
ATOM      3  S   UNL d   1      13.711  14.030  -4.133  0.00  0.00    -0.062 SA
ATOM      4  C   UNL d   1      13.344  12.816  -3.706  0.00  0.00     0.071 A 
ATOM      5  C   UNL d   1      13.385  13.314  -4.375  0.00  0.00     0.047 A 
ATOM      6  C   UNL d   1      13.038  12.053  -3.776  0.00  0.00     0.018 A 
ATOM      7  C   UNL d   1      13.118  13.039  -5.101  0.00  0.00     0.008 A 
ATOM      8  C   UNL d   1      12.771  11.783  -4.513  0.00  0.00     0.002 A 
ATOM      9  C   UNL d   1      12.810  12.269  -5.166  0.00  0.00     0.001 A 
ENDROOT
BRANCH   1  10
ATOM     10  C   UNL d   1      13.710  12.957  -2.300  0.00  0.00     0.082 C 
BRANCH  10  11
ATOM     11  C   UNL d   1      14.300  12.402  -2.101  0.00  0.00     0.034 C 
BRANCH  11  12
ATOM     12  C   UNL d   1      14.151  11.819  -1.543  0.00  0.00     0.119 C 
BRANCH  12  13
ATOM     13  S   UNL d   1      14.549  11.832  -0.819  0.00  0.00     0.140 S 
ATOM     14  O   UNL d   1      14.935  11.846  -0.107  0.00  0.00    -0.591 OA
ATOM     15  O   UNL d   1      15.271  11.821  -1.215  0.00  0.00    -0.591 OA
ATOM     16  O   UNL d   1      13.824  11.844  -0.420  0.00  0.00    -0.591 OA
ENDBRANCH  12  13
ENDBRANCH  11  12
ENDBRANCH  10  11
ENDBRANCH   1  10
BRANCH   2  17
ATOM     17  S   UNL d   1      14.199  14.570  -2.865  0.00  0.00    -0.089 SA
ATOM     18  C   UNL d   1      14.202  15.340  -3.124  0.00  0.00     0.076 C 
ENDBRANCH   2  17
TORSDOF 5
ENDMDL
