MODEL 1
REMARK VINA RESULT:      -4.8      0.000      0.000
REMARK  3 active torsions:
REMARK  status: ('A' for Active; 'I' for Inactive)
REMARK    1  A    between atoms: C_6  and  N_1 
REMARK    2  A    between atoms: C_8  and  C_6 
REMARK    3  A    between atoms: O_15  and  C_9 
ROOT
ATOM      1  N   UNL d   1      56.539  -0.192  31.909  0.00  0.00    -0.268 N 
ATOM      2  C   UNL d   1      56.636  -1.010  31.848  0.00  0.00     0.296 A 
ATOM      3  S   UNL d   1      56.292  -1.357  32.525  0.00  0.00    -0.025 SA
ATOM      4  C   UNL d   1      56.138  -0.033  32.617  0.00  0.00     0.073 A 
ATOM      5  C   UNL d   1      55.988  -0.742  32.992  0.00  0.00     0.050 A 
ATOM      6  O   UNL d   1      57.006  -1.405  31.231  0.00  0.00    -0.259 OA
ATOM      7  C   UNL d   1      55.894   0.676  32.961  0.00  0.00     0.018 A 
ATOM      8  C   UNL d   1      55.589  -0.760  33.720  0.00  0.00     0.008 A 
ATOM      9  C   UNL d   1      55.497   0.667  33.685  0.00  0.00     0.002 A 
ATOM     10  C   UNL d   1      55.344  -0.055  34.067  0.00  0.00     0.001 A 
ENDROOT
BRANCH   1  11
ATOM     11  C   UNL d   1      56.795   0.371  31.363  0.00  0.00     0.084 C 
BRANCH  11  12
ATOM     12  C   UNL d   1      57.596   0.445  31.192  0.00  0.00     0.018 A 
ATOM     13  C   UNL d   1      57.855   0.358  30.413  0.00  0.00     0.004 A 
ATOM     14  C   UNL d   1      58.653   0.431  30.237  0.00  0.00     0.024 A 
ATOM     15  C   UNL d   1      59.201   0.591  30.837  0.00  0.00     0.094 A 
ATOM     16  C   UNL d   1      58.934   0.677  31.620  0.00  0.00     0.024 A 
ATOM     17  C   UNL d   1      58.133   0.604  31.791  0.00  0.00     0.004 A 
BRANCH  15  18
ATOM     18  O   UNL d   1      60.006   0.671  30.701  0.00  0.00    -0.328 OA
ATOM     19  C   UNL d   1      60.332   0.408  29.995  0.00  0.00     0.181 C 
ENDBRANCH  15  18
ENDBRANCH  11  12
ENDBRANCH   1  11
TORSDOF 3
ENDMDL
MODEL 2
REMARK VINA RESULT:      -4.1      9.032      9.810
REMARK  3 active torsions:
REMARK  status: ('A' for Active; 'I' for Inactive)
REMARK    1  A    between atoms: C_6  and  N_1 
REMARK    2  A    between atoms: C_8  and  C_6 
REMARK    3  A    between atoms: O_15  and  C_9 
ROOT
ATOM      1  N   UNL d   1      60.053  -8.745  35.497  0.00  0.00    -0.268 N 
ATOM      2  C   UNL d   1      60.756  -8.916  35.895  0.00  0.00     0.296 A 
ATOM      3  S   UNL d   1      61.009  -8.216  36.275  0.00  0.00    -0.025 SA
ATOM      4  C   UNL d   1      59.872  -7.946  35.629  0.00  0.00     0.073 A 
ATOM      5  C   UNL d   1      60.454  -7.625  36.103  0.00  0.00     0.050 A 
ATOM      6  O   UNL d   1      61.133  -9.645  35.910  0.00  0.00    -0.259 OA
ATOM      7  C   UNL d   1      59.243  -7.478  35.372  0.00  0.00     0.018 A 
ATOM      8  C   UNL d   1      60.422  -6.827  36.330  0.00  0.00     0.008 A 
ATOM      9  C   UNL d   1      59.204  -6.683  35.594  0.00  0.00     0.002 A 
ATOM     10  C   UNL d   1      59.796  -6.356  36.075  0.00  0.00     0.001 A 
ENDROOT
BRANCH   1  11
ATOM     11  C   UNL d   1      59.607  -9.273  35.047  0.00  0.00     0.084 C 
BRANCH  11  12
ATOM     12  C   UNL d   1      59.800  -9.408  34.260  0.00  0.00     0.018 A 
ATOM     13  C   UNL d   1      59.218  -9.330  33.679  0.00  0.00     0.004 A 
ATOM     14  C   UNL d   1      59.406  -9.464  32.892  0.00  0.00     0.024 A 
ATOM     15  C   UNL d   1      60.176  -9.676  32.675  0.00  0.00     0.094 A 
ATOM     16  C   UNL d   1      60.758  -9.753  33.264  0.00  0.00     0.024 A 
ATOM     17  C   UNL d   1      60.565  -9.618  34.052  0.00  0.00     0.004 A 
BRANCH  15  18
ATOM     18  O   UNL d   1      60.402  -9.818  31.899  0.00  0.00    -0.328 OA
ATOM     19  C   UNL d   1      59.842  -9.812  31.299  0.00  0.00     0.181 C 
ENDBRANCH  15  18
ENDBRANCH  11  12
ENDBRANCH   1  11
TORSDOF 3
ENDMDL
MODEL 3
REMARK VINA RESULT:      -4.0      1.648      4.107
REMARK  3 active torsions:
REMARK  status: ('A' for Active; 'I' for Inactive)
REMARK    1  A    between atoms: C_6  and  N_1 
REMARK    2  A    between atoms: C_8  and  C_6 
REMARK    3  A    between atoms: O_15  and  C_9 
ROOT
ATOM      1  N   UNL d   1      58.651   0.218  29.917  0.00  0.00    -0.268 N 
ATOM      2  C   UNL d   1      58.502  -0.325  29.313  0.00  0.00     0.296 A 
ATOM      3  S   UNL d   1      59.236  -0.635  29.064  0.00  0.00    -0.025 SA
ATOM      4  C   UNL d   1      59.471   0.244  30.041  0.00  0.00     0.073 A 
ATOM      5  C   UNL d   1      59.826  -0.275  29.522  0.00  0.00     0.050 A 
ATOM      6  O   UNL d   1      57.762  -0.520  29.015  0.00  0.00    -0.259 OA
ATOM      7  C   UNL d   1      59.930   0.682  30.568  0.00  0.00     0.018 A 
ATOM      8  C   UNL d   1      60.651  -0.369  29.517  0.00  0.00     0.008 A 
ATOM      9  C   UNL d   1      60.751   0.594  30.570  0.00  0.00     0.002 A 
ATOM     10  C   UNL d   1      61.114   0.066  30.041  0.00  0.00     0.001 A 
ENDROOT
BRANCH   1  11
ATOM     11  C   UNL d   1      58.086   0.659  30.327  0.00  0.00     0.084 C 
BRANCH  11  12
ATOM     12  C   UNL d   1      57.699   0.332  30.974  0.00  0.00     0.018 A 
ATOM     13  C   UNL d   1      57.796   0.671  31.720  0.00  0.00     0.004 A 
ATOM     14  C   UNL d   1      57.411   0.348  32.369  0.00  0.00     0.024 A 
ATOM     15  C   UNL d   1      56.926  -0.317  32.280  0.00  0.00     0.094 A 
ATOM     16  C   UNL d   1      56.832  -0.654  31.526  0.00  0.00     0.024 A 
ATOM     17  C   UNL d   1      57.220  -0.327  30.879  0.00  0.00     0.004 A 
BRANCH  15  18
ATOM     18  O   UNL d   1      56.526  -0.667  32.905  0.00  0.00    -0.328 OA
ATOM     19  C   UNL d   1      55.945  -0.250  33.308  0.00  0.00     0.181 C 
ENDBRANCH  15  18
ENDBRANCH  11  12
ENDBRANCH   1  11
TORSDOF 3
ENDMDL
MODEL 4
REMARK VINA RESULT:      -3.9      1.516      4.116
REMARK  3 active torsions:
REMARK  status: ('A' for Active; 'I' for Inactive)
REMARK    1  A    between atoms: C_6  and  N_1 
REMARK    2  A    between atoms: C_8  and  C_6 
REMARK    3  A    between atoms: O_15  and  C_9 
ROOT
ATOM      1  N   UNL d   1      58.394   0.476  30.623  0.00  0.00    -0.268 N 
ATOM      2  C   UNL d   1      59.074   0.476  31.092  0.00  0.00     0.296 A 
ATOM      3  S   UNL d   1      59.713   0.235  30.611  0.00  0.00    -0.025 SA
ATOM      4  C   UNL d   1      58.610   0.237  29.858  0.00  0.00     0.073 A 
ATOM      5  C   UNL d   1      59.412   0.090  29.852  0.00  0.00     0.050 A 
ATOM      6  O   UNL d   1      59.108   0.678  31.887  0.00  0.00    -0.259 OA
ATOM      7  C   UNL d   1      58.166   0.137  29.171  0.00  0.00     0.018 A 
ATOM      8  C   UNL d   1      59.791  -0.160  29.157  0.00  0.00     0.008 A 
ATOM      9  C   UNL d   1      58.534  -0.111  28.475  0.00  0.00     0.002 A 
ATOM     10  C   UNL d   1      59.352  -0.261  28.468  0.00  0.00     0.001 A 
ENDROOT
BRANCH   1  11
ATOM     11  C   UNL d   1      57.633   0.678  30.869  0.00  0.00     0.084 C 
BRANCH  11  12
ATOM     12  C   UNL d   1      57.239   0.208  31.416  0.00  0.00     0.018 A 
ATOM     13  C   UNL d   1      57.028   0.527  32.148  0.00  0.00     0.004 A 
ATOM     14  C   UNL d   1      56.634   0.062  32.698  0.00  0.00     0.024 A 
ATOM     15  C   UNL d   1      56.447  -0.726  32.523  0.00  0.00     0.094 A 
ATOM     16  C   UNL d   1      56.662  -1.041  31.784  0.00  0.00     0.024 A 
ATOM     17  C   UNL d   1      57.056  -0.571  31.237  0.00  0.00     0.004 A 
BRANCH  15  18
ATOM     18  O   UNL d   1      56.055  -1.221  33.046  0.00  0.00    -0.328 OA
ATOM     19  C   UNL d   1      55.357  -0.975  33.402  0.00  0.00     0.181 C 
ENDBRANCH  15  18
ENDBRANCH  11  12
ENDBRANCH   1  11
TORSDOF 3
ENDMDL
MODEL 5
REMARK VINA RESULT:      -3.9      2.241      4.279
REMARK  3 active torsions:
REMARK  status: ('A' for Active; 'I' for Inactive)
REMARK    1  A    between atoms: C_6  and  N_1 
REMARK    2  A    between atoms: C_8  and  C_6 
REMARK    3  A    between atoms: O_15  and  C_9 
ROOT
ATOM      1  N   UNL d   1      58.909  -0.520  29.471  0.00  0.00    -0.268 N 
ATOM      2  C   UNL d   1      59.628  -0.114  29.501  0.00  0.00     0.296 A 
ATOM      3  S   UNL d   1      60.235  -0.657  29.317  0.00  0.00    -0.025 SA
ATOM      4  C   UNL d   1      59.069  -1.308  29.269  0.00  0.00     0.073 A 
ATOM      5  C   UNL d   1      59.876  -1.392  29.176  0.00  0.00     0.050 A 
ATOM      6  O   UNL d   1      59.722   0.682  29.681  0.00  0.00    -0.259 OA
ATOM      7  C   UNL d   1      58.572  -1.957  29.161  0.00  0.00     0.018 A 
ATOM      8  C   UNL d   1      60.204  -2.126  28.972  0.00  0.00     0.008 A 
ATOM      9  C   UNL d   1      58.890  -2.691  28.958  0.00  0.00     0.002 A 
ATOM     10  C   UNL d   1      59.711  -2.776  28.863  0.00  0.00     0.001 A 
ENDROOT
BRANCH   1  11
ATOM     11  C   UNL d   1      58.163  -0.200  29.614  0.00  0.00     0.084 C 
BRANCH  11  12
ATOM     12  C   UNL d   1      57.904  -0.089  30.387  0.00  0.00     0.018 A 
ATOM     13  C   UNL d   1      57.402  -0.646  30.731  0.00  0.00     0.004 A 
ATOM     14  C   UNL d   1      57.141  -0.539  31.502  0.00  0.00     0.024 A 
ATOM     15  C   UNL d   1      57.378   0.124  31.937  0.00  0.00     0.094 A 
ATOM     16  C   UNL d   1      57.885   0.682  31.584  0.00  0.00     0.024 A 
ATOM     17  C   UNL d   1      58.144   0.571  30.812  0.00  0.00     0.004 A 
BRANCH  15  18
ATOM     18  O   UNL d   1      57.139   0.265  32.709  0.00  0.00    -0.328 OA
ATOM     19  C   UNL d   1      56.429  -0.043  32.982  0.00  0.00     0.181 C 
ENDBRANCH  15  18
ENDBRANCH  11  12
ENDBRANCH   1  11
TORSDOF 3
ENDMDL
MODEL 6
REMARK VINA RESULT:      -3.7      9.147     10.215
REMARK  3 active torsions:
REMARK  status: ('A' for Active; 'I' for Inactive)
REMARK    1  A    between atoms: C_6  and  N_1 
REMARK    2  A    between atoms: C_8  and  C_6 
REMARK    3  A    between atoms: O_15  and  C_9 
ROOT
ATOM      1  N   UNL d   1      59.693  -9.815  33.590  0.00  0.00    -0.268 N 
ATOM      2  C   UNL d   1      58.881  -9.815  33.439  0.00  0.00     0.296 A 
ATOM      3  S   UNL d   1      58.777  -9.811  32.610  0.00  0.00    -0.025 SA
ATOM      4  C   UNL d   1      60.089  -9.812  32.861  0.00  0.00     0.073 A 
ATOM      5  C   UNL d   1      59.532  -9.809  32.265  0.00  0.00     0.050 A 
ATOM      6  O   UNL d   1      58.287  -9.817  34.006  0.00  0.00    -0.259 OA
ATOM      7  C   UNL d   1      60.893  -9.811  32.676  0.00  0.00     0.018 A 
ATOM      8  C   UNL d   1      59.765  -9.806  31.469  0.00  0.00     0.008 A 
ATOM      9  C   UNL d   1      61.133  -9.807  31.886  0.00  0.00     0.002 A 
ATOM     10  C   UNL d   1      60.566  -9.805  31.279  0.00  0.00     0.001 A 
ENDROOT
BRANCH   1  11
ATOM     11  C   UNL d   1      60.050  -9.818  34.334  0.00  0.00     0.084 C 
BRANCH  11  12
ATOM     12  C   UNL d   1      60.027  -9.144  34.804  0.00  0.00     0.018 A 
ATOM     13  C   UNL d   1      60.632  -8.585  34.742  0.00  0.00     0.004 A 
ATOM     14  C   UNL d   1      60.614  -7.911  35.210  0.00  0.00     0.024 A 
ATOM     15  C   UNL d   1      59.993  -7.788  35.743  0.00  0.00     0.094 A 
ATOM     16  C   UNL d   1      59.387  -8.354  35.801  0.00  0.00     0.024 A 
ATOM     17  C   UNL d   1      59.410  -9.028  35.331  0.00  0.00     0.004 A 
BRANCH  15  18
ATOM     18  O   UNL d   1      59.941  -7.127  36.227  0.00  0.00    -0.328 OA
ATOM     19  C   UNL d   1      59.621  -6.429  35.937  0.00  0.00     0.181 C 
ENDBRANCH  15  18
ENDBRANCH  11  12
ENDBRANCH   1  11
TORSDOF 3
ENDMDL
MODEL 7
REMARK VINA RESULT:      -3.5      1.405      1.808
REMARK  3 active torsions:
REMARK  status: ('A' for Active; 'I' for Inactive)
REMARK    1  A    between atoms: C_6  and  N_1 
REMARK    2  A    between atoms: C_8  and  C_6 
REMARK    3  A    between atoms: O_15  and  C_9 
ROOT
ATOM      1  N   UNL d   1      56.707   0.608  32.764  0.00  0.00    -0.268 N 
ATOM      2  C   UNL d   1      57.381   0.607  33.241  0.00  0.00     0.296 A 
ATOM      3  S   UNL d   1      57.130   0.520  34.033  0.00  0.00    -0.025 SA
ATOM      4  C   UNL d   1      56.044   0.523  33.256  0.00  0.00     0.073 A 
ATOM      5  C   UNL d   1      56.302   0.469  34.028  0.00  0.00     0.050 A 
ATOM      6  O   UNL d   1      58.155   0.679  32.979  0.00  0.00    -0.259 OA
ATOM      7  C   UNL d   1      55.238   0.489  33.086  0.00  0.00     0.018 A 
ATOM      8  C   UNL d   1      55.759   0.380  34.650  0.00  0.00     0.008 A 
ATOM      9  C   UNL d   1      54.691   0.400  33.698  0.00  0.00     0.002 A 
ATOM     10  C   UNL d   1      54.954   0.345  34.485  0.00  0.00     0.001 A 
ENDROOT
BRANCH   1  11
ATOM     11  C   UNL d   1      56.692   0.682  31.942  0.00  0.00     0.084 C 
BRANCH  11  12
ATOM     12  C   UNL d   1      57.054   0.113  31.472  0.00  0.00     0.018 A 
ATOM     13  C   UNL d   1      56.821  -0.676  31.536  0.00  0.00     0.004 A 
ATOM     14  C   UNL d   1      57.179  -1.247  31.068  0.00  0.00     0.024 A 
ATOM     15  C   UNL d   1      57.774  -1.036  30.531  0.00  0.00     0.094 A 
ATOM     16  C   UNL d   1      58.004  -0.240  30.472  0.00  0.00     0.024 A 
ATOM     17  C   UNL d   1      57.642   0.329  30.942  0.00  0.00     0.004 A 
BRANCH  15  18
ATOM     18  O   UNL d   1      58.155  -1.578  30.047  0.00  0.00    -0.328 OA
ATOM     19  C   UNL d   1      58.905  -1.414  29.755  0.00  0.00     0.181 C 
ENDBRANCH  15  18
ENDBRANCH  11  12
ENDBRANCH   1  11
TORSDOF 3
ENDMDL
MODEL 8
REMARK VINA RESULT:      -3.3      2.358      3.355
REMARK  3 active torsions:
REMARK  status: ('A' for Active; 'I' for Inactive)
REMARK    1  A    between atoms: C_6  and  N_1 
REMARK    2  A    between atoms: C_8  and  C_6 
REMARK    3  A    between atoms: O_15  and  C_9 
ROOT
ATOM      1  N   UNL d   1      58.662  -0.046  30.082  0.00  0.00    -0.268 N 
ATOM      2  C   UNL d   1      59.349   0.371  30.273  0.00  0.00     0.296 A 
ATOM      3  S   UNL d   1      59.252   0.680  31.042  0.00  0.00    -0.025 SA
ATOM      4  C   UNL d   1      58.144   0.004  30.728  0.00  0.00     0.073 A 
ATOM      5  C   UNL d   1      58.503   0.446  31.313  0.00  0.00     0.050 A 
ATOM      6  O   UNL d   1      60.005   0.462  29.788  0.00  0.00    -0.259 OA
ATOM      7  C   UNL d   1      57.388  -0.303  30.849  0.00  0.00     0.018 A 
ATOM      8  C   UNL d   1      58.115   0.592  32.032  0.00  0.00     0.008 A 
ATOM      9  C   UNL d   1      56.995  -0.163  31.561  0.00  0.00     0.002 A 
ATOM     10  C   UNL d   1      57.361   0.287  32.156  0.00  0.00     0.001 A 
ENDROOT
BRANCH   1  11
ATOM     11  C   UNL d   1      58.514  -0.444  29.375  0.00  0.00     0.084 C 
BRANCH  11  12
ATOM     12  C   UNL d   1      58.903  -1.149  29.209  0.00  0.00     0.018 A 
ATOM     13  C   UNL d   1      58.532  -1.867  29.375  0.00  0.00     0.004 A 
ATOM     14  C   UNL d   1      58.916  -2.573  29.211  0.00  0.00     0.024 A 
ATOM     15  C   UNL d   1      59.676  -2.570  28.881  0.00  0.00     0.094 A 
ATOM     16  C   UNL d   1      60.045  -1.843  28.716  0.00  0.00     0.024 A 
ATOM     17  C   UNL d   1      59.656  -1.138  28.882  0.00  0.00     0.004 A 
BRANCH  15  18
ATOM     18  O   UNL d   1      60.091  -3.255  28.704  0.00  0.00    -0.328 OA
ATOM     19  C   UNL d   1      60.559  -3.613  29.276  0.00  0.00     0.181 C 
ENDBRANCH  15  18
ENDBRANCH  11  12
ENDBRANCH   1  11
TORSDOF 3
ENDMDL
