MODEL 1
REMARK VINA RESULT:      -5.6      0.000      0.000
REMARK  7 active torsions:
REMARK  status: ('A' for Active; 'I' for Inactive)
REMARK    1  A    between atoms: C_7  and  S_1 
REMARK    2  A    between atoms: N_11  and  S_1 
REMARK    3  A    between atoms: C_5  and  C_2 
REMARK    4  A    between atoms: C_6  and  C_15 
REMARK    5  A    between atoms: C_18  and  N_11 
REMARK    6  A    between atoms: C_15  and  C_18 
REMARK    7  A    between atoms: O_21  and  C_17 
ROOT
ATOM      1  C   UNL d   1     -46.923  12.344  23.228  0.00  0.00     0.114 C 
ENDROOT
BRANCH   1   2
ATOM      2  C   UNL d   1     -47.577  12.175  23.698  0.00  0.00     0.041 C 
BRANCH   2   3
ATOM      3  C   UNL d   1     -48.346  12.260  23.399  0.00  0.00     0.090 A 
ATOM      4  N   UNL d   1     -48.676  12.969  23.117  0.00  0.00    -0.238 NA
ATOM      5  C   UNL d   1     -49.453  12.802  22.873  0.00  0.00     0.112 A 
ATOM      6  S   UNL d   1     -49.602  11.998  23.003  0.00  0.00    -0.066 SA
ATOM      7  C   UNL d   1     -48.914  11.661  23.329  0.00  0.00     0.056 A 
BRANCH   5   8
ATOM      8  C   UNL d   1     -49.997  13.348  22.551  0.00  0.00     0.043 A 
ATOM      9  C   UNL d   1     -50.312  13.945  23.026  0.00  0.00     0.101 A 
ATOM     10  N   UNL d   1     -50.843  14.479  22.711  0.00  0.00    -0.242 NA
ATOM     11  C   UNL d   1     -51.063  14.420  21.922  0.00  0.00     0.099 A 
ATOM     12  C   UNL d   1     -50.740  13.810  21.440  0.00  0.00     0.021 A 
ATOM     13  C   UNL d   1     -50.207  13.275  21.757  0.00  0.00     0.005 A 
ENDBRANCH   5   8
ENDBRANCH   2   3
ENDBRANCH   1   2
BRANCH   1  14
ATOM     14  N   UNL d   1     -46.148  12.289  23.555  0.00  0.00    -0.157 NA
BRANCH  14  15
ATOM     15  S   UNL d   1     -45.491  12.365  23.055  0.00  0.00     0.285 S 
ATOM     16  O   UNL d   1     -45.297  11.565  23.199  0.00  0.00    -0.198 OA
ATOM     17  O   UNL d   1     -45.681  13.162  22.911  0.00  0.00    -0.198 OA
BRANCH  15  18
ATOM     18  C   UNL d   1     -44.834  12.431  22.559  0.00  0.00     0.105 A 
ATOM     19  C   UNL d   1     -44.213  11.898  22.643  0.00  0.00     0.015 A 
ATOM     20  C   UNL d   1     -43.548  11.962  22.143  0.00  0.00     0.025 A 
ATOM     21  C   UNL d   1     -43.516  12.552  21.575  0.00  0.00     0.094 A 
ATOM     22  C   UNL d   1     -44.140  13.080  21.498  0.00  0.00     0.025 A 
ATOM     23  C   UNL d   1     -44.803  13.030  21.982  0.00  0.00     0.015 A 
BRANCH  21  24
ATOM     24  O   UNL d   1     -42.859  12.618  21.078  0.00  0.00    -0.328 OA
ATOM     25  C   UNL d   1     -42.383  13.291  21.117  0.00  0.00     0.181 C 
ENDBRANCH  21  24
ENDBRANCH  15  18
ENDBRANCH  14  15
ENDBRANCH   1  14
TORSDOF 7
ENDMDL
MODEL 2
REMARK VINA RESULT:      -5.0      7.760      9.544
REMARK  7 active torsions:
REMARK  status: ('A' for Active; 'I' for Inactive)
REMARK    1  A    between atoms: C_7  and  S_1 
REMARK    2  A    between atoms: N_11  and  S_1 
REMARK    3  A    between atoms: C_5  and  C_2 
REMARK    4  A    between atoms: C_6  and  C_15 
REMARK    5  A    between atoms: C_18  and  N_11 
REMARK    6  A    between atoms: C_15  and  C_18 
REMARK    7  A    between atoms: O_21  and  C_17 
ROOT
ATOM      1  C   UNL d   1     -39.919  14.958  18.919  0.00  0.00     0.114 C 
ENDROOT
BRANCH   1   2
ATOM      2  C   UNL d   1     -40.180  15.368  19.583  0.00  0.00     0.041 C 
BRANCH   2   3
ATOM      3  C   UNL d   1     -40.172  15.011  20.331  0.00  0.00     0.090 A 
ATOM      4  N   UNL d   1     -39.507  14.942  20.824  0.00  0.00    -0.238 NA
ATOM      5  C   UNL d   1     -39.748  14.549  21.516  0.00  0.00     0.112 A 
ATOM      6  S   UNL d   1     -40.555  14.376  21.451  0.00  0.00    -0.066 SA
ATOM      7  C   UNL d   1     -40.819  14.663  20.715  0.00  0.00     0.056 A 
BRANCH   5   8
ATOM      8  C   UNL d   1     -39.263  14.357  22.169  0.00  0.00     0.043 A 
ATOM      9  C   UNL d   1     -38.951  14.958  22.641  0.00  0.00     0.101 A 
ATOM     10  N   UNL d   1     -38.478  14.771  23.279  0.00  0.00    -0.242 NA
ATOM     11  C   UNL d   1     -38.313  13.984  23.449  0.00  0.00     0.099 A 
ATOM     12  C   UNL d   1     -38.632  13.374  22.965  0.00  0.00     0.021 A 
ATOM     13  C   UNL d   1     -39.107  13.563  22.325  0.00  0.00     0.005 A 
ENDBRANCH   5   8
ENDBRANCH   2   3
ENDBRANCH   1   2
BRANCH   1  14
ATOM     14  N   UNL d   1     -39.811  15.368  18.191  0.00  0.00    -0.157 NA
BRANCH  14  15
ATOM     15  S   UNL d   1     -39.428  14.985  17.563  0.00  0.00     0.285 S 
ATOM     16  O   UNL d   1     -40.151  14.625  17.349  0.00  0.00    -0.198 OA
ATOM     17  O   UNL d   1     -38.707  15.341  17.773  0.00  0.00    -0.198 OA
BRANCH  15  18
ATOM     18  C   UNL d   1     -39.055  14.599  16.935  0.00  0.00     0.105 A 
ATOM     19  C   UNL d   1     -38.981  14.987  16.214  0.00  0.00     0.015 A 
ATOM     20  C   UNL d   1     -38.604  14.600  15.577  0.00  0.00     0.025 A 
ATOM     21  C   UNL d   1     -38.313  13.840  15.673  0.00  0.00     0.094 A 
ATOM     22  C   UNL d   1     -38.391  13.459  16.396  0.00  0.00     0.025 A 
ATOM     23  C   UNL d   1     -38.760  13.827  17.034  0.00  0.00     0.015 A 
BRANCH  21  24
ATOM     24  O   UNL d   1     -37.940  13.454  15.045  0.00  0.00    -0.328 OA
ATOM     25  C   UNL d   1     -38.084  13.697  14.270  0.00  0.00     0.181 C 
ENDBRANCH  21  24
ENDBRANCH  15  18
ENDBRANCH  14  15
ENDBRANCH   1  14
TORSDOF 7
ENDMDL
MODEL 3
REMARK VINA RESULT:      -4.8      3.036      6.935
REMARK  7 active torsions:
REMARK  status: ('A' for Active; 'I' for Inactive)
REMARK    1  A    between atoms: C_7  and  S_1 
REMARK    2  A    between atoms: N_11  and  S_1 
REMARK    3  A    between atoms: C_5  and  C_2 
REMARK    4  A    between atoms: C_6  and  C_15 
REMARK    5  A    between atoms: C_18  and  N_11 
REMARK    6  A    between atoms: C_15  and  C_18 
REMARK    7  A    between atoms: O_21  and  C_17 
ROOT
ATOM      1  C   UNL d   1     -43.117  13.123  21.390  0.00  0.00     0.114 C 
ENDROOT
BRANCH   1   2
ATOM      2  C   UNL d   1     -42.359  12.930  21.135  0.00  0.00     0.041 C 
BRANCH   2   3
ATOM      3  C   UNL d   1     -41.829  13.521  20.895  0.00  0.00     0.090 A 
ATOM      4  N   UNL d   1     -41.623  13.691  20.108  0.00  0.00    -0.238 NA
ATOM      5  C   UNL d   1     -41.080  14.320  20.123  0.00  0.00     0.112 A 
ATOM      6  S   UNL d   1     -40.951  14.537  20.911  0.00  0.00    -0.066 SA
ATOM      7  C   UNL d   1     -41.417  14.041  21.391  0.00  0.00     0.056 A 
BRANCH   5   8
ATOM      8  C   UNL d   1     -40.721  14.677  19.458  0.00  0.00     0.043 A 
ATOM      9  C   UNL d   1     -40.692  15.500  19.398  0.00  0.00     0.101 A 
ATOM     10  N   UNL d   1     -40.341  15.849  18.749  0.00  0.00    -0.242 NA
ATOM     11  C   UNL d   1     -40.018  15.379  18.157  0.00  0.00     0.099 A 
ATOM     12  C   UNL d   1     -40.050  14.541  18.221  0.00  0.00     0.021 A 
ATOM     13  C   UNL d   1     -40.402  14.192  18.873  0.00  0.00     0.005 A 
ENDBRANCH   5   8
ENDBRANCH   2   3
ENDBRANCH   1   2
BRANCH   1  14
ATOM     14  N   UNL d   1     -43.688  12.514  21.501  0.00  0.00    -0.157 NA
BRANCH  14  15
ATOM     15  S   UNL d   1     -44.403  12.693  21.881  0.00  0.00     0.285 S 
ATOM     16  O   UNL d   1     -44.151  12.256  22.547  0.00  0.00    -0.198 OA
ATOM     17  O   UNL d   1     -44.657  13.129  21.220  0.00  0.00    -0.198 OA
BRANCH  15  18
ATOM     18  C   UNL d   1     -45.112  12.867  22.268  0.00  0.00     0.105 A 
ATOM     19  C   UNL d   1     -45.481  12.279  22.711  0.00  0.00     0.015 A 
ATOM     20  C   UNL d   1     -46.197  12.452  23.103  0.00  0.00     0.025 A 
ATOM     21  C   UNL d   1     -46.528  13.199  23.045  0.00  0.00     0.094 A 
ATOM     22  C   UNL d   1     -46.154  13.779  22.601  0.00  0.00     0.025 A 
ATOM     23  C   UNL d   1     -45.447  13.626  22.208  0.00  0.00     0.015 A 
BRANCH  21  24
ATOM     24  O   UNL d   1     -47.237  13.373  23.432  0.00  0.00    -0.328 OA
ATOM     25  C   UNL d   1     -47.956  13.214  23.060  0.00  0.00     0.181 C 
ENDBRANCH  21  24
ENDBRANCH  15  18
ENDBRANCH  14  15
ENDBRANCH   1  14
TORSDOF 7
ENDMDL
MODEL 4
REMARK VINA RESULT:      -4.6      8.152      9.561
REMARK  7 active torsions:
REMARK  status: ('A' for Active; 'I' for Inactive)
REMARK    1  A    between atoms: C_7  and  S_1 
REMARK    2  A    between atoms: N_11  and  S_1 
REMARK    3  A    between atoms: C_5  and  C_2 
REMARK    4  A    between atoms: C_6  and  C_15 
REMARK    5  A    between atoms: C_18  and  N_11 
REMARK    6  A    between atoms: C_15  and  C_18 
REMARK    7  A    between atoms: O_21  and  C_17 
ROOT
ATOM      1  C   UNL d   1     -40.115  15.719  19.647  0.00  0.00     0.114 C 
ENDROOT
BRANCH   1   2
ATOM      2  C   UNL d   1     -40.616  15.897  19.019  0.00  0.00     0.041 C 
BRANCH   2   3
ATOM      3  C   UNL d   1     -40.412  15.688  18.242  0.00  0.00     0.090 A 
ATOM      4  N   UNL d   1     -39.702  15.321  18.014  0.00  0.00    -0.238 NA
ATOM      5  C   UNL d   1     -39.730  15.214  17.190  0.00  0.00     0.112 A 
ATOM      6  S   UNL d   1     -40.451  15.511  16.912  0.00  0.00    -0.066 SA
ATOM      7  C   UNL d   1     -40.875  15.806  17.566  0.00  0.00     0.056 A 
BRANCH   5   8
ATOM      8  C   UNL d   1     -39.136  14.865  16.718  0.00  0.00     0.043 A 
ATOM      9  C   UNL d   1     -38.656  15.340  16.243  0.00  0.00     0.101 A 
ATOM     10  N   UNL d   1     -38.076  15.000  15.782  0.00  0.00    -0.242 NA
ATOM     11  C   UNL d   1     -37.971  14.184  15.791  0.00  0.00     0.099 A 
ATOM     12  C   UNL d   1     -38.462  13.703  16.275  0.00  0.00     0.021 A 
ATOM     13  C   UNL d   1     -39.044  14.046  16.739  0.00  0.00     0.005 A 
ENDBRANCH   5   8
ENDBRANCH   2   3
ENDBRANCH   1   2
BRANCH   1  14
ATOM     14  N   UNL d   1     -40.343  15.921  20.432  0.00  0.00    -0.157 NA
BRANCH  14  15
ATOM     15  S   UNL d   1     -39.929  15.592  21.071  0.00  0.00     0.285 S 
ATOM     16  O   UNL d   1     -40.641  15.259  21.354  0.00  0.00    -0.198 OA
ATOM     17  O   UNL d   1     -39.218  15.922  20.793  0.00  0.00    -0.198 OA
BRANCH  15  18
ATOM     18  C   UNL d   1     -39.525  15.260  21.711  0.00  0.00     0.105 A 
ATOM     19  C   UNL d   1     -39.242  15.754  22.305  0.00  0.00     0.015 A 
ATOM     20  C   UNL d   1     -38.833  15.422  22.953  0.00  0.00     0.025 A 
ATOM     21  C   UNL d   1     -38.716  14.612  22.994  0.00  0.00     0.094 A 
ATOM     22  C   UNL d   1     -39.002  14.126  22.396  0.00  0.00     0.025 A 
ATOM     23  C   UNL d   1     -39.407  14.438  21.751  0.00  0.00     0.015 A 
BRANCH  21  24
ATOM     24  O   UNL d   1     -38.312  14.280  23.633  0.00  0.00    -0.328 OA
ATOM     25  C   UNL d   1     -37.973  13.532  23.560  0.00  0.00     0.181 C 
ENDBRANCH  21  24
ENDBRANCH  15  18
ENDBRANCH  14  15
ENDBRANCH   1  14
TORSDOF 7
ENDMDL
MODEL 5
REMARK VINA RESULT:      -4.5      2.676      6.705
REMARK  7 active torsions:
REMARK  status: ('A' for Active; 'I' for Inactive)
REMARK    1  A    between atoms: C_7  and  S_1 
REMARK    2  A    between atoms: N_11  and  S_1 
REMARK    3  A    between atoms: C_5  and  C_2 
REMARK    4  A    between atoms: C_6  and  C_15 
REMARK    5  A    between atoms: C_18  and  N_11 
REMARK    6  A    between atoms: C_15  and  C_18 
REMARK    7  A    between atoms: O_21  and  C_17 
ROOT
ATOM      1  C   UNL d   1     -43.853  13.046  21.594  0.00  0.00     0.114 C 
ENDROOT
BRANCH   1   2
ATOM      2  C   UNL d   1     -43.096  12.750  21.465  0.00  0.00     0.041 C 
BRANCH   2   3
ATOM      3  C   UNL d   1     -42.512  13.221  21.110  0.00  0.00     0.090 A 
ATOM      4  N   UNL d   1     -41.961  13.691  21.517  0.00  0.00    -0.238 NA
ATOM      5  C   UNL d   1     -41.485  14.065  20.948  0.00  0.00     0.112 A 
ATOM      6  S   UNL d   1     -41.738  13.829  20.196  0.00  0.00    -0.066 SA
ATOM      7  C   UNL d   1     -42.377  13.303  20.297  0.00  0.00     0.056 A 
BRANCH   5   8
ATOM      8  C   UNL d   1     -40.855  14.592  21.101  0.00  0.00     0.043 A 
ATOM      9  C   UNL d   1     -40.106  14.298  21.285  0.00  0.00     0.101 A 
ATOM     10  N   UNL d   1     -39.491  14.812  21.435  0.00  0.00    -0.242 NA
ATOM     11  C   UNL d   1     -39.619  15.623  21.402  0.00  0.00     0.099 A 
ATOM     12  C   UNL d   1     -40.383  15.921  21.214  0.00  0.00     0.021 A 
ATOM     13  C   UNL d   1     -41.000  15.403  21.064  0.00  0.00     0.005 A 
ENDBRANCH   5   8
ENDBRANCH   2   3
ENDBRANCH   1   2
BRANCH   1  14
ATOM     14  N   UNL d   1     -44.441  12.553  21.941  0.00  0.00    -0.157 NA
BRANCH  14  15
ATOM     15  S   UNL d   1     -45.153  12.891  22.199  0.00  0.00     0.285 S 
ATOM     16  O   UNL d   1     -45.247  13.249  21.451  0.00  0.00    -0.198 OA
ATOM     17  O   UNL d   1     -45.062  12.535  22.945  0.00  0.00    -0.198 OA
BRANCH  15  18
ATOM     18  C   UNL d   1     -45.863  13.231  22.447  0.00  0.00     0.105 A 
ATOM     19  C   UNL d   1     -46.525  12.752  22.545  0.00  0.00     0.015 A 
ATOM     20  C   UNL d   1     -47.244  13.093  22.796  0.00  0.00     0.025 A 
ATOM     21  C   UNL d   1     -47.288  13.898  22.942  0.00  0.00     0.094 A 
ATOM     22  C   UNL d   1     -46.624  14.369  22.842  0.00  0.00     0.025 A 
ATOM     23  C   UNL d   1     -45.907  14.049  22.595  0.00  0.00     0.015 A 
BRANCH  21  24
ATOM     24  O   UNL d   1     -47.999  14.238  23.190  0.00  0.00    -0.328 OA
ATOM     25  C   UNL d   1     -48.527  14.538  22.632  0.00  0.00     0.181 C 
ENDBRANCH  21  24
ENDBRANCH  15  18
ENDBRANCH  14  15
ENDBRANCH   1  14
TORSDOF 7
ENDMDL
