MODEL 1
REMARK VINA RESULT:      31.2      0.000      0.000
REMARK  5 active torsions:
REMARK  status: ('A' for Active; 'I' for Inactive)
REMARK    1  A    between atoms: C_11  and  C_8 
REMARK       I    between atoms: N_22  and  C_11 
REMARK    2  A    between atoms: N_14  and  C_24 
REMARK    3  A    between atoms: C_27  and  N_22 
REMARK    4  A    between atoms: C_24  and  C_25 
REMARK    5  A    between atoms: C_25  and  C_27 
ROOT
ATOM      1  C   UNL d   1      45.247 -15.800  44.341  0.00  0.00     0.154 A 
ATOM      2  C   UNL d   1      45.906 -15.581  43.896  0.00  0.00     0.093 A 
ATOM      3  N   UNL d   1      44.669 -15.234  44.529  0.00  0.00    -0.210 NA
ATOM      4  N   UNL d   1      45.411 -14.236  43.827  0.00  0.00    -0.258 N 
ATOM      5  C   UNL d   1      45.987 -14.795  43.638  0.00  0.00     0.269 A 
ATOM      6  N   UNL d   1      45.313 -16.598  44.516  0.00  0.00    -0.285 N 
ATOM      7  C   UNL d   1      44.753 -14.456  44.272  0.00  0.00     0.152 A 
ATOM      8  C   UNL d   1      46.010 -16.878  44.181  0.00  0.00     0.124 A 
ATOM      9  C   UNL d   1      46.381 -16.242  43.793  0.00  0.00     0.030 A 
ATOM     10  C   UNL d   1      45.496 -13.459  43.570  0.00  0.00     0.084 A 
ATOM     11  C   UNL d   1      44.178 -13.898  44.461  0.00  0.00     0.038 A 
ATOM     12  C   UNL d   1      44.920 -12.900  43.758  0.00  0.00     0.018 A 
ATOM     13  C   UNL d   1      44.261 -13.120  44.204  0.00  0.00     0.005 A 
ATOM     14  O   UNL d   1      46.646 -14.575  43.192  0.00  0.00    -0.266 OA
ATOM     15  C   UNL d   1      44.773 -17.049  44.954  0.00  0.00     0.101 C 
ATOM     16  C   UNL d   1      45.000 -12.111  43.500  0.00  0.00     0.002 C 
ENDROOT
BRANCH   8  17
ATOM     17  C   UNL d   1      46.294 -17.651  44.221  0.00  0.00     0.295 C 
ATOM     18  O   UNL d   1      46.537 -17.966  44.943  0.00  0.00    -0.264 OA
ATOM     19  N   UNL d   1      46.336 -18.111  43.540  0.00  0.00    -0.205 NA
BRANCH  19  20
ATOM     20  C   UNL d   1      46.621 -18.885  43.579  0.00  0.00     0.104 C 
BRANCH  20  21
ATOM     21  C   UNL d   1      46.634 -19.354  42.903  0.00  0.00     0.040 C 
BRANCH  21  22
ATOM     22  C   UNL d   1      46.040 -19.268  42.324  0.00  0.00     0.083 C 
BRANCH  22  23
ATOM     23  N   UNL d   1      46.243 -19.067  41.552  0.00  0.00    -0.285 N 
ATOM     24  C   UNL d   1      46.269 -18.347  41.156  0.00  0.00     0.183 A 
ATOM     25  N   UNL d   1      46.514 -18.483  40.384  0.00  0.00    -0.222 NA
ATOM     26  C   UNL d   1      46.644 -19.294  40.288  0.00  0.00     0.120 A 
ATOM     27  C   UNL d   1      46.474 -19.655  41.018  0.00  0.00     0.102 A 
ENDBRANCH  22  23
ENDBRANCH  21  22
ENDBRANCH  20  21
ENDBRANCH  19  20
ENDBRANCH   8  17
TORSDOF 5
ENDMDL
