MODEL 1
REMARK VINA RESULT:      37.0      0.000      0.000
REMARK  3 active torsions:
REMARK  status: ('A' for Active; 'I' for Inactive)
REMARK    1  A    between atoms: N_4  and  C_1 
REMARK    2  A    between atoms: C_5  and  C_3 
REMARK       I    between atoms: C_8  and  N_4 
REMARK    3  A    between atoms: C_9  and  C_8 
ROOT
ATOM      1  C   UNL d   1     -55.043-101.908 -39.700  0.00  0.00     0.204 A 
ATOM      2  S   UNL d   1     -54.813-101.689 -39.021  0.00  0.00    -0.031 SA
ATOM      3  C   UNL d   1     -55.125-102.263 -38.414  0.00  0.00     0.119 A 
ATOM      4  N   UNL d   1     -55.521-102.631 -39.636  0.00  0.00    -0.123 NA
ATOM      5  N   UNL d   1     -55.555-102.819 -38.873  0.00  0.00    -0.143 NA
ENDROOT
BRANCH   3   6
ATOM      6  C   UNL d   1     -55.009-102.233 -37.638  0.00  0.00     0.081 A 
ATOM      7  C   UNL d   1     -54.987-101.179 -37.526  0.00  0.00     0.023 A 
ATOM      8  C   UNL d   1     -54.871-100.919 -36.752  0.00  0.00     0.045 A 
ATOM      9  C   UNL d   1     -54.782-101.528 -36.136  0.00  0.00    -0.022 A 
ATOM     10  C   UNL d   1     -54.711-101.407 -35.664  0.00  0.00    -0.022 A 
ATOM     11  C   UNL d   1     -54.796-102.324 -36.198  0.00  0.00    -0.008 A 
ATOM     12  C   UNL d   1     -54.931-102.837 -37.087  0.00  0.00    -0.017 A 
ATOM     13  C   UNL d   1     -54.713-102.864 -35.622  0.00  0.00    -0.001 A 
ATOM     14  C   UNL d   1     -54.767-102.151 -36.012  0.00  0.00    -0.008 A 
ATOM     15  C   UNL d   1     -54.884-102.411 -36.787  0.00  0.00    -0.017 A 
ENDBRANCH   3   6
BRANCH   1  16
ATOM     16  N   UNL d   1     -54.932-101.604 -40.454  0.00  0.00    -0.248 N 
ATOM     17  C   UNL d   1     -55.027-102.044 -41.145  0.00  0.00     0.289 C 
ATOM     18  O   UNL d   1     -55.251-102.849 -41.082  0.00  0.00    -0.264 OA
ATOM     19  C   UNL d   1     -54.721-100.848 -40.528  0.00  0.00     0.104 C 
BRANCH  17  20
ATOM     20  C   UNL d   1     -54.906-101.704 -41.891  0.00  0.00     0.156 A 
ATOM     21  O   UNL d   1     -54.834-100.917 -42.143  0.00  0.00    -0.300 OA
ATOM     22  C   UNL d   1     -54.715-100.938 -42.990  0.00  0.00     0.123 A 
ATOM     23  C   UNL d   1     -54.715-101.691 -43.233  0.00  0.00     0.029 A 
ATOM     24  C   UNL d   1     -54.830-102.174 -42.580  0.00  0.00     0.032 A 
ENDBRANCH  17  20
ENDBRANCH   1  16
TORSDOF 3
ENDMDL
