MODEL 1
REMARK VINA RESULT:      -7.1      0.000      0.000
REMARK  7 active torsions:
REMARK  status: ('A' for Active; 'I' for Inactive)
REMARK    1  A    between atoms: N_4  and  C_1 
REMARK    2  A    between atoms: N_8  and  C_1 
REMARK    3  A    between atoms: C_2  and  C_3 
REMARK    4  A    between atoms: C_5  and  C_2 
REMARK    5  A    between atoms: N_6  and  C_2 
REMARK    6  A    between atoms: C_3  and  N_4 
REMARK    7  A    between atoms: C_14  and  N_8 
ROOT
ATOM      1  C   UNL d   1      52.977  33.336  53.148  0.00  0.00     0.100 C 
ATOM      2  C   UNL d   1      53.480  33.522  52.528  0.00  0.00     0.022 C 
ENDROOT
BRANCH   1   3
ATOM      3  C   UNL d   1      52.464  33.909  53.448  0.00  0.00     0.088 C 
BRANCH   3   4
ATOM      4  C   UNL d   1      51.686  33.950  53.177  0.00  0.00     0.047 A 
ATOM      5  S   UNL d   1      51.423  34.310  52.477  0.00  0.00    -0.085 SA
ATOM      6  C   UNL d   1      50.606  34.218  52.430  0.00  0.00     0.035 A 
ATOM      7  C   UNL d   1      50.347  33.801  53.097  0.00  0.00     0.007 A 
ATOM      8  C   UNL d   1      51.017  33.632  53.565  0.00  0.00     0.009 A 
ENDBRANCH   3   4
BRANCH   3   9
ATOM      9  N   UNL d   1      52.728  34.449  54.022  0.00  0.00    -0.299 N 
ATOM     10  C   UNL d   1      52.935  35.210  53.806  0.00  0.00     0.107 A 
ATOM     11  C   UNL d   1      53.197  35.752  54.368  0.00  0.00     0.142 A 
ATOM     12  O   UNL d   1      53.255  35.530  55.170  0.00  0.00    -0.300 OA
ATOM     13  C   UNL d   1      53.043  34.755  55.387  0.00  0.00     0.142 A 
ATOM     14  C   UNL d   1      52.781  34.217  54.816  0.00  0.00     0.107 A 
ENDBRANCH   3   9
ENDBRANCH   1   3
BRANCH   1  15
ATOM     15  N   UNL d   1      52.977  32.582  53.478  0.00  0.00    -0.216 NA
BRANCH  15  16
ATOM     16  C   UNL d   1      53.497  32.003  53.185  0.00  0.00     0.221 C 
ATOM     17  S   UNL d   1      54.310  32.118  53.249  0.00  0.00    -0.037 SA
BRANCH  16  18
ATOM     18  N   UNL d   1      53.196  31.321  52.834  0.00  0.00    -0.217 NA
BRANCH  18  19
ATOM     19  C   UNL d   1      53.181  30.606  53.249  0.00  0.00     0.084 A 
ATOM     20  C   UNL d   1      52.485  30.151  53.261  0.00  0.00     0.021 A 
ATOM     21  C   UNL d   1      52.478  29.450  53.670  0.00  0.00     0.031 A 
ATOM     22  C   UNL d   1      53.150  29.185  54.074  0.00  0.00     0.140 A 
ATOM     23  C   UNL d   1      53.839  29.640  54.060  0.00  0.00     0.031 A 
ATOM     24  F   UNL d   1      53.131  28.466  54.490  0.00  0.00    -0.204 F 
ATOM     25  C   UNL d   1      53.852  30.349  53.648  0.00  0.00     0.021 A 
ENDBRANCH  18  19
ENDBRANCH  16  18
ENDBRANCH  15  16
ENDBRANCH   1  15
TORSDOF 7
ENDMDL
MODEL 2
REMARK VINA RESULT:      -7.0      1.095      1.998
REMARK  7 active torsions:
REMARK  status: ('A' for Active; 'I' for Inactive)
REMARK    1  A    between atoms: N_4  and  C_1 
REMARK    2  A    between atoms: N_8  and  C_1 
REMARK    3  A    between atoms: C_2  and  C_3 
REMARK    4  A    between atoms: C_5  and  C_2 
REMARK    5  A    between atoms: N_6  and  C_2 
REMARK    6  A    between atoms: C_3  and  N_4 
REMARK    7  A    between atoms: C_14  and  N_8 
ROOT
ATOM      1  C   UNL d   1      53.058  33.400  53.169  0.00  0.00     0.100 C 
ATOM      2  C   UNL d   1      53.627  33.584  52.607  0.00  0.00     0.022 C 
ENDROOT
BRANCH   1   3
ATOM      3  C   UNL d   1      52.523  33.977  53.416  0.00  0.00     0.088 C 
BRANCH   3   4
ATOM      4  C   UNL d   1      52.751  34.541  53.974  0.00  0.00     0.047 A 
ATOM      5  S   UNL d   1      52.795  34.435  54.795  0.00  0.00    -0.085 SA
ATOM      6  C   UNL d   1      53.046  35.142  55.135  0.00  0.00     0.035 A 
ATOM      7  C   UNL d   1      53.163  35.699  54.533  0.00  0.00     0.007 A 
ATOM      8  C   UNL d   1      52.979  35.328  53.807  0.00  0.00     0.009 A 
ENDBRANCH   3   4
BRANCH   3   9
ATOM      9  N   UNL d   1      51.753  33.995  53.106  0.00  0.00    -0.299 N 
ATOM     10  C   UNL d   1      51.618  34.309  52.362  0.00  0.00     0.107 A 
ATOM     11  C   UNL d   1      50.857  34.331  52.046  0.00  0.00     0.142 A 
ATOM     12  O   UNL d   1      50.212  34.032  52.481  0.00  0.00    -0.300 OA
ATOM     13  C   UNL d   1      50.353  33.713  53.238  0.00  0.00     0.142 A 
ATOM     14  C   UNL d   1      51.120  33.695  53.547  0.00  0.00     0.107 A 
ENDBRANCH   3   9
ENDBRANCH   1   3
BRANCH   1  15
ATOM     15  N   UNL d   1      53.015  32.644  53.491  0.00  0.00    -0.216 NA
BRANCH  15  16
ATOM     16  C   UNL d   1      53.533  32.051  53.224  0.00  0.00     0.221 C 
ATOM     17  S   UNL d   1      54.344  32.140  53.335  0.00  0.00    -0.037 SA
BRANCH  16  18
ATOM     18  N   UNL d   1      53.231  31.380  52.853  0.00  0.00    -0.217 NA
BRANCH  18  19
ATOM     19  C   UNL d   1      53.200  30.656  53.251  0.00  0.00     0.084 A 
ATOM     20  C   UNL d   1      52.508  30.197  53.218  0.00  0.00     0.021 A 
ATOM     21  C   UNL d   1      52.484  29.488  53.612  0.00  0.00     0.031 A 
ATOM     22  C   UNL d   1      53.137  29.218  54.044  0.00  0.00     0.140 A 
ATOM     23  C   UNL d   1      53.822  29.677  54.075  0.00  0.00     0.031 A 
ATOM     24  F   UNL d   1      53.101  28.490  54.443  0.00  0.00    -0.204 F 
ATOM     25  C   UNL d   1      53.851  30.394  53.679  0.00  0.00     0.021 A 
ENDBRANCH  18  19
ENDBRANCH  16  18
ENDBRANCH  15  16
ENDBRANCH   1  15
TORSDOF 7
ENDMDL
MODEL 3
REMARK VINA RESULT:      -6.3      2.370      4.479
REMARK  7 active torsions:
REMARK  status: ('A' for Active; 'I' for Inactive)
REMARK    1  A    between atoms: N_4  and  C_1 
REMARK    2  A    between atoms: N_8  and  C_1 
REMARK    3  A    between atoms: C_2  and  C_3 
REMARK    4  A    between atoms: C_5  and  C_2 
REMARK    5  A    between atoms: N_6  and  C_2 
REMARK    6  A    between atoms: C_3  and  N_4 
REMARK    7  A    between atoms: C_14  and  N_8 
ROOT
ATOM      1  C   UNL d   1      53.284  33.146  53.357  0.00  0.00     0.100 C 
ATOM      2  C   UNL d   1      53.632  33.394  52.658  0.00  0.00     0.022 C 
ENDROOT
BRANCH   1   3
ATOM      3  C   UNL d   1      53.698  32.649  53.869  0.00  0.00     0.088 C 
BRANCH   3   4
ATOM      4  C   UNL d   1      54.162  32.968  54.472  0.00  0.00     0.047 A 
ATOM      5  S   UNL d   1      54.910  33.317  54.389  0.00  0.00    -0.085 SA
ATOM      6  C   UNL d   1      55.167  33.559  55.133  0.00  0.00     0.035 A 
ATOM      7  C   UNL d   1      54.585  33.366  55.690  0.00  0.00     0.007 A 
ATOM      8  C   UNL d   1      53.957  32.997  55.282  0.00  0.00     0.009 A 
ENDBRANCH   3   4
BRANCH   3   9
ATOM      9  N   UNL d   1      53.651  31.824  53.781  0.00  0.00    -0.299 N 
ATOM     10  C   UNL d   1      54.109  31.445  53.218  0.00  0.00     0.107 A 
ATOM     11  C   UNL d   1      54.070  30.628  53.123  0.00  0.00     0.142 A 
ATOM     12  O   UNL d   1      53.561  30.173  53.601  0.00  0.00    -0.300 OA
ATOM     13  C   UNL d   1      53.095  30.562  54.173  0.00  0.00     0.142 A 
ATOM     14  C   UNL d   1      53.141  31.383  54.261  0.00  0.00     0.107 A 
ENDBRANCH   3   9
ENDBRANCH   1   3
BRANCH   1  15
ATOM     15  N   UNL d   1      52.523  33.389  53.557  0.00  0.00    -0.216 NA
BRANCH  15  16
ATOM     16  C   UNL d   1      52.075  33.831  53.014  0.00  0.00     0.221 C 
ATOM     17  S   UNL d   1      52.349  34.566  52.765  0.00  0.00    -0.037 SA
BRANCH  16  18
ATOM     18  N   UNL d   1      51.361  33.531  52.731  0.00  0.00    -0.217 NA
BRANCH  18  19
ATOM     19  C   UNL d   1      50.684  34.004  52.713  0.00  0.00     0.084 A 
ATOM     20  C   UNL d   1      50.292  34.135  51.992  0.00  0.00     0.021 A 
ATOM     21  C   UNL d   1      49.627  34.601  51.981  0.00  0.00     0.031 A 
ATOM     22  C   UNL d   1      49.337  34.945  52.676  0.00  0.00     0.140 A 
ATOM     23  C   UNL d   1      49.729  34.813  53.390  0.00  0.00     0.031 A 
ATOM     24  F   UNL d   1      48.656  35.420  52.654  0.00  0.00    -0.204 F 
ATOM     25  C   UNL d   1      50.401  34.343  53.406  0.00  0.00     0.021 A 
ENDBRANCH  18  19
ENDBRANCH  16  18
ENDBRANCH  15  16
ENDBRANCH   1  15
TORSDOF 7
ENDMDL
MODEL 4
REMARK VINA RESULT:      -6.2      2.161      4.099
REMARK  7 active torsions:
REMARK  status: ('A' for Active; 'I' for Inactive)
REMARK    1  A    between atoms: N_4  and  C_1 
REMARK    2  A    between atoms: N_8  and  C_1 
REMARK    3  A    between atoms: C_2  and  C_3 
REMARK    4  A    between atoms: C_5  and  C_2 
REMARK    5  A    between atoms: N_6  and  C_2 
REMARK    6  A    between atoms: C_3  and  N_4 
REMARK    7  A    between atoms: C_14  and  N_8 
ROOT
ATOM      1  C   UNL d   1      53.293  33.155  53.316  0.00  0.00     0.100 C 
ATOM      2  C   UNL d   1      53.625  33.355  52.593  0.00  0.00     0.022 C 
ENDROOT
BRANCH   1   3
ATOM      3  C   UNL d   1      53.707  32.669  53.838  0.00  0.00     0.088 C 
BRANCH   3   4
ATOM      4  C   UNL d   1      53.637  31.849  53.784  0.00  0.00     0.047 A 
ATOM      5  S   UNL d   1      54.012  31.356  53.232  0.00  0.00    -0.085 SA
ATOM      6  C   UNL d   1      53.784  30.579  53.383  0.00  0.00     0.035 A 
ATOM      7  C   UNL d   1      53.265  30.575  54.028  0.00  0.00     0.007 A 
ATOM      8  C   UNL d   1      53.171  31.365  54.282  0.00  0.00     0.009 A 
ENDBRANCH   3   4
BRANCH   3   9
ATOM      9  N   UNL d   1      54.197  33.002  54.421  0.00  0.00    -0.299 N 
ATOM     10  C   UNL d   1      53.945  33.032  55.199  0.00  0.00     0.107 A 
ATOM     11  C   UNL d   1      54.423  33.359  55.785  0.00  0.00     0.142 A 
ATOM     12  O   UNL d   1      55.174  33.666  55.591  0.00  0.00    -0.300 OA
ATOM     13  C   UNL d   1      55.427  33.634  54.798  0.00  0.00     0.142 A 
ATOM     14  C   UNL d   1      54.940  33.304  54.217  0.00  0.00     0.107 A 
ENDBRANCH   3   9
ENDBRANCH   1   3
BRANCH   1  15
ATOM     15  N   UNL d   1      52.548  33.435  53.527  0.00  0.00    -0.216 NA
BRANCH  15  16
ATOM     16  C   UNL d   1      52.117  33.906  52.996  0.00  0.00     0.221 C 
ATOM     17  S   UNL d   1      52.381  34.667  52.822  0.00  0.00    -0.037 SA
BRANCH  16  18
ATOM     18  N   UNL d   1      51.431  33.611  52.648  0.00  0.00    -0.217 NA
BRANCH  18  19
ATOM     19  C   UNL d   1      50.731  34.051  52.658  0.00  0.00     0.084 A 
ATOM     20  C   UNL d   1      50.318  34.183  51.948  0.00  0.00     0.021 A 
ATOM     21  C   UNL d   1      49.632  34.616  51.964  0.00  0.00     0.031 A 
ATOM     22  C   UNL d   1      49.341  34.927  52.674  0.00  0.00     0.140 A 
ATOM     23  C   UNL d   1      49.754  34.795  53.376  0.00  0.00     0.031 A 
ATOM     24  F   UNL d   1      48.638  35.370  52.679  0.00  0.00    -0.204 F 
ATOM     25  C   UNL d   1      50.448  34.357  53.365  0.00  0.00     0.021 A 
ENDBRANCH  18  19
ENDBRANCH  16  18
ENDBRANCH  15  16
ENDBRANCH   1  15
TORSDOF 7
ENDMDL
