MODEL 1
REMARK VINA RESULT:      -7.4      0.000      0.000
REMARK  5 active torsions:
REMARK  status: ('A' for Active; 'I' for Inactive)
REMARK    1  A    between atoms: S_2  and  C_1 
REMARK    2  A    between atoms: N_3  and  C_1 
REMARK    3  A    between atoms: C_4  and  C_1 
REMARK    4  A    between atoms: C_6  and  S_2 
REMARK       I    between atoms: C_5  and  N_3 
REMARK    5  A    between atoms: C_9  and  C_5 
ROOT
ATOM      1  C   UNL d   1     -48.515  12.630  22.742  0.00  0.00     0.193 C 
ENDROOT
BRANCH   1   2
ATOM      2  S   UNL d   1     -48.997  13.278  22.910  0.00  0.00     0.228 S 
ATOM      3  O   UNL d   1     -48.921  13.536  22.131  0.00  0.00    -0.216 OA
ATOM      4  O   UNL d   1     -49.077  13.022  23.698  0.00  0.00    -0.216 OA
BRANCH   2   5
ATOM      5  C   UNL d   1     -49.501  13.955  23.085  0.00  0.00     0.089 A 
ATOM      6  C   UNL d   1     -49.191  14.717  23.032  0.00  0.00     0.011 A 
ATOM      7  C   UNL d   1     -49.674  15.365  23.199  0.00  0.00     0.001 A 
ATOM      8  C   UNL d   1     -50.466  15.250  23.419  0.00  0.00     0.000 A 
ATOM      9  C   UNL d   1     -50.780  14.487  23.473  0.00  0.00     0.001 A 
ATOM     10  C   UNL d   1     -50.948  15.911  23.587  0.00  0.00     0.000 C 
ATOM     11  C   UNL d   1     -50.297  13.840  23.305  0.00  0.00     0.011 A 
ENDBRANCH   2   5
ENDBRANCH   1   2
BRANCH   1  12
ATOM     12  N   UNL d   1     -47.754  12.738  22.501  0.00  0.00    -0.195 NA
ATOM     13  C   UNL d   1     -47.126  12.511  22.985  0.00  0.00     0.280 C 
ATOM     14  O   UNL d   1     -47.269  12.181  23.697  0.00  0.00    -0.265 OA
BRANCH  13  15
ATOM     15  C   UNL d   1     -46.370  12.641  22.698  0.00  0.00     0.058 A 
ATOM     16  C   UNL d   1     -45.812  12.070  22.823  0.00  0.00     0.005 A 
ATOM     17  C   UNL d   1     -45.057  12.175  22.549  0.00  0.00     0.000 A 
ATOM     18  C   UNL d   1     -44.841  12.856  22.140  0.00  0.00     0.000 A 
ATOM     19  C   UNL d   1     -45.399  13.435  22.011  0.00  0.00     0.000 A 
ATOM     20  C   UNL d   1     -44.045  12.982  21.843  0.00  0.00     0.000 C 
ATOM     21  C   UNL d   1     -46.173  13.324  22.294  0.00  0.00     0.005 A 
ENDBRANCH  13  15
ENDBRANCH   1  12
BRANCH   1  22
ATOM     22  C   UNL d   1     -48.795  11.864  22.814  0.00  0.00     0.144 C 
ATOM     23 CL   UNL d   1     -48.974  11.518  22.150  0.00  0.00    -0.068 Cl
ATOM     24 CL   UNL d   1     -48.876  11.489  23.597  0.00  0.00    -0.068 Cl
ENDBRANCH   1  22
TORSDOF 5
ENDMDL
MODEL 2
REMARK VINA RESULT:      -6.6      1.927      2.521
REMARK  5 active torsions:
REMARK  status: ('A' for Active; 'I' for Inactive)
REMARK    1  A    between atoms: S_2  and  C_1 
REMARK    2  A    between atoms: N_3  and  C_1 
REMARK    3  A    between atoms: C_4  and  C_1 
REMARK    4  A    between atoms: C_6  and  S_2 
REMARK       I    between atoms: C_5  and  N_3 
REMARK    5  A    between atoms: C_9  and  C_5 
ROOT
ATOM      1  C   UNL d   1     -46.962  12.710  22.546  0.00  0.00     0.193 C 
ENDROOT
BRANCH   1   2
ATOM      2  S   UNL d   1     -47.767  12.591  22.683  0.00  0.00     0.228 S 
ATOM      3  O   UNL d   1     -47.837  12.222  21.949  0.00  0.00    -0.216 OA
ATOM      4  O   UNL d   1     -47.703  12.963  23.425  0.00  0.00    -0.216 OA
BRANCH   2   5
ATOM      5  C   UNL d   1     -48.608  12.466  22.825  0.00  0.00     0.089 A 
ATOM      6  C   UNL d   1     -48.857  12.149  23.544  0.00  0.00     0.011 A 
ATOM      7  C   UNL d   1     -49.662  12.030  23.678  0.00  0.00     0.001 A 
ATOM      8  C   UNL d   1     -50.218  12.228  23.094  0.00  0.00     0.000 A 
ATOM      9  C   UNL d   1     -49.972  12.546  22.372  0.00  0.00     0.001 A 
ATOM     10  C   UNL d   1     -51.031  12.104  23.239  0.00  0.00     0.000 C 
ATOM     11  C   UNL d   1     -49.166  12.665  22.237  0.00  0.00     0.011 A 
ENDBRANCH   2   5
ENDBRANCH   1   2
BRANCH   1  12
ATOM     12  N   UNL d   1     -46.438  12.106  22.641  0.00  0.00    -0.195 NA
ATOM     13  C   UNL d   1     -45.855  12.146  23.223  0.00  0.00     0.280 C 
ATOM     14  O   UNL d   1     -45.807  12.786  23.697  0.00  0.00    -0.265 OA
BRANCH  13  15
ATOM     15  C   UNL d   1     -45.345  11.509  23.282  0.00  0.00     0.058 A 
ATOM     16  C   UNL d   1     -44.605  11.582  22.964  0.00  0.00     0.005 A 
ATOM     17  C   UNL d   1     -44.082  10.966  23.009  0.00  0.00     0.000 A 
ATOM     18  C   UNL d   1     -44.286  10.257  23.375  0.00  0.00     0.000 A 
ATOM     19  C   UNL d   1     -45.030  10.177  23.697  0.00  0.00     0.000 A 
ATOM     20  C   UNL d   1     -43.743   9.594  23.431  0.00  0.00     0.000 C 
ATOM     21  C   UNL d   1     -45.564  10.812  23.649  0.00  0.00     0.005 A 
ENDBRANCH  13  15
ENDBRANCH   1  12
BRANCH   1  22
ATOM     22  C   UNL d   1     -46.677  13.440  22.311  0.00  0.00     0.144 C 
ATOM     23 CL   UNL d   1     -46.528  13.506  21.558  0.00  0.00    -0.068 Cl
ATOM     24 CL   UNL d   1     -46.557  14.082  22.889  0.00  0.00    -0.068 Cl
ENDBRANCH   1  22
TORSDOF 5
ENDMDL
MODEL 3
REMARK VINA RESULT:      -6.3      0.798      4.346
REMARK  5 active torsions:
REMARK  status: ('A' for Active; 'I' for Inactive)
REMARK    1  A    between atoms: S_2  and  C_1 
REMARK    2  A    between atoms: N_3  and  C_1 
REMARK    3  A    between atoms: C_4  and  C_1 
REMARK    4  A    between atoms: C_6  and  S_2 
REMARK       I    between atoms: C_5  and  N_3 
REMARK    5  A    between atoms: C_9  and  C_5 
ROOT
ATOM      1  C   UNL d   1     -47.822  12.671  22.873  0.00  0.00     0.193 C 
ENDROOT
BRANCH   1   2
ATOM      2  S   UNL d   1     -47.049  12.820  22.626  0.00  0.00     0.228 S 
ATOM      3  O   UNL d   1     -46.821  12.932  23.410  0.00  0.00    -0.216 OA
ATOM      4  O   UNL d   1     -47.274  12.707  21.832  0.00  0.00    -0.216 OA
BRANCH   2   5
ATOM      5  C   UNL d   1     -46.241  12.975  22.369  0.00  0.00     0.089 A 
ATOM      6  C   UNL d   1     -45.862  13.665  22.613  0.00  0.00     0.011 A 
ATOM      7  C   UNL d   1     -45.088  13.812  22.367  0.00  0.00     0.001 A 
ATOM      8  C   UNL d   1     -44.695  13.270  21.876  0.00  0.00     0.000 A 
ATOM      9  C   UNL d   1     -45.072  12.578  21.629  0.00  0.00     0.001 A 
ATOM     10  C   UNL d   1     -43.912  13.428  21.631  0.00  0.00     0.000 C 
ATOM     11  C   UNL d   1     -45.846  12.430  21.876  0.00  0.00     0.011 A 
ENDBRANCH   2   5
ENDBRANCH   1   2
BRANCH   1  12
ATOM     12  N   UNL d   1     -48.307  13.277  23.084  0.00  0.00    -0.195 NA
ATOM     13  C   UNL d   1     -49.011  13.412  22.675  0.00  0.00     0.280 C 
ATOM     14  O   UNL d   1     -49.216  12.940  22.065  0.00  0.00    -0.265 OA
BRANCH  13  15
ATOM     15  C   UNL d   1     -49.472  14.041  22.926  0.00  0.00     0.058 A 
ATOM     16  C   UNL d   1     -50.247  13.897  23.104  0.00  0.00     0.005 A 
ATOM     17  C   UNL d   1     -50.724  14.503  23.354  0.00  0.00     0.000 A 
ATOM     18  C   UNL d   1     -50.435  15.270  23.434  0.00  0.00     0.000 A 
ATOM     19  C   UNL d   1     -49.654  15.420  23.256  0.00  0.00     0.000 A 
ATOM     20  C   UNL d   1     -50.928  15.922  23.698  0.00  0.00     0.000 C 
ATOM     21  C   UNL d   1     -49.169  14.797  23.000  0.00  0.00     0.005 A 
ENDBRANCH  13  15
ENDBRANCH   1  12
BRANCH   1  22
ATOM     22  C   UNL d   1     -48.115  11.908  22.910  0.00  0.00     0.144 C 
ATOM     23 CL   UNL d   1     -48.238  11.639  23.621  0.00  0.00    -0.068 Cl
ATOM     24 CL   UNL d   1     -48.268  11.451  22.183  0.00  0.00    -0.068 Cl
ENDBRANCH   1  22
TORSDOF 5
ENDMDL
MODEL 4
REMARK VINA RESULT:      -6.1      8.683     10.085
REMARK  5 active torsions:
REMARK  status: ('A' for Active; 'I' for Inactive)
REMARK    1  A    between atoms: S_2  and  C_1 
REMARK    2  A    between atoms: N_3  and  C_1 
REMARK    3  A    between atoms: C_4  and  C_1 
REMARK    4  A    between atoms: C_6  and  S_2 
REMARK       I    between atoms: C_5  and  N_3 
REMARK    5  A    between atoms: C_9  and  C_5 
ROOT
ATOM      1  C   UNL d   1     -39.849  14.704  19.306  0.00  0.00     0.193 C 
ENDROOT
BRANCH   1   2
ATOM      2  S   UNL d   1     -39.470  14.388  18.644  0.00  0.00     0.228 S 
ATOM      3  O   UNL d   1     -40.054  13.809  18.587  0.00  0.00    -0.216 OA
ATOM      4  O   UNL d   1     -38.879  14.971  18.696  0.00  0.00    -0.216 OA
BRANCH   2   5
ATOM      5  C   UNL d   1     -39.076  14.058  17.952  0.00  0.00     0.089 A 
ATOM      6  C   UNL d   1     -38.998  14.516  17.271  0.00  0.00     0.011 A 
ATOM      7  C   UNL d   1     -38.621  14.198  16.609  0.00  0.00     0.001 A 
ATOM      8  C   UNL d   1     -38.322  13.424  16.630  0.00  0.00     0.000 A 
ATOM      9  C   UNL d   1     -38.398  12.963  17.311  0.00  0.00     0.001 A 
ATOM     10  C   UNL d   1     -37.941  13.111  15.955  0.00  0.00     0.000 C 
ATOM     11  C   UNL d   1     -38.775  13.280  17.973  0.00  0.00     0.011 A 
ENDBRANCH   2   5
ENDBRANCH   1   2
BRANCH   1  12
ATOM     12  N   UNL d   1     -39.498  14.674  20.029  0.00  0.00    -0.195 NA
ATOM     13  C   UNL d   1     -39.906  14.373  20.680  0.00  0.00     0.280 C 
ATOM     14  O   UNL d   1     -40.654  14.108  20.595  0.00  0.00    -0.265 OA
BRANCH  13  15
ATOM     15  C   UNL d   1     -39.508  14.363  21.396  0.00  0.00     0.058 A 
ATOM     16  C   UNL d   1     -39.464  15.052  21.816  0.00  0.00     0.005 A 
ATOM     17  C   UNL d   1     -39.076  15.068  22.527  0.00  0.00     0.000 A 
ATOM     18  C   UNL d   1     -38.721  14.393  22.836  0.00  0.00     0.000 A 
ATOM     19  C   UNL d   1     -38.763  13.696  22.417  0.00  0.00     0.000 A 
ATOM     20  C   UNL d   1     -38.306  14.394  23.588  0.00  0.00     0.000 C 
ATOM     21  C   UNL d   1     -39.162  13.683  21.688  0.00  0.00     0.005 A 
ENDBRANCH  13  15
ENDBRANCH   1  12
BRANCH   1  22
ATOM     22  C   UNL d   1     -40.587  15.053  19.245  0.00  0.00     0.144 C 
ATOM     23 CL   UNL d   1     -41.173  14.564  19.145  0.00  0.00    -0.068 Cl
ATOM     24 CL   UNL d   1     -40.677  15.919  19.292  0.00  0.00    -0.068 Cl
ENDBRANCH   1  22
TORSDOF 5
ENDMDL
MODEL 5
REMARK VINA RESULT:      -5.8      1.648      2.198
REMARK  5 active torsions:
REMARK  status: ('A' for Active; 'I' for Inactive)
REMARK    1  A    between atoms: S_2  and  C_1 
REMARK    2  A    between atoms: N_3  and  C_1 
REMARK    3  A    between atoms: C_4  and  C_1 
REMARK    4  A    between atoms: C_6  and  S_2 
REMARK       I    between atoms: C_5  and  N_3 
REMARK    5  A    between atoms: C_9  and  C_5 
ROOT
ATOM      1  C   UNL d   1     -47.931  13.942  22.562  0.00  0.00     0.193 C 
ENDROOT
BRANCH   1   2
ATOM      2  S   UNL d   1     -48.550  13.440  22.776  0.00  0.00     0.228 S 
ATOM      3  O   UNL d   1     -48.486  13.697  23.557  0.00  0.00    -0.216 OA
ATOM      4  O   UNL d   1     -48.619  13.177  21.989  0.00  0.00    -0.216 OA
BRANCH   2   5
ATOM      5  C   UNL d   1     -49.196  12.917  23.002  0.00  0.00     0.089 A 
ATOM      6  C   UNL d   1     -49.963  13.085  22.750  0.00  0.00     0.011 A 
ATOM      7  C   UNL d   1     -50.581  12.583  22.966  0.00  0.00     0.001 A 
ATOM      8  C   UNL d   1     -50.432  11.914  23.434  0.00  0.00     0.000 A 
ATOM      9  C   UNL d   1     -49.665  11.742  23.689  0.00  0.00     0.001 A 
ATOM     10  C   UNL d   1     -51.064  11.411  23.649  0.00  0.00     0.000 C 
ATOM     11  C   UNL d   1     -49.047  12.244  23.472  0.00  0.00     0.011 A 
ENDBRANCH   2   5
ENDBRANCH   1   2
BRANCH   1  12
ATOM     12  N   UNL d   1     -47.221  13.640  22.332  0.00  0.00    -0.195 NA
ATOM     13  C   UNL d   1     -46.526  13.871  22.711  0.00  0.00     0.280 C 
ATOM     14  O   UNL d   1     -46.553  14.397  23.310  0.00  0.00    -0.265 OA
BRANCH  13  15
ATOM     15  C   UNL d   1     -45.828  13.537  22.443  0.00  0.00     0.058 A 
ATOM     16  C   UNL d   1     -45.724  12.741  22.541  0.00  0.00     0.005 A 
ATOM     17  C   UNL d   1     -45.043  12.387  22.284  0.00  0.00     0.000 A 
ATOM     18  C   UNL d   1     -44.446  12.821  21.921  0.00  0.00     0.000 A 
ATOM     19  C   UNL d   1     -44.545  13.623  21.818  0.00  0.00     0.000 A 
ATOM     20  C   UNL d   1     -43.717  12.460  21.642  0.00  0.00     0.000 C 
ATOM     21  C   UNL d   1     -45.245  13.983  22.083  0.00  0.00     0.005 A 
ENDBRANCH  13  15
ENDBRANCH   1  12
BRANCH   1  22
ATOM     22  C   UNL d   1     -48.021  14.755  22.576  0.00  0.00     0.144 C 
ATOM     23 CL   UNL d   1     -48.016  15.097  21.887  0.00  0.00    -0.068 Cl
ATOM     24 CL   UNL d   1     -48.116  15.182  23.331  0.00  0.00    -0.068 Cl
ENDBRANCH   1  22
TORSDOF 5
ENDMDL
MODEL 6
REMARK VINA RESULT:      -5.4      9.139      9.718
REMARK  5 active torsions:
REMARK  status: ('A' for Active; 'I' for Inactive)
REMARK    1  A    between atoms: S_2  and  C_1 
REMARK    2  A    between atoms: N_3  and  C_1 
REMARK    3  A    between atoms: C_4  and  C_1 
REMARK    4  A    between atoms: C_6  and  S_2 
REMARK       I    between atoms: C_5  and  N_3 
REMARK    5  A    between atoms: C_9  and  C_5 
ROOT
ATOM      1  C   UNL d   1     -39.224  14.460  18.621  0.00  0.00     0.193 C 
ENDROOT
BRANCH   1   2
ATOM      2  S   UNL d   1     -39.808  14.750  18.116  0.00  0.00     0.228 S 
ATOM      3  O   UNL d   1     -40.298  14.119  18.320  0.00  0.00    -0.216 OA
ATOM      4  O   UNL d   1     -39.318  15.389  17.906  0.00  0.00    -0.216 OA
BRANCH   2   5
ATOM      5  C   UNL d   1     -40.419  15.052  17.588  0.00  0.00     0.089 A 
ATOM      6  C   UNL d   1     -40.453  14.784  16.809  0.00  0.00     0.011 A 
ATOM      7  C   UNL d   1     -41.038  15.074  16.305  0.00  0.00     0.001 A 
ATOM      8  C   UNL d   1     -41.588  15.631  16.579  0.00  0.00     0.000 A 
ATOM      9  C   UNL d   1     -41.557  15.902  17.360  0.00  0.00     0.001 A 
ATOM     10  C   UNL d   1     -42.177  15.920  16.062  0.00  0.00     0.000 C 
ATOM     11  C   UNL d   1     -40.972  15.612  17.864  0.00  0.00     0.011 A 
ENDBRANCH   2   5
ENDBRANCH   1   2
BRANCH   1  12
ATOM     12  N   UNL d   1     -39.101  14.799  19.341  0.00  0.00    -0.195 NA
ATOM     13  C   UNL d   1     -39.296  14.395  20.033  0.00  0.00     0.280 C 
ATOM     14  O   UNL d   1     -39.609  13.662  19.993  0.00  0.00    -0.265 OA
BRANCH  13  15
ATOM     15  C   UNL d   1     -39.152  14.780  20.741  0.00  0.00     0.058 A 
ATOM     16  C   UNL d   1     -39.487  14.480  21.412  0.00  0.00     0.005 A 
ATOM     17  C   UNL d   1     -39.360  14.844  22.125  0.00  0.00     0.000 A 
ATOM     18  C   UNL d   1     -38.893  15.519  22.184  0.00  0.00     0.000 A 
ATOM     19  C   UNL d   1     -38.553  15.826  21.510  0.00  0.00     0.000 A 
ATOM     20  C   UNL d   1     -38.749  15.916  22.932  0.00  0.00     0.000 C 
ATOM     21  C   UNL d   1     -38.686  15.450  20.781  0.00  0.00     0.005 A 
ENDBRANCH  13  15
ENDBRANCH   1  12
BRANCH   1  22
ATOM     22  C   UNL d   1     -38.757  13.822  18.406  0.00  0.00     0.144 C 
ATOM     23 CL   UNL d   1     -38.034  13.998  18.212  0.00  0.00    -0.068 Cl
ATOM     24 CL   UNL d   1     -39.079  13.011  18.405  0.00  0.00    -0.068 Cl
ENDBRANCH   1  22
TORSDOF 5
ENDMDL
