MODEL 1
REMARK VINA RESULT:      -8.6      0.000      0.000
REMARK  1 active torsions:
REMARK  status: ('A' for Active; 'I' for Inactive)
REMARK    1  A    between atoms: C_4  and  C_2 
ROOT
ATOM      1  C   UNL d   1      54.133  32.627  53.930  0.00  0.00     0.141 C 
ATOM      2  C   UNL d   1      54.806  32.843  53.516  0.00  0.00     0.112 C 
ATOM      3  C   UNL d   1      54.059  32.810  54.740  0.00  0.00     0.112 C 
ATOM      4  N   UNL d   1      53.976  32.993  55.569  0.00  0.00    -0.191 NA
ATOM      5  N   UNL d   1      55.500  33.069  53.102  0.00  0.00    -0.191 NA
ENDROOT
BRANCH   1   6
ATOM      6  C   UNL d   1      53.526  32.223  53.527  0.00  0.00     0.079 A 
ATOM      7  C   UNL d   1      52.941  32.582  53.109  0.00  0.00     0.281 A 
ATOM      8  N   UNL d   1      52.456  32.006  52.797  0.00  0.00    -0.208 NA
ATOM      9  O   UNL d   1      52.868  33.411  53.026  0.00  0.00    -0.265 OA
ATOM     10  C   UNL d   1      52.745  31.286  53.025  0.00  0.00     0.085 A 
ATOM     11  C   UNL d   1      52.483  30.512  52.876  0.00  0.00     0.019 A 
ATOM     12  C   UNL d   1      53.420  31.409  53.487  0.00  0.00     0.024 A 
ATOM     13  C   UNL d   1      52.887  29.887  53.179  0.00  0.00     0.002 A 
ATOM     14  C   UNL d   1      53.569  30.024  53.644  0.00  0.00     0.000 A 
ATOM     15  C   UNL d   1      53.822  30.795  53.788  0.00  0.00     0.002 A 
ENDBRANCH   1   6
TORSDOF 1
ENDMDL
MODEL 2
REMARK VINA RESULT:      -8.6      1.233      2.620
REMARK  1 active torsions:
REMARK  status: ('A' for Active; 'I' for Inactive)
REMARK    1  A    between atoms: C_4  and  C_2 
ROOT
ATOM      1  C   UNL d   1      54.043  32.781  53.901  0.00  0.00     0.141 C 
ATOM      2  C   UNL d   1      54.017  32.687  54.715  0.00  0.00     0.112 C 
ATOM      3  C   UNL d   1      54.773  32.887  53.512  0.00  0.00     0.112 C 
ATOM      4  N   UNL d   1      55.516  32.997  53.106  0.00  0.00    -0.191 NA
ATOM      5  N   UNL d   1      54.002  32.593  55.548  0.00  0.00    -0.191 NA
ENDROOT
BRANCH   1   6
ATOM      6  C   UNL d   1      53.330  32.766  53.472  0.00  0.00     0.079 A 
ATOM      7  C   UNL d   1      53.002  32.103  53.158  0.00  0.00     0.281 A 
ATOM      8  N   UNL d   1      52.309  32.311  52.781  0.00  0.00    -0.208 NA
ATOM      9  O   UNL d   1      53.337  31.340  53.225  0.00  0.00    -0.265 OA
ATOM     10  C   UNL d   1      52.211  33.110  52.864  0.00  0.00     0.085 A 
ATOM     11  C   UNL d   1      51.615  33.624  52.598  0.00  0.00     0.019 A 
ATOM     12  C   UNL d   1      52.848  33.409  53.297  0.00  0.00     0.024 A 
ATOM     13  C   UNL d   1      51.661  34.409  52.764  0.00  0.00     0.002 A 
ATOM     14  C   UNL d   1      52.311  34.701  53.204  0.00  0.00     0.000 A 
ATOM     15  C   UNL d   1      52.898  34.183  53.464  0.00  0.00     0.002 A 
ENDBRANCH   1   6
TORSDOF 1
ENDMDL
MODEL 3
REMARK VINA RESULT:      -8.2      1.581      3.065
REMARK  1 active torsions:
REMARK  status: ('A' for Active; 'I' for Inactive)
REMARK    1  A    between atoms: C_4  and  C_2 
ROOT
ATOM      1  C   UNL d   1      52.149  33.465  53.062  0.00  0.00     0.141 C 
ATOM      2  C   UNL d   1      51.391  33.274  53.307  0.00  0.00     0.112 C 
ATOM      3  C   UNL d   1      52.273  34.082  52.515  0.00  0.00     0.112 C 
ATOM      4  N   UNL d   1      52.407  34.712  51.955  0.00  0.00    -0.191 NA
ATOM      5  N   UNL d   1      50.610  33.087  53.551  0.00  0.00    -0.191 NA
ENDROOT
BRANCH   1   6
ATOM      6  C   UNL d   1      52.791  33.033  53.368  0.00  0.00     0.079 A 
ATOM      7  C   UNL d   1      53.035  32.320  53.086  0.00  0.00     0.281 A 
ATOM      8  N   UNL d   1      53.675  32.074  53.527  0.00  0.00    -0.208 NA
ATOM      9  O   UNL d   1      52.673  31.923  52.446  0.00  0.00    -0.265 OA
ATOM     10  C   UNL d   1      53.826  32.640  54.085  0.00  0.00     0.085 A 
ATOM     11  C   UNL d   1      54.403  32.689  54.680  0.00  0.00     0.019 A 
ATOM     12  C   UNL d   1      53.275  33.250  53.996  0.00  0.00     0.024 A 
ATOM     13  C   UNL d   1      54.424  33.329  55.166  0.00  0.00     0.002 A 
ATOM     14  C   UNL d   1      53.861  33.940  55.066  0.00  0.00     0.000 A 
ATOM     15  C   UNL d   1      53.291  33.883  54.473  0.00  0.00     0.002 A 
ENDBRANCH   1   6
TORSDOF 1
ENDMDL
MODEL 4
REMARK VINA RESULT:      -8.0      2.088      3.135
REMARK  1 active torsions:
REMARK  status: ('A' for Active; 'I' for Inactive)
REMARK    1  A    between atoms: C_4  and  C_2 
ROOT
ATOM      1  C   UNL d   1      52.133  34.065  53.242  0.00  0.00     0.141 C 
ATOM      2  C   UNL d   1      52.300  34.294  52.474  0.00  0.00     0.112 C 
ATOM      3  C   UNL d   1      51.413  33.686  53.423  0.00  0.00     0.112 C 
ATOM      4  N   UNL d   1      50.677  33.298  53.615  0.00  0.00    -0.191 NA
ATOM      5  N   UNL d   1      52.461  34.525  51.683  0.00  0.00    -0.191 NA
ENDROOT
BRANCH   1   6
ATOM      6  C   UNL d   1      52.695  34.216  53.837  0.00  0.00     0.079 A 
ATOM      7  C   UNL d   1      52.753  34.909  54.242  0.00  0.00     0.281 A 
ATOM      8  N   UNL d   1      53.367  34.845  54.775  0.00  0.00    -0.208 NA
ATOM      9  O   UNL d   1      52.253  35.566  54.114  0.00  0.00    -0.265 OA
ATOM     10  C   UNL d   1      53.689  34.108  54.698  0.00  0.00     0.085 A 
ATOM     11  C   UNL d   1      54.319  33.735  55.091  0.00  0.00     0.019 A 
ATOM     12  C   UNL d   1      53.274  33.700  54.110  0.00  0.00     0.024 A 
ATOM     13  C   UNL d   1      54.523  32.983  54.898  0.00  0.00     0.002 A 
ATOM     14  C   UNL d   1      54.096  32.580  54.300  0.00  0.00     0.000 A 
ATOM     15  C   UNL d   1      53.472  32.957  53.915  0.00  0.00     0.002 A 
ENDBRANCH   1   6
TORSDOF 1
ENDMDL
MODEL 5
REMARK VINA RESULT:      -7.9      1.975      2.861
REMARK  1 active torsions:
REMARK  status: ('A' for Active; 'I' for Inactive)
REMARK    1  A    between atoms: C_4  and  C_2 
ROOT
ATOM      1  C   UNL d   1      54.038  33.174  54.225  0.00  0.00     0.141 C 
ATOM      2  C   UNL d   1      53.952  32.698  54.886  0.00  0.00     0.112 C 
ATOM      3  C   UNL d   1      54.674  33.056  53.700  0.00  0.00     0.112 C 
ATOM      4  N   UNL d   1      55.324  32.942  53.157  0.00  0.00    -0.191 NA
ATOM      5  N   UNL d   1      53.875  32.205  55.561  0.00  0.00    -0.191 NA
ENDROOT
BRANCH   1   6
ATOM      6  C   UNL d   1      53.478  33.774  54.087  0.00  0.00     0.079 A 
ATOM      7  C   UNL d   1      53.509  34.508  54.415  0.00  0.00     0.281 A 
ATOM      8  N   UNL d   1      52.868  34.936  54.149  0.00  0.00    -0.208 NA
ATOM      9  O   UNL d   1      54.111  34.760  54.937  0.00  0.00    -0.265 OA
ATOM     10  C   UNL d   1      52.439  34.462  53.654  0.00  0.00     0.085 A 
ATOM     11  C   UNL d   1      51.740  34.598  53.226  0.00  0.00     0.019 A 
ATOM     12  C   UNL d   1      52.813  33.726  53.606  0.00  0.00     0.024 A 
ATOM     13  C   UNL d   1      51.431  34.014  52.769  0.00  0.00     0.002 A 
ATOM     14  C   UNL d   1      51.818  33.273  52.728  0.00  0.00     0.000 A 
ATOM     15  C   UNL d   1      52.512  33.147  53.156  0.00  0.00     0.002 A 
ENDBRANCH   1   6
TORSDOF 1
ENDMDL
