MODEL 1
REMARK VINA RESULT:      -1.3      0.000      0.000
REMARK  7 active torsions:
REMARK  status: ('A' for Active; 'I' for Inactive)
REMARK    1  A    between atoms: C_10  and  C_3 
REMARK    2  A    between atoms: N_11  and  C_4 
REMARK    3  A    between atoms: C_21  and  N_11 
REMARK    4  A    between atoms: O_20  and  C_23 
REMARK    5  A    between atoms: C_24  and  O_20 
REMARK    6  A    between atoms: C_23  and  C_21 
REMARK    7  A    between atoms: C_22  and  C_24 
ROOT
ATOM      1  C   UNL d   1      30.269  17.145 -24.351  0.00  0.00     0.167 A 
ATOM      2  N   UNL d   1      30.889  17.637 -24.664  0.00  0.00    -0.195 N 
ATOM      3  C   UNL d   1      29.494  17.376 -24.417  0.00  0.00     0.057 A 
ATOM      4  C   UNL d   1      31.655  17.391 -24.589  0.00  0.00     0.167 A 
ATOM      5  N   UNL d   1      29.910  18.574 -25.096  0.00  0.00    -0.161 NA
ATOM      6  N   UNL d   1      30.455  16.439 -23.985  0.00  0.00    -0.227 NA
ATOM      7  C   UNL d   1      31.853  16.680 -24.221  0.00  0.00     0.058 A 
ATOM      8  C   UNL d   1      29.309  18.097 -24.793  0.00  0.00     0.124 A 
ATOM      9  C   UNL d   1      31.243  16.196 -23.913  0.00  0.00     0.086 A 
ATOM     10  C   UNL d   1      31.439  15.453 -23.527  0.00  0.00     0.021 C 
ENDROOT
BRANCH   3  11
ATOM     11  C   UNL d   1      28.893  16.899 -24.115  0.00  0.00     0.005 A 
ATOM     12  C   UNL d   1      28.581  17.058 -23.379  0.00  0.00     0.001 A 
ATOM     13  C   UNL d   1      27.989  16.589 -23.081  0.00  0.00     0.011 A 
ATOM     14  C   UNL d   1      27.701  15.953 -23.514  0.00  0.00     0.058 A 
ATOM     15  C   UNL d   1      28.014  15.794 -24.250  0.00  0.00     0.011 A 
ATOM     16 CL   UNL d   1      27.070  15.453 -23.197  0.00  0.00    -0.082 Cl
ATOM     17  C   UNL d   1      28.615  16.271 -24.553  0.00  0.00     0.001 A 
ENDBRANCH   3  11
BRANCH   4  18
ATOM     18  N   UNL d   1      32.284  17.885 -24.903  0.00  0.00    -0.223 NA
BRANCH  18  19
ATOM     19  C   UNL d   1      33.092  18.156 -24.944  0.00  0.00     0.127 C 
BRANCH  19  20
ATOM     20  C   UNL d   1      33.238  19.007 -25.003  0.00  0.00     0.143 C 
BRANCH  20  21
ATOM     21  O   UNL d   1      33.107  19.519 -24.328  0.00  0.00    -0.298 OA
BRANCH  21  22
ATOM     22  C   UNL d   1      33.197  20.374 -24.400  0.00  0.00     0.168 C 
BRANCH  22  23
ATOM     23  C   UNL d   1      33.226  20.863 -23.696  0.00  0.00     0.261 C 
ATOM     24  O   UNL d   1      33.166  21.720 -23.763  0.00  0.00    -0.281 OA
ENDBRANCH  22  23
ENDBRANCH  21  22
ENDBRANCH  20  21
ENDBRANCH  19  20
ENDBRANCH  18  19
ENDBRANCH   4  18
TORSDOF 7
ENDMDL
MODEL 2
REMARK VINA RESULT:      -1.0      2.801      4.171
REMARK  7 active torsions:
REMARK  status: ('A' for Active; 'I' for Inactive)
REMARK    1  A    between atoms: C_10  and  C_3 
REMARK    2  A    between atoms: N_11  and  C_4 
REMARK    3  A    between atoms: C_21  and  N_11 
REMARK    4  A    between atoms: O_20  and  C_23 
REMARK    5  A    between atoms: C_24  and  O_20 
REMARK    6  A    between atoms: C_23  and  C_21 
REMARK    7  A    between atoms: C_22  and  C_24 
ROOT
ATOM      1  C   UNL d   1      32.833  19.311 -23.469  0.00  0.00     0.167 A 
ATOM      2  N   UNL d   1      32.937  20.143 -23.614  0.00  0.00    -0.195 N 
ATOM      3  C   UNL d   1      32.635  18.813 -24.079  0.00  0.00     0.057 A 
ATOM      4  C   UNL d   1      33.135  20.623 -22.996  0.00  0.00     0.167 A 
ATOM      5  N   UNL d   1      32.635  19.928 -24.988  0.00  0.00    -0.161 NA
ATOM      6  N   UNL d   1      32.933  19.013 -22.715  0.00  0.00    -0.227 NA
ATOM      7  C   UNL d   1      33.238  20.333 -22.231  0.00  0.00     0.058 A 
ATOM      8  C   UNL d   1      32.534  19.121 -24.847  0.00  0.00     0.124 A 
ATOM      9  C   UNL d   1      33.135  19.514 -22.088  0.00  0.00     0.086 A 
ATOM     10  C   UNL d   1      33.241  19.201 -21.294  0.00  0.00     0.021 C 
ENDROOT
BRANCH   3  11
ATOM     11  C   UNL d   1      32.534  18.006 -23.938  0.00  0.00     0.005 A 
ATOM     12  C   UNL d   1      31.796  17.718 -23.747  0.00  0.00     0.001 A 
ATOM     13  C   UNL d   1      31.697  16.924 -23.609  0.00  0.00     0.011 A 
ATOM     14  C   UNL d   1      32.334  16.407 -23.659  0.00  0.00     0.058 A 
ATOM     15  C   UNL d   1      33.071  16.696 -23.850  0.00  0.00     0.011 A 
ATOM     16 CL   UNL d   1      32.228  15.561 -23.511  0.00  0.00    -0.082 Cl
ATOM     17  C   UNL d   1      33.172  17.503 -23.990  0.00  0.00     0.001 A 
ENDBRANCH   3  11
BRANCH   4  18
ATOM     18  N   UNL d   1      33.241  21.464 -23.139  0.00  0.00    -0.223 NA
BRANCH  18  19
ATOM     19  C   UNL d   1      33.049  22.287 -23.021  0.00  0.00     0.127 C 
BRANCH  19  20
ATOM     20  C   UNL d   1      33.223  22.644 -22.253  0.00  0.00     0.143 C 
BRANCH  20  21
ATOM     21  O   UNL d   1      32.838  23.373 -22.015  0.00  0.00    -0.298 OA
BRANCH  21  22
ATOM     22  C   UNL d   1      32.461  23.440 -21.241  0.00  0.00     0.168 C 
BRANCH  22  23
ATOM     23  C   UNL d   1      32.934  23.616 -20.547  0.00  0.00     0.261 C 
ATOM     24  O   UNL d   1      32.667  23.364 -19.767  0.00  0.00    -0.281 OA
ENDBRANCH  22  23
ENDBRANCH  21  22
ENDBRANCH  20  21
ENDBRANCH  19  20
ENDBRANCH  18  19
ENDBRANCH   4  18
TORSDOF 7
ENDMDL
MODEL 3
REMARK VINA RESULT:      -0.4      4.048      6.002
REMARK  7 active torsions:
REMARK  status: ('A' for Active; 'I' for Inactive)
REMARK    1  A    between atoms: C_10  and  C_3 
REMARK    2  A    between atoms: N_11  and  C_4 
REMARK    3  A    between atoms: C_21  and  N_11 
REMARK    4  A    between atoms: O_20  and  C_23 
REMARK    5  A    between atoms: C_24  and  O_20 
REMARK    6  A    between atoms: C_23  and  C_21 
REMARK    7  A    between atoms: C_22  and  C_24 
ROOT
ATOM      1  C   UNL d   1      32.996  21.021 -22.473  0.00  0.00     0.167 A 
ATOM      2  N   UNL d   1      33.046  21.532 -21.794  0.00  0.00    -0.195 N 
ATOM      3  C   UNL d   1      32.993  20.215 -22.377  0.00  0.00     0.057 A 
ATOM      4  C   UNL d   1      33.048  22.331 -21.909  0.00  0.00     0.167 A 
ATOM      5  N   UNL d   1      33.086  20.386 -20.952  0.00  0.00    -0.161 NA
ATOM      6  N   UNL d   1      32.953  21.343 -23.222  0.00  0.00    -0.227 NA
ATOM      7  C   UNL d   1      33.004  22.666 -22.661  0.00  0.00     0.058 A 
ATOM      8  C   UNL d   1      33.038  19.891 -21.610  0.00  0.00     0.124 A 
ATOM      9  C   UNL d   1      32.955  22.163 -23.329  0.00  0.00     0.086 A 
ATOM     10  C   UNL d   1      32.909  22.503 -24.118  0.00  0.00     0.021 C 
ENDROOT
BRANCH   3  11
ATOM     11  C   UNL d   1      32.945  19.720 -23.035  0.00  0.00     0.005 A 
ATOM     12  C   UNL d   1      32.615  18.979 -22.962  0.00  0.00     0.001 A 
ATOM     13  C   UNL d   1      32.568  18.492 -23.609  0.00  0.00     0.011 A 
ATOM     14  C   UNL d   1      32.851  18.739 -24.341  0.00  0.00     0.058 A 
ATOM     15  C   UNL d   1      33.182  19.480 -24.413  0.00  0.00     0.011 A 
ATOM     16 CL   UNL d   1      32.801  18.219 -25.031  0.00  0.00    -0.082 Cl
ATOM     17  C   UNL d   1      33.229  19.975 -23.755  0.00  0.00     0.001 A 
ENDBRANCH   3  11
BRANCH   4  18
ATOM     18  N   UNL d   1      33.097  22.850 -21.226  0.00  0.00    -0.223 NA
BRANCH  18  19
ATOM     19  C   UNL d   1      32.864  23.531 -20.767  0.00  0.00     0.127 C 
BRANCH  19  20
ATOM     20  C   UNL d   1      33.235  23.654 -19.996  0.00  0.00     0.143 C 
BRANCH  20  21
ATOM     21  O   UNL d   1      32.799  23.498 -19.274  0.00  0.00    -0.298 OA
BRANCH  21  22
ATOM     22  C   UNL d   1      33.145  23.675 -18.503  0.00  0.00     0.168 C 
BRANCH  22  23
ATOM     23  C   UNL d   1      32.882  23.249 -17.807  0.00  0.00     0.261 C 
ATOM     24  O   UNL d   1      32.617  23.682 -17.110  0.00  0.00    -0.281 OA
ENDBRANCH  22  23
ENDBRANCH  21  22
ENDBRANCH  20  21
ENDBRANCH  19  20
ENDBRANCH  18  19
ENDBRANCH   4  18
TORSDOF 7
ENDMDL
MODEL 4
REMARK VINA RESULT:       0.3      1.086      1.940
REMARK  7 active torsions:
REMARK  status: ('A' for Active; 'I' for Inactive)
REMARK    1  A    between atoms: C_10  and  C_3 
REMARK    2  A    between atoms: N_11  and  C_4 
REMARK    3  A    between atoms: C_21  and  N_11 
REMARK    4  A    between atoms: O_20  and  C_23 
REMARK    5  A    between atoms: C_24  and  O_20 
REMARK    6  A    between atoms: C_23  and  C_21 
REMARK    7  A    between atoms: C_22  and  C_24 
ROOT
ATOM      1  C   UNL d   1      29.519  16.687 -24.034  0.00  0.00     0.167 A 
ATOM      2  N   UNL d   1      30.361  16.773 -24.121  0.00  0.00    -0.195 N 
ATOM      3  C   UNL d   1      29.213  16.049 -23.638  0.00  0.00     0.057 A 
ATOM      4  C   UNL d   1      30.647  17.415 -24.519  0.00  0.00     0.167 A 
ATOM      5  N   UNL d   1      30.545  15.561 -23.399  0.00  0.00    -0.161 NA
ATOM      6  N   UNL d   1      29.018  17.249 -24.351  0.00  0.00    -0.227 NA
ATOM      7  C   UNL d   1      30.150  17.987 -24.842  0.00  0.00     0.058 A 
ATOM      8  C   UNL d   1      29.729  15.477 -23.315  0.00  0.00     0.124 A 
ATOM      9  C   UNL d   1      29.321  17.903 -24.757  0.00  0.00     0.086 A 
ATOM     10  C   UNL d   1      28.794  18.495 -25.091  0.00  0.00     0.021 C 
ENDROOT
BRANCH   3  11
ATOM     11  C   UNL d   1      28.397  15.966 -23.554  0.00  0.00     0.005 A 
ATOM     12  C   UNL d   1      27.974  15.540 -24.105  0.00  0.00     0.001 A 
ATOM     13  C   UNL d   1      27.171  15.458 -24.023  0.00  0.00     0.011 A 
ATOM     14  C   UNL d   1      26.778  15.801 -23.388  0.00  0.00     0.058 A 
ATOM     15  C   UNL d   1      27.201  16.226 -22.836  0.00  0.00     0.011 A 
ATOM     16 CL   UNL d   1      25.921  15.713 -23.300  0.00  0.00    -0.082 Cl
ATOM     17  C   UNL d   1      28.018  16.310 -22.920  0.00  0.00     0.001 A 
ENDBRANCH   3  11
BRANCH   4  18
ATOM     18  N   UNL d   1      31.497  17.505 -24.608  0.00  0.00    -0.223 NA
BRANCH  18  19
ATOM     19  C   UNL d   1      32.275  17.713 -24.327  0.00  0.00     0.127 C 
BRANCH  19  20
ATOM     20  C   UNL d   1      32.522  18.541 -24.374  0.00  0.00     0.143 C 
BRANCH  20  21
ATOM     21  O   UNL d   1      33.075  18.863 -23.803  0.00  0.00    -0.298 OA
BRANCH  21  22
ATOM     22  C   UNL d   1      32.875  19.567 -23.345  0.00  0.00     0.168 C 
BRANCH  22  23
ATOM     23  C   UNL d   1      33.165  19.654 -22.543  0.00  0.00     0.261 C 
ATOM     24  O   UNL d   1      32.899  20.315 -22.057  0.00  0.00    -0.281 OA
ENDBRANCH  22  23
ENDBRANCH  21  22
ENDBRANCH  20  21
ENDBRANCH  19  20
ENDBRANCH  18  19
ENDBRANCH   4  18
TORSDOF 7
ENDMDL
MODEL 5
REMARK VINA RESULT:       0.6      3.233      5.794
REMARK  7 active torsions:
REMARK  status: ('A' for Active; 'I' for Inactive)
REMARK    1  A    between atoms: C_10  and  C_3 
REMARK    2  A    between atoms: N_11  and  C_4 
REMARK    3  A    between atoms: C_21  and  N_11 
REMARK    4  A    between atoms: O_20  and  C_23 
REMARK    5  A    between atoms: C_24  and  O_20 
REMARK    6  A    between atoms: C_23  and  C_21 
REMARK    7  A    between atoms: C_22  and  C_24 
ROOT
ATOM      1  C   UNL d   1      33.164  20.370 -22.822  0.00  0.00     0.167 A 
ATOM      2  N   UNL d   1      33.182  19.623 -23.229  0.00  0.00    -0.195 N 
ATOM      3  C   UNL d   1      33.128  20.391 -22.011  0.00  0.00     0.057 A 
ATOM      4  C   UNL d   1      33.217  19.622 -24.036  0.00  0.00     0.167 A 
ATOM      5  N   UNL d   1      33.127  18.953 -21.975  0.00  0.00    -0.161 NA
ATOM      6  N   UNL d   1      33.182  21.067 -23.247  0.00  0.00    -0.227 NA
ATOM      7  C   UNL d   1      33.236  20.319 -24.475  0.00  0.00     0.058 A 
ATOM      8  C   UNL d   1      33.110  19.677 -21.580  0.00  0.00     0.124 A 
ATOM      9  C   UNL d   1      33.218  21.055 -24.074  0.00  0.00     0.086 A 
ATOM     10  C   UNL d   1      33.238  21.788 -24.523  0.00  0.00     0.021 C 
ENDROOT
BRANCH   3  11
ATOM     11  C   UNL d   1      33.111  21.115 -21.616  0.00  0.00     0.005 A 
ATOM     12  C   UNL d   1      33.204  21.137 -20.807  0.00  0.00     0.001 A 
ATOM     13  C   UNL d   1      33.187  21.850 -20.418  0.00  0.00     0.011 A 
ATOM     14  C   UNL d   1      33.077  22.551 -20.833  0.00  0.00     0.058 A 
ATOM     15  C   UNL d   1      32.984  22.528 -21.642  0.00  0.00     0.011 A 
ATOM     16 CL   UNL d   1      33.058  23.310 -20.418  0.00  0.00    -0.082 Cl
ATOM     17  C   UNL d   1      33.001  21.804 -22.037  0.00  0.00     0.001 A 
ENDBRANCH   3  11
BRANCH   4  18
ATOM     18  N   UNL d   1      33.235  18.869 -24.451  0.00  0.00    -0.223 NA
BRANCH  18  19
ATOM     19  C   UNL d   1      32.924  18.293 -24.998  0.00  0.00     0.127 C 
BRANCH  19  20
ATOM     20  C   UNL d   1      32.669  17.527 -24.688  0.00  0.00     0.143 C 
BRANCH  20  21
ATOM     21  O   UNL d   1      32.013  17.109 -25.048  0.00  0.00    -0.298 OA
BRANCH  21  22
ATOM     22  C   UNL d   1      31.603  16.480 -24.621  0.00  0.00     0.168 C 
BRANCH  22  23
ATOM     23  C   UNL d   1      31.050  15.971 -25.033  0.00  0.00     0.261 C 
ATOM     24  O   UNL d   1      30.498  15.482 -24.587  0.00  0.00    -0.281 OA
ENDBRANCH  22  23
ENDBRANCH  21  22
ENDBRANCH  20  21
ENDBRANCH  19  20
ENDBRANCH  18  19
ENDBRANCH   4  18
TORSDOF 7
ENDMDL
