MODEL 1
REMARK VINA RESULT:      63.5      0.000      0.000
REMARK  6 active torsions:
REMARK  status: ('A' for Active; 'I' for Inactive)
REMARK    1  A    between atoms: C_17  and  N_1 
REMARK    2  A    between atoms: N_9  and  C_8 
REMARK    3  A    between atoms: C_11  and  O_21 
REMARK    4  A    between atoms: C_15  and  C_11 
REMARK    5  A    between atoms: C_30  and  C_17 
REMARK    6  A    between atoms: O_21  and  C_30 
ROOT
ATOM      1  N   UNL d   1     -49.645  27.101  33.404  0.00  0.00    -0.238 N 
ATOM      2  C   UNL d   1     -50.456  27.235  33.449  0.00  0.00     0.267 A 
ATOM      3  C   UNL d   1     -49.341  26.337  33.361  0.00  0.00     0.267 A 
ATOM      4  C   UNL d   1     -50.985  26.578  33.450  0.00  0.00     0.057 A 
ATOM      5  C   UNL d   1     -50.685  25.811  33.407  0.00  0.00     0.011 A 
ATOM      6  C   UNL d   1     -49.858  25.696  33.362  0.00  0.00     0.057 A 
ATOM      7  C   UNL d   1     -51.194  25.178  33.408  0.00  0.00     0.016 A 
ATOM      8  C   UNL d   1     -52.011  25.305  33.453  0.00  0.00     0.064 A 
ATOM      9  C   UNL d   1     -51.791  26.702  33.494  0.00  0.00     0.006 A 
ATOM     10  C   UNL d   1     -52.300  26.069  33.496  0.00  0.00     0.018 A 
ATOM     11  O   UNL d   1     -48.494  26.173  33.313  0.00  0.00    -0.267 OA
ATOM     12  O   UNL d   1     -50.735  28.012  33.492  0.00  0.00    -0.267 OA
ATOM     13  C   UNL d   1     -49.542  24.924  33.318  0.00  0.00     0.005 A 
ATOM     14  C   UNL d   1     -50.897  24.407  33.365  0.00  0.00     0.002 A 
ATOM     15  C   UNL d   1     -50.068  24.271  33.319  0.00  0.00     0.000 A 
ENDROOT
BRANCH   1  16
ATOM     16  C   UNL d   1     -49.116  27.758  33.403  0.00  0.00     0.113 C 
BRANCH  16  17
ATOM     17  C   UNL d   1     -48.911  28.120  34.116  0.00  0.00     0.145 C 
BRANCH  17  18
ATOM     18  O   UNL d   1     -48.160  28.411  34.219  0.00  0.00    -0.269 OA
BRANCH  18  19
ATOM     19  C   UNL d   1     -47.856  28.485  34.969  0.00  0.00     0.300 C 
ATOM     20  O   UNL d   1     -47.823  27.840  35.477  0.00  0.00    -0.259 OA
BRANCH  19  21
ATOM     21  C   UNL d   1     -47.575  29.215  35.225  0.00  0.00     0.064 A 
ATOM     22  C   UNL d   1     -47.792  29.492  35.968  0.00  0.00     0.006 A 
ATOM     23  C   UNL d   1     -47.504  30.242  36.231  0.00  0.00     0.012 A 
ATOM     24  C   UNL d   1     -47.012  30.684  35.741  0.00  0.00     0.058 A 
ATOM     25  C   UNL d   1     -46.801  30.402  35.006  0.00  0.00     0.012 A 
ATOM     26 CL   UNL d   1     -46.735  31.405  35.994  0.00  0.00    -0.082 Cl
ATOM     27  C   UNL d   1     -47.080  29.677  34.751  0.00  0.00     0.006 A 
ENDBRANCH  19  21
ENDBRANCH  18  19
ENDBRANCH  17  18
ENDBRANCH  16  17
ENDBRANCH   1  16
BRANCH   8  28
ATOM     28  N   UNL d   1     -52.534  24.656  33.454  0.00  0.00    -0.300 N 
ATOM     29  C   UNL d   1     -52.246  23.900  33.559  0.00  0.00     0.107 A 
ATOM     30  C   UNL d   1     -52.759  23.263  33.560  0.00  0.00     0.142 A 
ATOM     31  O   UNL d   1     -53.559  23.383  33.457  0.00  0.00    -0.300 OA
ATOM     32  C   UNL d   1     -53.855  24.146  33.350  0.00  0.00     0.142 A 
ATOM     33  C   UNL d   1     -53.343  24.782  33.349  0.00  0.00     0.107 A 
ENDBRANCH   8  28
TORSDOF 6
ENDMDL
