MODEL 1
REMARK VINA RESULT:      -6.9      0.000      0.000
REMARK  3 active torsions:
REMARK  status: ('A' for Active; 'I' for Inactive)
REMARK    1  A    between atoms: C_10  and  C_4 
REMARK    2  A    between atoms: S_9  and  C_10 
REMARK    3  A    between atoms: C_11  and  S_9 
ROOT
ATOM      1  C   UNL d   1      53.305  32.673  53.460  0.00  0.00     0.056 C 
ENDROOT
BRANCH   1   2
ATOM      2  S   UNL d   1      52.687  33.129  53.702  0.00  0.00    -0.085 SA
BRANCH   2   3
ATOM      3  C   UNL d   1      52.817  33.913  53.922  0.00  0.00     0.030 A 
ATOM      4  C   UNL d   1      52.647  34.521  53.394  0.00  0.00     0.007 A 
ATOM      5  C   UNL d   1      52.782  35.301  53.628  0.00  0.00     0.012 A 
ATOM      6  C   UNL d   1      53.082  35.478  54.372  0.00  0.00     0.058 A 
ATOM      7  C   UNL d   1      53.250  34.862  54.893  0.00  0.00     0.012 A 
ATOM      8 CL   UNL d   1      53.214  36.266  54.593  0.00  0.00    -0.082 Cl
ATOM      9  C   UNL d   1      53.120  34.083  54.674  0.00  0.00     0.007 A 
ENDBRANCH   2   3
ENDBRANCH   1   2
BRANCH   1  10
ATOM     10  C   UNL d   1      53.224  31.866  53.432  0.00  0.00     0.107 A 
ATOM     11  N   UNL d   1      53.625  31.315  53.927  0.00  0.00    -0.220 NA
ATOM     12  C   UNL d   1      53.373  30.533  53.705  0.00  0.00     0.180 A 
ATOM     13  N   UNL d   1      52.812  30.611  53.066  0.00  0.00    -0.282 N 
ATOM     14  S   UNL d   1      53.463  29.703  53.872  0.00  0.00    -0.048 SA
ATOM     15  C   UNL d   1      52.728  31.439  52.906  0.00  0.00     0.102 A 
ATOM     16  C   UNL d   1      52.561  29.828  52.844  0.00  0.00     0.089 A 
ATOM     17  C   UNL d   1      52.965  29.271  53.343  0.00  0.00     0.057 A 
ENDBRANCH   1  10
TORSDOF 3
ENDMDL
MODEL 2
REMARK VINA RESULT:      -6.7      2.584      3.420
REMARK  3 active torsions:
REMARK  status: ('A' for Active; 'I' for Inactive)
REMARK    1  A    between atoms: C_10  and  C_4 
REMARK    2  A    between atoms: S_9  and  C_10 
REMARK    3  A    between atoms: C_11  and  S_9 
ROOT
ATOM      1  C   UNL d   1      51.916  33.545  53.289  0.00  0.00     0.056 C 
ENDROOT
BRANCH   1   2
ATOM      2  S   UNL d   1      51.689  34.259  52.994  0.00  0.00    -0.085 SA
BRANCH   2   3
ATOM      3  C   UNL d   1      50.969  34.329  52.598  0.00  0.00     0.030 A 
ATOM      4  C   UNL d   1      50.931  34.187  51.788  0.00  0.00     0.007 A 
ATOM      5  C   UNL d   1      50.205  34.260  51.404  0.00  0.00     0.012 A 
ATOM      6  C   UNL d   1      49.524  34.471  51.813  0.00  0.00     0.058 A 
ATOM      7  C   UNL d   1      49.572  34.611  52.624  0.00  0.00     0.012 A 
ATOM      8 CL   UNL d   1      48.801  34.540  51.415  0.00  0.00    -0.082 Cl
ATOM      9  C   UNL d   1      50.288  34.542  53.018  0.00  0.00     0.007 A 
ENDBRANCH   2   3
ENDBRANCH   1   2
BRANCH   1  10
ATOM     10  C   UNL d   1      52.634  33.472  53.660  0.00  0.00     0.107 A 
ATOM     11  N   UNL d   1      52.829  33.781  54.419  0.00  0.00    -0.220 NA
ATOM     12  C   UNL d   1      53.637  33.574  54.586  0.00  0.00     0.180 A 
ATOM     13  N   UNL d   1      53.936  33.132  53.919  0.00  0.00    -0.282 N 
ATOM     14  S   UNL d   1      54.263  33.635  55.160  0.00  0.00    -0.048 SA
ATOM     15  C   UNL d   1      53.308  33.076  53.353  0.00  0.00     0.102 A 
ATOM     16  C   UNL d   1      54.745  32.925  54.087  0.00  0.00     0.089 A 
ATOM     17  C   UNL d   1      54.943  33.237  54.853  0.00  0.00     0.057 A 
ENDBRANCH   1  10
TORSDOF 3
ENDMDL
MODEL 3
REMARK VINA RESULT:      -6.7      2.552      3.727
REMARK  3 active torsions:
REMARK  status: ('A' for Active; 'I' for Inactive)
REMARK    1  A    between atoms: C_10  and  C_4 
REMARK    2  A    between atoms: S_9  and  C_10 
REMARK    3  A    between atoms: C_11  and  S_9 
ROOT
ATOM      1  C   UNL d   1      52.292  34.165  53.124  0.00  0.00     0.056 C 
ENDROOT
BRANCH   1   2
ATOM      2  S   UNL d   1      52.434  33.592  53.672  0.00  0.00    -0.085 SA
BRANCH   2   3
ATOM      3  C   UNL d   1      53.162  33.565  54.059  0.00  0.00     0.030 A 
ATOM      4  C   UNL d   1      53.333  34.115  54.647  0.00  0.00     0.007 A 
ATOM      5  C   UNL d   1      54.066  34.078  55.025  0.00  0.00     0.012 A 
ATOM      6  C   UNL d   1      54.621  33.505  54.827  0.00  0.00     0.058 A 
ATOM      7  C   UNL d   1      54.439  32.959  54.237  0.00  0.00     0.012 A 
ATOM      8 CL   UNL d   1      55.352  33.479  55.216  0.00  0.00    -0.082 Cl
ATOM      9  C   UNL d   1      53.715  32.985  53.852  0.00  0.00     0.007 A 
ENDBRANCH   2   3
ENDBRANCH   1   2
BRANCH   1  10
ATOM     10  C   UNL d   1      51.554  34.235  52.796  0.00  0.00     0.107 A 
ATOM     11  N   UNL d   1      50.854  34.471  53.203  0.00  0.00    -0.220 NA
ATOM     12  C   UNL d   1      50.213  34.467  52.644  0.00  0.00     0.180 A 
ATOM     13  N   UNL d   1      50.526  34.225  51.888  0.00  0.00    -0.282 N 
ATOM     14  S   UNL d   1      49.379  34.610  52.546  0.00  0.00    -0.048 SA
ATOM     15  C   UNL d   1      51.356  34.085  51.993  0.00  0.00     0.102 A 
ATOM     16  C   UNL d   1      49.884  34.222  51.329  0.00  0.00     0.089 A 
ATOM     17  C   UNL d   1      49.178  34.459  51.739  0.00  0.00     0.057 A 
ENDBRANCH   1  10
TORSDOF 3
ENDMDL
MODEL 4
REMARK VINA RESULT:      -6.4      2.247      4.528
REMARK  3 active torsions:
REMARK  status: ('A' for Active; 'I' for Inactive)
REMARK    1  A    between atoms: C_10  and  C_4 
REMARK    2  A    between atoms: S_9  and  C_10 
REMARK    3  A    between atoms: C_11  and  S_9 
ROOT
ATOM      1  C   UNL d   1      53.702  32.427  53.986  0.00  0.00     0.056 C 
ENDROOT
BRANCH   1   2
ATOM      2  S   UNL d   1      53.353  32.051  53.366  0.00  0.00    -0.085 SA
BRANCH   2   3
ATOM      3  C   UNL d   1      53.237  31.234  53.394  0.00  0.00     0.030 A 
ATOM      4  C   UNL d   1      53.755  30.761  53.825  0.00  0.00     0.007 A 
ATOM      5  C   UNL d   1      53.627  29.947  53.844  0.00  0.00     0.012 A 
ATOM      6  C   UNL d   1      52.998  29.603  53.445  0.00  0.00     0.058 A 
ATOM      7  C   UNL d   1      52.485  30.085  53.016  0.00  0.00     0.012 A 
ATOM      8 CL   UNL d   1      52.881  28.782  53.473  0.00  0.00    -0.082 Cl
ATOM      9  C   UNL d   1      52.600  30.896  52.988  0.00  0.00     0.007 A 
ENDBRANCH   2   3
ENDBRANCH   1   2
BRANCH   1  10
ATOM     10  C   UNL d   1      53.532  33.207  54.132  0.00  0.00     0.107 A 
ATOM     11  N   UNL d   1      53.232  33.758  53.570  0.00  0.00    -0.220 NA
ATOM     12  C   UNL d   1      53.138  34.507  53.962  0.00  0.00     0.180 A 
ATOM     13  N   UNL d   1      53.384  34.409  54.774  0.00  0.00    -0.282 N 
ATOM     14  S   UNL d   1      52.894  35.316  53.860  0.00  0.00    -0.048 SA
ATOM     15  C   UNL d   1      53.626  33.601  54.867  0.00  0.00     0.102 A 
ATOM     16  C   UNL d   1      53.290  35.159  55.167  0.00  0.00     0.089 A 
ATOM     17  C   UNL d   1      52.987  35.716  54.600  0.00  0.00     0.057 A 
ENDBRANCH   1  10
TORSDOF 3
ENDMDL
