MODEL 1
REMARK VINA RESULT:      -5.0      0.000      0.000
REMARK  3 active torsions:
REMARK  status: ('A' for Active; 'I' for Inactive)
REMARK    1  A    between atoms: S_6  and  C_1 
REMARK    2  A    between atoms: C_9  and  S_6 
REMARK    3  A    between atoms: C_7  and  C_9 
ROOT
ATOM      1  C   UNL d   1      57.257   0.115  31.310  0.00  0.00     0.137 A 
ATOM      2  N   UNL d   1      57.051  -0.663  31.470  0.00  0.00    -0.232 NA
ATOM      3  S   UNL d   1      56.876   0.601  31.846  0.00  0.00    -0.060 SA
ATOM      4  C   UNL d   1      56.544  -0.666  32.104  0.00  0.00     0.088 A 
ATOM      5  C   UNL d   1      56.434   0.125  32.339  0.00  0.00     0.049 A 
ATOM      6  C   UNL d   1      56.165  -1.266  32.503  0.00  0.00     0.020 A 
ATOM      7  C   UNL d   1      55.948   0.297  32.968  0.00  0.00     0.008 A 
ATOM      8  C   UNL d   1      55.556  -0.306  33.382  0.00  0.00     0.001 A 
ATOM      9  C   UNL d   1      55.663  -1.079  33.153  0.00  0.00     0.002 A 
ENDROOT
BRANCH   1  10
ATOM     10  S   UNL d   1      57.760   0.343  30.709  0.00  0.00    -0.077 SA
BRANCH  10  11
ATOM     11  C   UNL d   1      58.047  -0.243  30.194  0.00  0.00     0.161 C 
BRANCH  11  12
ATOM     12  C   UNL d   1      58.499  -0.021  29.532  0.00  0.00     0.197 C 
ATOM     13  O   UNL d   1      58.137   0.073  28.784  0.00  0.00    -0.647 OA
ATOM     14  O   UNL d   1      59.299   0.105  29.611  0.00  0.00    -0.647 OA
ENDBRANCH  11  12
ENDBRANCH  10  11
ENDBRANCH   1  10
TORSDOF 3
ENDMDL
MODEL 2
REMARK VINA RESULT:      -4.1      2.713      3.742
REMARK  3 active torsions:
REMARK  status: ('A' for Active; 'I' for Inactive)
REMARK    1  A    between atoms: S_6  and  C_1 
REMARK    2  A    between atoms: C_9  and  S_6 
REMARK    3  A    between atoms: C_7  and  C_9 
ROOT
ATOM      1  C   UNL d   1      56.435   0.076  32.772  0.00  0.00     0.137 A 
ATOM      2  N   UNL d   1      56.551  -0.624  32.360  0.00  0.00    -0.232 NA
ATOM      3  S   UNL d   1      56.818   0.679  32.375  0.00  0.00    -0.060 SA
ATOM      4  C   UNL d   1      57.006  -0.462  31.707  0.00  0.00     0.088 A 
ATOM      5  C   UNL d   1      57.173   0.353  31.716  0.00  0.00     0.049 A 
ATOM      6  C   UNL d   1      57.293  -0.930  31.106  0.00  0.00     0.020 A 
ATOM      7  C   UNL d   1      57.623   0.681  31.124  0.00  0.00     0.008 A 
ATOM      8  C   UNL d   1      57.921   0.214  30.506  0.00  0.00     0.001 A 
ATOM      9  C   UNL d   1      57.758  -0.583  30.497  0.00  0.00     0.002 A 
ENDROOT
BRANCH   1  10
ATOM     10  S   UNL d   1      56.004   0.137  33.462  0.00  0.00    -0.077 SA
BRANCH  10  11
ATOM     11  C   UNL d   1      55.282   0.550  33.439  0.00  0.00     0.161 C 
BRANCH  11  12
ATOM     12  C   UNL d   1      54.817   0.601  34.127  0.00  0.00     0.197 C 
ATOM     13  O   UNL d   1      53.987   0.682  34.073  0.00  0.00    -0.647 OA
ATOM     14  O   UNL d   1      55.172   0.573  34.858  0.00  0.00    -0.647 OA
ENDBRANCH  11  12
ENDBRANCH  10  11
ENDBRANCH   1  10
TORSDOF 3
ENDMDL
MODEL 3
REMARK VINA RESULT:      -3.7      2.040      3.617
REMARK  3 active torsions:
REMARK  status: ('A' for Active; 'I' for Inactive)
REMARK    1  A    between atoms: S_6  and  C_1 
REMARK    2  A    between atoms: C_9  and  S_6 
REMARK    3  A    between atoms: C_7  and  C_9 
ROOT
ATOM      1  C   UNL d   1      57.372  -0.018  31.321  0.00  0.00     0.137 A 
ATOM      2  N   UNL d   1      57.445  -0.460  30.633  0.00  0.00    -0.232 NA
ATOM      3  S   UNL d   1      58.016   0.482  31.378  0.00  0.00    -0.060 SA
ATOM      4  C   UNL d   1      58.132  -0.239  30.261  0.00  0.00     0.088 A 
ATOM      5  C   UNL d   1      58.489   0.350  30.726  0.00  0.00     0.049 A 
ATOM      6  C   UNL d   1      58.486  -0.484  29.569  0.00  0.00     0.020 A 
ATOM      7  C   UNL d   1      59.193   0.682  30.490  0.00  0.00     0.008 A 
ATOM      8  C   UNL d   1      59.564   0.441  29.787  0.00  0.00     0.001 A 
ATOM      9  C   UNL d   1      59.215  -0.136  29.332  0.00  0.00     0.002 A 
ENDROOT
BRANCH   1  10
ATOM     10  S   UNL d   1      56.751  -0.083  31.846  0.00  0.00    -0.077 SA
BRANCH  10  11
ATOM     11  C   UNL d   1      56.623  -0.818  32.213  0.00  0.00     0.161 C 
BRANCH  11  12
ATOM     12  C   UNL d   1      55.997  -0.901  32.755  0.00  0.00     0.197 C 
ATOM     13  O   UNL d   1      55.842  -1.641  33.112  0.00  0.00    -0.647 OA
ATOM     14  O   UNL d   1      55.533  -0.260  32.939  0.00  0.00    -0.647 OA
ENDBRANCH  11  12
ENDBRANCH  10  11
ENDBRANCH   1  10
TORSDOF 3
ENDMDL
MODEL 4
REMARK VINA RESULT:      -2.7      9.575      9.939
REMARK  3 active torsions:
REMARK  status: ('A' for Active; 'I' for Inactive)
REMARK    1  A    between atoms: S_6  and  C_1 
REMARK    2  A    between atoms: C_9  and  S_6 
REMARK    3  A    between atoms: C_7  and  C_9 
ROOT
ATOM      1  C   UNL d   1      59.544  -9.426  34.102  0.00  0.00     0.137 A 
ATOM      2  N   UNL d   1      59.176  -8.846  34.551  0.00  0.00    -0.232 NA
ATOM      3  S   UNL d   1      60.281  -9.575  34.424  0.00  0.00    -0.060 SA
ATOM      4  C   UNL d   1      59.678  -8.632  35.151  0.00  0.00     0.088 A 
ATOM      5  C   UNL d   1      60.370  -9.088  35.072  0.00  0.00     0.049 A 
ATOM      6  C   UNL d   1      59.613  -8.092  35.758  0.00  0.00     0.020 A 
ATOM      7  C   UNL d   1      60.980  -8.993  35.601  0.00  0.00     0.008 A 
ATOM      8  C   UNL d   1      60.925  -8.447  36.223  0.00  0.00     0.001 A 
ATOM      9  C   UNL d   1      60.249  -8.001  36.301  0.00  0.00     0.002 A 
ENDROOT
BRANCH   1  10
ATOM     10  S   UNL d   1      59.212  -9.781  33.447  0.00  0.00    -0.077 SA
BRANCH  10  11
ATOM     11  C   UNL d   1      58.666  -9.343  32.998  0.00  0.00     0.161 C 
BRANCH  11  12
ATOM     12  C   UNL d   1      58.379  -9.657  32.283  0.00  0.00     0.197 C 
ATOM     13  O   UNL d   1      57.563  -9.809  32.183  0.00  0.00    -0.647 OA
ATOM     14  O   UNL d   1      58.895  -9.817  31.675  0.00  0.00    -0.647 OA
ENDBRANCH  11  12
ENDBRANCH  10  11
ENDBRANCH   1  10
TORSDOF 3
ENDMDL
MODEL 5
REMARK VINA RESULT:      -2.4      9.860     10.192
REMARK  3 active torsions:
REMARK  status: ('A' for Active; 'I' for Inactive)
REMARK    1  A    between atoms: S_6  and  C_1 
REMARK    2  A    between atoms: C_9  and  S_6 
REMARK    3  A    between atoms: C_7  and  C_9 
ROOT
ATOM      1  C   UNL d   1      59.311  -9.812  33.020  0.00  0.00     0.137 A 
ATOM      2  N   UNL d   1      59.621  -9.814  32.260  0.00  0.00    -0.232 NA
ATOM      3  S   UNL d   1      58.496  -9.812  32.968  0.00  0.00    -0.060 SA
ATOM      4  C   UNL d   1      59.002  -9.815  31.733  0.00  0.00     0.088 A 
ATOM      5  C   UNL d   1      58.298  -9.814  32.177  0.00  0.00     0.049 A 
ATOM      6  C   UNL d   1      58.972  -9.817  30.919  0.00  0.00     0.020 A 
ATOM      7  C   UNL d   1      57.580  -9.815  31.796  0.00  0.00     0.008 A 
ATOM      8  C   UNL d   1      57.536  -9.817  30.967  0.00  0.00     0.001 A 
ATOM      9  C   UNL d   1      58.224  -9.818  30.534  0.00  0.00     0.002 A 
ENDROOT
BRANCH   1  10
ATOM     10  S   UNL d   1      59.762  -9.810  33.700  0.00  0.00    -0.077 SA
BRANCH  10  11
ATOM     11  C   UNL d   1      59.724  -9.143  34.194  0.00  0.00     0.161 C 
BRANCH  11  12
ATOM     12  C   UNL d   1      60.256  -9.073  34.830  0.00  0.00     0.197 C 
ATOM     13  O   UNL d   1      60.404  -9.724  35.333  0.00  0.00    -0.647 OA
ATOM     14  O   UNL d   1      60.636  -8.367  34.963  0.00  0.00    -0.647 OA
ENDBRANCH  11  12
ENDBRANCH  10  11
ENDBRANCH   1  10
TORSDOF 3
ENDMDL
