MODEL 1
REMARK VINA RESULT:      -3.5      0.000      0.000
REMARK  4 active torsions:
REMARK  status: ('A' for Active; 'I' for Inactive)
REMARK    1  A    between atoms: C_2  and  N_1 
REMARK       I    between atoms: C_3  and  N_1 
REMARK    2  A    between atoms: C_4  and  C_3 
REMARK    3  A    between atoms: C_6  and  C_4 
REMARK    4  A    between atoms: C_10  and  C_6 
ROOT
ATOM      1  N   UNL d   1      31.970  18.029 -23.607  0.00  0.00    -0.208 NA
ATOM      2  C   UNL d   1      32.659  18.280 -23.222  0.00  0.00     0.279 C 
ATOM      3  O   UNL d   1      33.241  17.728 -23.030  0.00  0.00    -0.265 OA
ENDROOT
BRANCH   1   4
ATOM      4  C   UNL d   1      31.869  17.230 -23.794  0.00  0.00     0.085 A 
ATOM      5  C   UNL d   1      31.198  16.998 -24.196  0.00  0.00     0.021 A 
ATOM      6  C   UNL d   1      31.087  16.198 -24.389  0.00  0.00     0.021 A 
ATOM      7  C   UNL d   1      30.624  17.549 -24.415  0.00  0.00     0.022 A 
ATOM      8  C   UNL d   1      30.419  15.964 -24.791  0.00  0.00     0.099 A 
ATOM      9  C   UNL d   1      31.662  15.647 -24.170  0.00  0.00     0.002 A 
ATOM     10  N   UNL d   1      29.851  16.508 -25.007  0.00  0.00    -0.242 NA
ATOM     11  C   UNL d   1      29.951  17.308 -24.820  0.00  0.00     0.099 A 
ATOM     12  C   UNL d   1      32.340  15.889 -23.763  0.00  0.00     0.002 A 
ATOM     13  C   UNL d   1      32.438  16.684 -23.577  0.00  0.00     0.019 A 
ENDBRANCH   1   4
BRANCH   2  14
ATOM     14  C   UNL d   1      32.766  19.074 -23.032  0.00  0.00     0.062 C 
BRANCH  14  15
ATOM     15  C   UNL d   1      33.164  19.281 -22.343  0.00  0.00     0.005 C 
BRANCH  15  16
ATOM     16  C   UNL d   1      33.116  20.059 -22.064  0.00  0.00     0.000 A 
ATOM     17  C   UNL d   1      32.944  20.197 -21.268  0.00  0.00     0.000 A 
ATOM     18  C   UNL d   1      32.895  20.968 -20.984  0.00  0.00     0.000 A 
ATOM     19  C   UNL d   1      33.020  21.608 -21.498  0.00  0.00     0.000 A 
ATOM     20  C   UNL d   1      33.192  21.472 -22.291  0.00  0.00     0.000 A 
ATOM     21  C   UNL d   1      33.241  20.699 -22.577  0.00  0.00     0.000 A 
ENDBRANCH  15  16
ENDBRANCH  14  15
ENDBRANCH   2  14
TORSDOF 4
ENDMDL
MODEL 2
REMARK VINA RESULT:      -3.3      1.959      5.327
REMARK  4 active torsions:
REMARK  status: ('A' for Active; 'I' for Inactive)
REMARK    1  A    between atoms: C_2  and  N_1 
REMARK       I    between atoms: C_3  and  N_1 
REMARK    2  A    between atoms: C_4  and  C_3 
REMARK    3  A    between atoms: C_6  and  C_4 
REMARK    4  A    between atoms: C_10  and  C_6 
ROOT
ATOM      1  N   UNL d   1      32.959  20.857 -22.107  0.00  0.00    -0.208 NA
ATOM      2  C   UNL d   1      33.079  20.037 -22.112  0.00  0.00     0.279 C 
ATOM      3  O   UNL d   1      33.240  19.646 -21.403  0.00  0.00    -0.265 OA
ENDROOT
BRANCH   1   4
ATOM      4  C   UNL d   1      33.001  21.276 -21.394  0.00  0.00     0.085 A 
ATOM      5  C   UNL d   1      32.842  22.076 -21.396  0.00  0.00     0.021 A 
ATOM      6  C   UNL d   1      32.882  22.506 -20.686  0.00  0.00     0.021 A 
ATOM      7  C   UNL d   1      32.643  22.468 -22.094  0.00  0.00     0.022 A 
ATOM      8  C   UNL d   1      32.724  23.305 -20.684  0.00  0.00     0.099 A 
ATOM      9  C   UNL d   1      33.081  22.115 -19.988  0.00  0.00     0.002 A 
ATOM     10  N   UNL d   1      32.526  23.693 -21.375  0.00  0.00    -0.242 NA
ATOM     11  C   UNL d   1      32.484  23.274 -22.087  0.00  0.00     0.099 A 
ATOM     12  C   UNL d   1      33.241  21.303 -19.994  0.00  0.00     0.002 A 
ATOM     13  C   UNL d   1      33.199  20.888 -20.703  0.00  0.00     0.019 A 
ENDBRANCH   1   4
BRANCH   2  14
ATOM     14  C   UNL d   1      33.039  19.614 -22.817  0.00  0.00     0.062 C 
BRANCH  14  15
ATOM     15  C   UNL d   1      33.024  18.791 -22.801  0.00  0.00     0.005 C 
BRANCH  15  16
ATOM     16  C   UNL d   1      32.840  18.375 -23.492  0.00  0.00     0.000 A 
ATOM     17  C   UNL d   1      32.367  17.699 -23.447  0.00  0.00     0.000 A 
ATOM     18  C   UNL d   1      32.180  17.280 -24.131  0.00  0.00     0.000 A 
ATOM     19  C   UNL d   1      32.467  17.536 -24.866  0.00  0.00     0.000 A 
ATOM     20  C   UNL d   1      32.939  18.210 -24.912  0.00  0.00     0.000 A 
ATOM     21  C   UNL d   1      33.127  18.631 -24.227  0.00  0.00     0.000 A 
ENDBRANCH  15  16
ENDBRANCH  14  15
ENDBRANCH   2  14
TORSDOF 4
ENDMDL
MODEL 3
REMARK VINA RESULT:      -3.2      1.776      2.585
REMARK  4 active torsions:
REMARK  status: ('A' for Active; 'I' for Inactive)
REMARK    1  A    between atoms: C_2  and  N_1 
REMARK       I    between atoms: C_3  and  N_1 
REMARK    2  A    between atoms: C_4  and  C_3 
REMARK    3  A    between atoms: C_6  and  C_4 
REMARK    4  A    between atoms: C_10  and  C_6 
ROOT
ATOM      1  N   UNL d   1      33.004  19.888 -22.560  0.00  0.00    -0.208 NA
ATOM      2  C   UNL d   1      33.106  20.125 -21.773  0.00  0.00     0.279 C 
ATOM      3  O   UNL d   1      33.229  19.555 -21.189  0.00  0.00    -0.265 OA
ENDROOT
BRANCH   1   4
ATOM      4  C   UNL d   1      33.027  19.084 -22.754  0.00  0.00     0.085 A 
ATOM      5  C   UNL d   1      32.872  18.858 -23.523  0.00  0.00     0.021 A 
ATOM      6  C   UNL d   1      32.893  18.054 -23.729  0.00  0.00     0.021 A 
ATOM      7  C   UNL d   1      32.696  19.419 -24.103  0.00  0.00     0.022 A 
ATOM      8  C   UNL d   1      32.739  17.825 -24.496  0.00  0.00     0.099 A 
ATOM      9  C   UNL d   1      33.069  17.493 -23.150  0.00  0.00     0.002 A 
ATOM     10  N   UNL d   1      32.564  18.379 -25.069  0.00  0.00    -0.242 NA
ATOM     11  C   UNL d   1      32.542  19.183 -24.874  0.00  0.00     0.099 A 
ATOM     12  C   UNL d   1      33.225  17.729 -22.373  0.00  0.00     0.002 A 
ATOM     13  C   UNL d   1      33.202  18.529 -22.180  0.00  0.00     0.019 A 
ENDBRANCH   1   4
BRANCH   2  14
ATOM     14  C   UNL d   1      33.085  20.923 -21.571  0.00  0.00     0.062 C 
BRANCH  14  15
ATOM     15  C   UNL d   1      32.680  21.166 -20.897  0.00  0.00     0.005 C 
BRANCH  15  16
ATOM     16  C   UNL d   1      32.611  21.974 -20.733  0.00  0.00     0.000 A 
ATOM     17  C   UNL d   1      32.983  22.288 -20.066  0.00  0.00     0.000 A 
ATOM     18  C   UNL d   1      32.918  23.092 -19.898  0.00  0.00     0.000 A 
ATOM     19  C   UNL d   1      32.478  23.587 -20.398  0.00  0.00     0.000 A 
ATOM     20  C   UNL d   1      32.106  23.275 -21.063  0.00  0.00     0.000 A 
ATOM     21  C   UNL d   1      32.170  22.469 -21.233  0.00  0.00     0.000 A 
ENDBRANCH  15  16
ENDBRANCH  14  15
ENDBRANCH   2  14
TORSDOF 4
ENDMDL
MODEL 4
REMARK VINA RESULT:      -2.6      1.519      5.041
REMARK  4 active torsions:
REMARK  status: ('A' for Active; 'I' for Inactive)
REMARK    1  A    between atoms: C_2  and  N_1 
REMARK       I    between atoms: C_3  and  N_1 
REMARK    2  A    between atoms: C_4  and  C_3 
REMARK    3  A    between atoms: C_6  and  C_4 
REMARK    4  A    between atoms: C_10  and  C_6 
ROOT
ATOM      1  N   UNL d   1      33.060  19.612 -22.696  0.00  0.00    -0.208 NA
ATOM      2  C   UNL d   1      33.120  19.223 -23.425  0.00  0.00     0.279 C 
ATOM      3  O   UNL d   1      33.240  19.663 -24.112  0.00  0.00    -0.265 OA
ENDROOT
BRANCH   1   4
ATOM      4  C   UNL d   1      33.120  20.436 -22.662  0.00  0.00     0.085 A 
ATOM      5  C   UNL d   1      33.129  20.803 -21.933  0.00  0.00     0.021 A 
ATOM      6  C   UNL d   1      33.189  21.630 -21.888  0.00  0.00     0.021 A 
ATOM      7  C   UNL d   1      33.079  20.364 -21.236  0.00  0.00     0.022 A 
ATOM      8  C   UNL d   1      33.198  21.999 -21.162  0.00  0.00     0.099 A 
ATOM      9  C   UNL d   1      33.239  22.069 -22.585  0.00  0.00     0.002 A 
ATOM     10  N   UNL d   1      33.148  21.565 -20.473  0.00  0.00    -0.242 NA
ATOM     11  C   UNL d   1      33.088  20.741 -20.507  0.00  0.00     0.099 A 
ATOM     12  C   UNL d   1      33.229  21.691 -23.320  0.00  0.00     0.002 A 
ATOM     13  C   UNL d   1      33.169  20.871 -23.352  0.00  0.00     0.019 A 
ENDBRANCH   1   4
BRANCH   2  14
ATOM     14  C   UNL d   1      33.062  18.402 -23.466  0.00  0.00     0.062 C 
BRANCH  14  15
ATOM     15  C   UNL d   1      32.698  18.049 -24.114  0.00  0.00     0.005 C 
BRANCH  15  16
ATOM     16  C   UNL d   1      32.486  17.250 -24.076  0.00  0.00     0.000 A 
ATOM     17  C   UNL d   1      33.022  16.674 -24.327  0.00  0.00     0.000 A 
ATOM     18  C   UNL d   1      32.816  15.877 -24.292  0.00  0.00     0.000 A 
ATOM     19  C   UNL d   1      32.071  15.652 -24.004  0.00  0.00     0.000 A 
ATOM     20  C   UNL d   1      31.536  16.226 -23.754  0.00  0.00     0.000 A 
ATOM     21  C   UNL d   1      31.741  17.026 -23.789  0.00  0.00     0.000 A 
ENDBRANCH  15  16
ENDBRANCH  14  15
ENDBRANCH   2  14
TORSDOF 4
ENDMDL
MODEL 5
REMARK VINA RESULT:      -2.5      1.495      2.043
REMARK  4 active torsions:
REMARK  status: ('A' for Active; 'I' for Inactive)
REMARK    1  A    between atoms: C_2  and  N_1 
REMARK       I    between atoms: C_3  and  N_1 
REMARK    2  A    between atoms: C_4  and  C_3 
REMARK    3  A    between atoms: C_6  and  C_4 
REMARK    4  A    between atoms: C_10  and  C_6 
ROOT
ATOM      1  N   UNL d   1      32.958  18.403 -23.014  0.00  0.00    -0.208 NA
ATOM      2  C   UNL d   1      32.937  19.231 -23.020  0.00  0.00     0.279 C 
ATOM      3  O   UNL d   1      32.771  19.627 -23.724  0.00  0.00    -0.265 OA
ENDROOT
BRANCH   1   4
ATOM      4  C   UNL d   1      32.812  17.981 -23.710  0.00  0.00     0.085 A 
ATOM      5  C   UNL d   1      32.906  17.170 -23.709  0.00  0.00     0.021 A 
ATOM      6  C   UNL d   1      32.763  16.737 -24.403  0.00  0.00     0.021 A 
ATOM      7  C   UNL d   1      33.143  16.771 -23.027  0.00  0.00     0.022 A 
ATOM      8  C   UNL d   1      32.856  15.928 -24.406  0.00  0.00     0.099 A 
ATOM      9  C   UNL d   1      32.526  17.136 -25.086  0.00  0.00     0.002 A 
ATOM     10  N   UNL d   1      33.090  15.533 -23.731  0.00  0.00    -0.242 NA
ATOM     11  C   UNL d   1      33.235  15.955 -23.034  0.00  0.00     0.099 A 
ATOM     12  C   UNL d   1      32.433  17.957 -25.080  0.00  0.00     0.002 A 
ATOM     13  C   UNL d   1      32.578  18.376 -24.386  0.00  0.00     0.019 A 
ENDBRANCH   1   4
BRANCH   2  14
ATOM     14  C   UNL d   1      33.081  19.658 -22.331  0.00  0.00     0.062 C 
BRANCH  14  15
ATOM     15  C   UNL d   1      33.113  20.479 -22.356  0.00  0.00     0.005 C 
BRANCH  15  16
ATOM     16  C   UNL d   1      33.052  20.910 -21.653  0.00  0.00     0.000 A 
ATOM     17  C   UNL d   1      32.803  21.697 -21.677  0.00  0.00     0.000 A 
ATOM     18  C   UNL d   1      32.741  22.132 -20.980  0.00  0.00     0.000 A 
ATOM     19  C   UNL d   1      32.929  21.780 -20.252  0.00  0.00     0.000 A 
ATOM     20  C   UNL d   1      33.178  20.995 -20.227  0.00  0.00     0.000 A 
ATOM     21  C   UNL d   1      33.241  20.558 -20.925  0.00  0.00     0.000 A 
ENDBRANCH  15  16
ENDBRANCH  14  15
ENDBRANCH   2  14
TORSDOF 4
ENDMDL
MODEL 6
REMARK VINA RESULT:      -2.2      1.256      2.019
REMARK  4 active torsions:
REMARK  status: ('A' for Active; 'I' for Inactive)
REMARK    1  A    between atoms: C_2  and  N_1 
REMARK       I    between atoms: C_3  and  N_1 
REMARK    2  A    between atoms: C_4  and  C_3 
REMARK    3  A    between atoms: C_6  and  C_4 
REMARK    4  A    between atoms: C_10  and  C_6 
ROOT
ATOM      1  N   UNL d   1      30.711  17.535 -24.240  0.00  0.00    -0.208 NA
ATOM      2  C   UNL d   1      31.531  17.537 -24.354  0.00  0.00     0.279 C 
ATOM      3  O   UNL d   1      31.913  16.838 -24.569  0.00  0.00    -0.265 OA
ENDROOT
BRANCH   1   4
ATOM      4  C   UNL d   1      30.282  16.835 -24.343  0.00  0.00     0.085 A 
ATOM      5  C   UNL d   1      29.495  16.818 -24.128  0.00  0.00     0.021 A 
ATOM      6  C   UNL d   1      29.055  16.120 -24.227  0.00  0.00     0.021 A 
ATOM      7  C   UNL d   1      29.126  17.486 -23.814  0.00  0.00     0.022 A 
ATOM      8  C   UNL d   1      28.269  16.100 -24.014  0.00  0.00     0.099 A 
ATOM      9  C   UNL d   1      29.423  15.453 -24.541  0.00  0.00     0.002 A 
ATOM     10  N   UNL d   1      27.904  16.761 -23.703  0.00  0.00    -0.242 NA
ATOM     11  C   UNL d   1      28.333  17.461 -23.601  0.00  0.00     0.099 A 
ATOM     12  C   UNL d   1      30.221  15.477 -24.756  0.00  0.00     0.002 A 
ATOM     13  C   UNL d   1      30.647  16.174 -24.654  0.00  0.00     0.019 A 
ENDBRANCH   1   4
BRANCH   2  14
ATOM     14  C   UNL d   1      31.965  18.230 -24.254  0.00  0.00     0.062 C 
BRANCH  14  15
ATOM     15  C   UNL d   1      32.657  18.220 -23.810  0.00  0.00     0.005 C 
BRANCH  15  16
ATOM     16  C   UNL d   1      32.851  18.877 -23.345  0.00  0.00     0.000 A 
ATOM     17  C   UNL d   1      33.045  19.592 -23.711  0.00  0.00     0.000 A 
ATOM     18  C   UNL d   1      33.239  20.249 -23.254  0.00  0.00     0.000 A 
ATOM     19  C   UNL d   1      33.241  20.194 -22.426  0.00  0.00     0.000 A 
ATOM     20  C   UNL d   1      33.048  19.482 -22.060  0.00  0.00     0.000 A 
ATOM     21  C   UNL d   1      32.853  18.821 -22.517  0.00  0.00     0.000 A 
ENDBRANCH  15  16
ENDBRANCH  14  15
ENDBRANCH   2  14
TORSDOF 4
ENDMDL
MODEL 7
REMARK VINA RESULT:      -1.2      3.579      5.502
REMARK  4 active torsions:
REMARK  status: ('A' for Active; 'I' for Inactive)
REMARK    1  A    between atoms: C_2  and  N_1 
REMARK       I    between atoms: C_3  and  N_1 
REMARK    2  A    between atoms: C_4  and  C_3 
REMARK    3  A    between atoms: C_6  and  C_4 
REMARK    4  A    between atoms: C_10  and  C_6 
ROOT
ATOM      1  N   UNL d   1      33.116  22.434 -20.765  0.00  0.00    -0.208 NA
ATOM      2  C   UNL d   1      32.644  23.066 -20.513  0.00  0.00     0.279 C 
ATOM      3  O   UNL d   1      32.125  23.423 -21.045  0.00  0.00    -0.265 OA
ENDROOT
BRANCH   1   4
ATOM      4  C   UNL d   1      33.065  22.167 -21.546  0.00  0.00     0.085 A 
ATOM      5  C   UNL d   1      33.105  21.365 -21.693  0.00  0.00     0.021 A 
ATOM      6  C   UNL d   1      33.055  21.086 -22.474  0.00  0.00     0.021 A 
ATOM      7  C   UNL d   1      33.196  20.824 -21.077  0.00  0.00     0.022 A 
ATOM      8  C   UNL d   1      33.095  20.287 -22.625  0.00  0.00     0.099 A 
ATOM      9  C   UNL d   1      32.964  21.627 -23.091  0.00  0.00     0.002 A 
ATOM     10  N   UNL d   1      33.185  19.752 -22.015  0.00  0.00    -0.242 NA
ATOM     11  C   UNL d   1      33.236  20.019 -21.234  0.00  0.00     0.099 A 
ATOM     12  C   UNL d   1      32.923  22.438 -22.934  0.00  0.00     0.002 A 
ATOM     13  C   UNL d   1      32.975  22.702 -22.156  0.00  0.00     0.019 A 
ENDBRANCH   1   4
BRANCH   2  14
ATOM     14  C   UNL d   1      32.689  23.338 -19.737  0.00  0.00     0.062 C 
BRANCH  14  15
ATOM     15  C   UNL d   1      32.487  22.839 -19.115  0.00  0.00     0.005 C 
BRANCH  15  16
ATOM     16  C   UNL d   1      32.509  23.126 -18.339  0.00  0.00     0.000 A 
ATOM     17  C   UNL d   1      31.810  23.376 -17.976  0.00  0.00     0.000 A 
ATOM     18  C   UNL d   1      31.825  23.663 -17.205  0.00  0.00     0.000 A 
ATOM     19  C   UNL d   1      32.543  23.702 -16.790  0.00  0.00     0.000 A 
ATOM     20  C   UNL d   1      33.241  23.453 -17.150  0.00  0.00     0.000 A 
ATOM     21  C   UNL d   1      33.227  23.165 -17.924  0.00  0.00     0.000 A 
ENDBRANCH  15  16
ENDBRANCH  14  15
ENDBRANCH   2  14
TORSDOF 4
ENDMDL
