MODEL 1
REMARK VINA RESULT:      29.6      0.000      0.000
REMARK  4 active torsions:
REMARK  status: ('A' for Active; 'I' for Inactive)
REMARK       I    between atoms: N_2  and  C_1 
REMARK    1  A    between atoms: C_4  and  C_1 
REMARK    2  A    between atoms: C_5  and  N_3 
REMARK    3  A    between atoms: O_21  and  C_8 
REMARK    4  A    between atoms: O_22  and  C_15 
ROOT
ATOM      1  C   UNL d   1      46.130 -14.878  44.324  0.00  0.00     0.265 C 
ATOM      2  N   UNL d   1      46.037 -15.629  44.005  0.00  0.00    -0.269 N 
ATOM      3  N   UNL d   1      45.852 -17.125  43.371  0.00  0.00    -0.301 N 
ATOM      4  C   UNL d   1      46.460 -16.256  44.318  0.00  0.00     0.102 A 
ATOM      5  C   UNL d   1      45.522 -15.742  43.379  0.00  0.00     0.102 A 
ATOM      6  C   UNL d   1      45.429 -16.492  43.061  0.00  0.00     0.100 A 
ATOM      7  C   UNL d   1      46.364 -17.010  43.995  0.00  0.00     0.100 A 
ATOM      8  O   UNL d   1      46.647 -14.757  44.955  0.00  0.00    -0.267 OA
ENDROOT
BRANCH   1   9
ATOM      9  C   UNL d   1      45.705 -14.244  44.012  0.00  0.00     0.059 A 
ATOM     10  C   UNL d   1      44.918 -14.123  44.238  0.00  0.00     0.031 A 
ATOM     11  C   UNL d   1      44.483 -13.481  43.922  0.00  0.00     0.116 A 
ATOM     12  C   UNL d   1      44.838 -12.968  43.387  0.00  0.00     0.116 A 
ATOM     13  C   UNL d   1      45.635 -13.088  43.156  0.00  0.00     0.026 A 
ATOM     14  C   UNL d   1      46.074 -13.723  43.465  0.00  0.00     0.007 A 
BRANCH  11  15
ATOM     15  O   UNL d   1      43.706 -13.366  44.149  0.00  0.00    -0.326 OA
ATOM     16  C   UNL d   1      43.321 -13.921  44.624  0.00  0.00     0.181 C 
ENDBRANCH  11  15
BRANCH  12  17
ATOM     17  O   UNL d   1      44.413 -12.335  43.074  0.00  0.00    -0.326 OA
ATOM     18  C   UNL d   1      44.415 -12.197  42.261  0.00  0.00     0.181 C 
ENDBRANCH  12  17
ENDBRANCH   1   9
BRANCH   3  19
ATOM     19  C   UNL d   1      46.046 -17.929  43.369  0.00  0.00     0.064 A 
ATOM     20  C   UNL d   1      46.190 -18.315  44.070  0.00  0.00     0.018 A 
ATOM     21  C   UNL d   1      46.383 -19.113  44.074  0.00  0.00     0.001 A 
ATOM     22  C   UNL d   1      46.528 -19.497  44.789  0.00  0.00     0.000 C 
ATOM     23  C   UNL d   1      46.432 -19.526  43.360  0.00  0.00     0.000 A 
ATOM     24  C   UNL d   1      46.286 -19.132  42.652  0.00  0.00     0.002 A 
ATOM     25  C   UNL d   1      46.626 -20.330  43.356  0.00  0.00     0.000 C 
ATOM     26  C   UNL d   1      46.091 -18.330  42.647  0.00  0.00     0.018 A 
ENDBRANCH   3  19
TORSDOF 4
ENDMDL
