MODEL 1
REMARK VINA RESULT:      -6.1      0.000      0.000
REMARK  0 active torsions:
REMARK  status: ('A' for Active; 'I' for Inactive)
ROOT
ATOM      1  C   UNL d   1     -46.215  12.132  23.469  0.00  0.00     0.311 A 
ATOM      2  N   UNL d   1     -45.892  12.884  23.331  0.00  0.00    -0.202 NA
ATOM      3  S   UNL d   1     -47.028  12.170  23.347  0.00  0.00    -0.024 SA
ATOM      4  C   UNL d   1     -46.519  13.390  23.121  0.00  0.00     0.091 A 
ATOM      5  C   UNL d   1     -47.218  12.950  23.131  0.00  0.00     0.052 A 
ATOM      6  O   UNL d   1     -45.786  11.456  23.694  0.00  0.00    -0.258 OA
ATOM      7  C   UNL d   1     -46.538  14.190  22.923  0.00  0.00     0.020 A 
ATOM      8  C   UNL d   1     -47.936  13.311  22.944  0.00  0.00     0.008 A 
ATOM      9  C   UNL d   1     -47.955  14.112  22.746  0.00  0.00     0.001 A 
ATOM     10  C   UNL d   1     -47.256  14.552  22.736  0.00  0.00     0.002 A 
ENDROOT
TORSDOF 0
ENDMDL
MODEL 2
REMARK VINA RESULT:      -6.1      1.323      1.939
REMARK  0 active torsions:
REMARK  status: ('A' for Active; 'I' for Inactive)
ROOT
ATOM      1  C   UNL d   1     -46.234  13.490  22.959  0.00  0.00     0.311 A 
ATOM      2  N   UNL d   1     -46.108  12.750  23.315  0.00  0.00    -0.202 NA
ATOM      3  S   UNL d   1     -47.039  13.577  22.814  0.00  0.00    -0.024 SA
ATOM      4  C   UNL d   1     -46.850  12.380  23.389  0.00  0.00     0.091 A 
ATOM      5  C   UNL d   1     -47.423  12.889  23.081  0.00  0.00     0.052 A 
ATOM      6  O   UNL d   1     -45.643  14.046  22.780  0.00  0.00    -0.258 OA
ATOM      7  C   UNL d   1     -47.071  11.647  23.697  0.00  0.00     0.020 A 
ATOM      8  C   UNL d   1     -48.217  12.665  23.081  0.00  0.00     0.008 A 
ATOM      9  C   UNL d   1     -48.439  11.932  23.389  0.00  0.00     0.001 A 
ATOM     10  C   UNL d   1     -47.866  11.423  23.697  0.00  0.00     0.002 A 
ENDROOT
TORSDOF 0
ENDMDL
MODEL 3
REMARK VINA RESULT:      -5.9      1.363      1.577
REMARK  0 active torsions:
REMARK  status: ('A' for Active; 'I' for Inactive)
ROOT
ATOM      1  C   UNL d   1     -48.208  11.644  23.511  0.00  0.00     0.311 A 
ATOM      2  N   UNL d   1     -47.382  11.705  23.580  0.00  0.00    -0.202 NA
ATOM      3  S   UNL d   1     -48.500  12.361  23.232  0.00  0.00    -0.024 SA
ATOM      4  C   UNL d   1     -47.167  12.472  23.339  0.00  0.00     0.091 A 
ATOM      5  C   UNL d   1     -47.855  12.876  23.125  0.00  0.00     0.052 A 
ATOM      6  O   UNL d   1     -48.660  10.972  23.694  0.00  0.00    -0.258 OA
ATOM      7  C   UNL d   1     -46.435  12.848  23.289  0.00  0.00     0.020 A 
ATOM      8  C   UNL d   1     -47.811  13.656  22.861  0.00  0.00     0.008 A 
ATOM      9  C   UNL d   1     -47.078  14.033  22.811  0.00  0.00     0.001 A 
ATOM     10  C   UNL d   1     -46.390  13.629  23.025  0.00  0.00     0.002 A 
ENDROOT
TORSDOF 0
ENDMDL
MODEL 4
REMARK VINA RESULT:      -5.7      1.346      1.806
REMARK  0 active torsions:
REMARK  status: ('A' for Active; 'I' for Inactive)
ROOT
ATOM      1  C   UNL d   1     -46.728  13.005  23.258  0.00  0.00     0.311 A 
ATOM      2  N   UNL d   1     -47.080  13.378  22.604  0.00  0.00    -0.202 NA
ATOM      3  S   UNL d   1     -47.175  12.343  23.453  0.00  0.00    -0.024 SA
ATOM      4  C   UNL d   1     -47.754  12.935  22.397  0.00  0.00     0.091 A 
ATOM      5  C   UNL d   1     -47.812  12.298  22.920  0.00  0.00     0.052 A 
ATOM      6  O   UNL d   1     -46.040  13.261  23.647  0.00  0.00    -0.258 OA
ATOM      7  C   UNL d   1     -48.316  13.033  21.802  0.00  0.00     0.020 A 
ATOM      8  C   UNL d   1     -48.433  11.760  22.847  0.00  0.00     0.008 A 
ATOM      9  C   UNL d   1     -48.996  11.858  22.251  0.00  0.00     0.001 A 
ATOM     10  C   UNL d   1     -48.937  12.495  21.728  0.00  0.00     0.002 A 
ENDROOT
TORSDOF 0
ENDMDL
MODEL 5
REMARK VINA RESULT:      -5.5      2.165      2.604
REMARK  0 active torsions:
REMARK  status: ('A' for Active; 'I' for Inactive)
ROOT
ATOM      1  C   UNL d   1     -48.674  14.858  22.616  0.00  0.00     0.311 A 
ATOM      2  N   UNL d   1     -47.863  15.038  22.589  0.00  0.00    -0.202 NA
ATOM      3  S   UNL d   1     -48.758  14.062  22.809  0.00  0.00    -0.024 SA
ATOM      4  C   UNL d   1     -47.446  14.341  22.770  0.00  0.00     0.091 A 
ATOM      5  C   UNL d   1     -47.997  13.740  22.905  0.00  0.00     0.052 A 
ATOM      6  O   UNL d   1     -49.293  15.393  22.471  0.00  0.00    -0.258 OA
ATOM      7  C   UNL d   1     -46.639  14.181  22.826  0.00  0.00     0.020 A 
ATOM      8  C   UNL d   1     -47.740  12.980  23.097  0.00  0.00     0.008 A 
ATOM      9  C   UNL d   1     -46.932  12.820  23.154  0.00  0.00     0.001 A 
ATOM     10  C   UNL d   1     -46.382  13.421  23.018  0.00  0.00     0.002 A 
ENDROOT
TORSDOF 0
ENDMDL
MODEL 6
REMARK VINA RESULT:      -5.4      2.258      2.855
REMARK  0 active torsions:
REMARK  status: ('A' for Active; 'I' for Inactive)
ROOT
ATOM      1  C   UNL d   1     -49.318  12.242  22.131  0.00  0.00     0.311 A 
ATOM      2  N   UNL d   1     -49.108  11.639  22.663  0.00  0.00    -0.202 NA
ATOM      3  S   UNL d   1     -48.704  12.789  22.101  0.00  0.00    -0.024 SA
ATOM      4  C   UNL d   1     -48.353  11.823  22.962  0.00  0.00     0.091 A 
ATOM      5  C   UNL d   1     -48.104  12.531  22.616  0.00  0.00     0.052 A 
ATOM      6  O   UNL d   1     -50.029  12.283  21.703  0.00  0.00    -0.258 OA
ATOM      7  C   UNL d   1     -47.866  11.434  23.503  0.00  0.00     0.020 A 
ATOM      8  C   UNL d   1     -47.369  12.850  22.811  0.00  0.00     0.008 A 
ATOM      9  C   UNL d   1     -46.882  12.461  23.352  0.00  0.00     0.001 A 
ATOM     10  C   UNL d   1     -47.130  11.754  23.698  0.00  0.00     0.002 A 
ENDROOT
TORSDOF 0
ENDMDL
MODEL 7
REMARK VINA RESULT:      -5.0      2.676      2.968
REMARK  0 active torsions:
REMARK  status: ('A' for Active; 'I' for Inactive)
ROOT
ATOM      1  C   UNL d   1     -48.789  13.229  21.485  0.00  0.00     0.311 A 
ATOM      2  N   UNL d   1     -48.353  13.777  21.934  0.00  0.00    -0.202 NA
ATOM      3  S   UNL d   1     -49.587  13.417  21.547  0.00  0.00    -0.024 SA
ATOM      4  C   UNL d   1     -48.897  14.307  22.275  0.00  0.00     0.091 A 
ATOM      5  C   UNL d   1     -49.656  14.086  22.036  0.00  0.00     0.052 A 
ATOM      6  O   UNL d   1     -48.468  12.599  21.049  0.00  0.00    -0.258 OA
ATOM      7  C   UNL d   1     -48.792  14.960  22.769  0.00  0.00     0.020 A 
ATOM      8  C   UNL d   1     -50.311  14.517  22.292  0.00  0.00     0.008 A 
ATOM      9  C   UNL d   1     -50.207  15.170  22.787  0.00  0.00     0.001 A 
ATOM     10  C   UNL d   1     -49.448  15.391  23.025  0.00  0.00     0.002 A 
ENDROOT
TORSDOF 0
ENDMDL
MODEL 8
REMARK VINA RESULT:      -4.5      8.784      9.239
REMARK  0 active torsions:
REMARK  status: ('A' for Active; 'I' for Inactive)
ROOT
ATOM      1  C   UNL d   1     -41.233  15.493  16.819  0.00  0.00     0.311 A 
ATOM      2  N   UNL d   1     -41.208  14.777  17.241  0.00  0.00    -0.202 NA
ATOM      3  S   UNL d   1     -40.495  15.852  16.870  0.00  0.00    -0.024 SA
ATOM      4  C   UNL d   1     -40.441  14.699  17.553  0.00  0.00     0.091 A 
ATOM      5  C   UNL d   1     -40.002  15.360  17.325  0.00  0.00     0.052 A 
ATOM      6  O   UNL d   1     -41.895  15.793  16.416  0.00  0.00    -0.258 OA
ATOM      7  C   UNL d   1     -40.092  14.110  18.014  0.00  0.00     0.020 A 
ATOM      8  C   UNL d   1     -39.214  15.433  17.558  0.00  0.00     0.008 A 
ATOM      9  C   UNL d   1     -38.864  14.844  18.019  0.00  0.00     0.001 A 
ATOM     10  C   UNL d   1     -39.303  14.183  18.247  0.00  0.00     0.002 A 
ENDROOT
TORSDOF 0
ENDMDL
MODEL 9
REMARK VINA RESULT:      -4.4      8.797      9.179
REMARK  0 active torsions:
REMARK  status: ('A' for Active; 'I' for Inactive)
ROOT
ATOM      1  C   UNL d   1     -39.309  13.443  17.649  0.00  0.00     0.311 A 
ATOM      2  N   UNL d   1     -40.042  13.679  17.961  0.00  0.00    -0.202 NA
ATOM      3  S   UNL d   1     -39.034  14.037  17.150  0.00  0.00    -0.024 SA
ATOM      4  C   UNL d   1     -40.216  14.430  17.647  0.00  0.00     0.091 A 
ATOM      5  C   UNL d   1     -39.596  14.650  17.148  0.00  0.00     0.052 A 
ATOM      6  O   UNL d   1     -38.922  12.726  17.814  0.00  0.00    -0.258 OA
ATOM      7  C   UNL d   1     -40.859  14.935  17.755  0.00  0.00     0.020 A 
ATOM      8  C   UNL d   1     -39.618  15.376  16.757  0.00  0.00     0.008 A 
ATOM      9  C   UNL d   1     -40.262  15.882  16.865  0.00  0.00     0.001 A 
ATOM     10  C   UNL d   1     -40.882  15.662  17.364  0.00  0.00     0.002 A 
ENDROOT
TORSDOF 0
ENDMDL
