MODEL 1
REMARK VINA RESULT:      58.6      0.000      0.000
REMARK  5 active torsions:
REMARK  status: ('A' for Active; 'I' for Inactive)
REMARK    1  A    between atoms: C_10  and  C_2 
REMARK    2  A    between atoms: S_8  and  C_3 
REMARK    3  A    between atoms: C_6  and  N_7 
REMARK       I    between atoms: N_7  and  C_9 
REMARK    4  A    between atoms: C_15  and  S_8 
REMARK    5  A    between atoms: C_9  and  C_15 
ROOT
ATOM      1  S   UNL d   1      14.032  15.913  -5.509  0.00  0.00    -0.041 SA
ENDROOT
BRANCH   1   2
ATOM      2  C   UNL d   1      13.608  15.409  -5.023  0.00  0.00     0.219 A 
ATOM      3  N   UNL d   1      13.746  14.601  -5.042  0.00  0.00    -0.167 N 
ATOM      4  C   UNL d   1      13.250  14.247  -4.507  0.00  0.00     0.189 A 
ATOM      5  N   UNL d   1      14.296  14.220  -5.524  0.00  0.00    -0.038 N 
ATOM      6  N   UNL d   1      12.791  14.799  -4.139  0.00  0.00    -0.126 NA
ATOM      7  N   UNL d   1      13.015  15.525  -4.460  0.00  0.00    -0.120 NA
BRANCH   4   8
ATOM      8  C   UNL d   1      13.212  13.440  -4.355  0.00  0.00     0.038 A 
ATOM      9  C   UNL d   1      12.886  12.913  -4.928  0.00  0.00     0.003 A 
ATOM     10  C   UNL d   1      12.846  12.097  -4.777  0.00  0.00     0.000 A 
ATOM     11  C   UNL d   1      13.137  11.806  -4.044  0.00  0.00     0.000 A 
ATOM     12  C   UNL d   1      13.458  12.337  -3.482  0.00  0.00     0.000 A 
ATOM     13  C   UNL d   1      13.495  13.141  -3.636  0.00  0.00     0.003 A 
ENDBRANCH   4   8
ENDBRANCH   1   2
BRANCH   1  14
ATOM     14  C   UNL d   1      14.418  16.578  -5.200  0.00  0.00     0.101 C 
BRANCH  14  15
ATOM     15  C   UNL d   1      14.374  17.299  -5.573  0.00  0.00     0.286 C 
ATOM     16  N   UNL d   1      14.142  17.978  -5.129  0.00  0.00    -0.208 NA
ATOM     17  O   UNL d   1      14.549  17.373  -6.366  0.00  0.00    -0.265 OA
BRANCH  16  18
ATOM     18  C   UNL d   1      14.096  18.721  -5.514  0.00  0.00     0.085 A 
ATOM     19  C   UNL d   1      13.454  18.893  -6.009  0.00  0.00     0.018 A 
ATOM     20  C   UNL d   1      13.408  19.625  -6.388  0.00  0.00     0.002 A 
ATOM     21  C   UNL d   1      12.867  18.342  -6.125  0.00  0.00     0.002 C 
ATOM     22  C   UNL d   1      14.005  20.185  -6.271  0.00  0.00     0.000 A 
ATOM     23  C   UNL d   1      14.637  20.003  -5.777  0.00  0.00     0.002 A 
ATOM     24  C   UNL d   1      14.682  19.293  -5.409  0.00  0.00     0.019 A 
ATOM     25  C   UNL d   1      15.231  20.563  -5.662  0.00  0.00     0.000 C 
ENDBRANCH  16  18
ENDBRANCH  14  15
ENDBRANCH   1  14
TORSDOF 5
ENDMDL
