MODEL 1
REMARK VINA RESULT:      -2.9      0.000      0.000
REMARK  4 active torsions:
REMARK  status: ('A' for Active; 'I' for Inactive)
REMARK    1  A    between atoms: C_7  and  C_1 
REMARK    2  A    between atoms: N_8  and  C_7 
REMARK    3  A    between atoms: C_11  and  N_8 
REMARK    4  A    between atoms: O_13  and  C_12 
ROOT
ATOM      1  C   UNL d   1      33.231  19.484 -22.667  0.00  0.00     0.145 A 
ATOM      2  C   UNL d   1      33.223  19.606 -21.855  0.00  0.00     0.305 A 
ATOM      3  C   UNL d   1      33.230  20.134 -23.183  0.00  0.00     0.305 A 
ATOM      4  O   UNL d   1      33.222  20.897 -22.881  0.00  0.00    -0.269 OA
ATOM      5  O   UNL d   1      33.215  20.366 -21.558  0.00  0.00    -0.269 OA
ATOM      6  C   UNL d   1      33.214  21.015 -22.075  0.00  0.00     0.242 A 
ATOM      7  O   UNL d   1      33.238  20.012 -24.023  0.00  0.00    -0.259 OA
ATOM      8  O   UNL d   1      33.224  18.952 -21.336  0.00  0.00    -0.259 OA
ATOM      9  C   UNL d   1      33.211  21.762 -22.407  0.00  0.00     0.035 A 
ATOM     10  C   UNL d   1      33.208  20.958 -21.252  0.00  0.00     0.035 A 
ATOM     11  C   UNL d   1      33.199  21.626 -20.795  0.00  0.00     0.001 A 
ATOM     12  C   UNL d   1      33.202  22.440 -21.929  0.00  0.00     0.001 A 
ATOM     13  C   UNL d   1      33.196  22.354 -21.113  0.00  0.00    -0.000 A 
ENDROOT
BRANCH   1  14
ATOM     14  C   UNL d   1      33.239  18.698 -22.942  0.00  0.00     0.110 C 
BRANCH  14  15
ATOM     15  N   UNL d   1      32.529  18.363 -23.218  0.00  0.00    -0.242 NA
BRANCH  15  16
ATOM     16  C   UNL d   1      32.525  17.570 -23.464  0.00  0.00     0.104 A 
ATOM     17  C   UNL d   1      31.848  17.252 -23.816  0.00  0.00     0.112 A 
ATOM     18  C   UNL d   1      31.840  16.462 -24.062  0.00  0.00     0.026 A 
ATOM     19  C   UNL d   1      32.509  15.972 -23.963  0.00  0.00     0.002 A 
ATOM     20  C   UNL d   1      33.180  16.321 -23.604  0.00  0.00     0.002 A 
ATOM     21  C   UNL d   1      33.190  17.102 -23.359  0.00  0.00     0.021 A 
BRANCH  17  22
ATOM     22  O   UNL d   1      31.170  17.729 -23.922  0.00  0.00    -0.327 OA
ATOM     23  C   UNL d   1      30.545  17.449 -24.349  0.00  0.00     0.181 C 
ENDBRANCH  17  22
ENDBRANCH  15  16
ENDBRANCH  14  15
ENDBRANCH   1  14
TORSDOF 4
ENDMDL
MODEL 2
REMARK VINA RESULT:      -2.1      0.701      1.428
REMARK  4 active torsions:
REMARK  status: ('A' for Active; 'I' for Inactive)
REMARK    1  A    between atoms: C_7  and  C_1 
REMARK    2  A    between atoms: N_8  and  C_7 
REMARK    3  A    between atoms: C_11  and  N_8 
REMARK    4  A    between atoms: O_13  and  C_12 
ROOT
ATOM      1  C   UNL d   1      33.130  20.201 -22.457  0.00  0.00     0.145 A 
ATOM      2  C   UNL d   1      33.146  20.900 -22.888  0.00  0.00     0.305 A 
ATOM      3  C   UNL d   1      33.035  20.223 -21.633  0.00  0.00     0.305 A 
ATOM      4  O   UNL d   1      32.957  20.944 -21.250  0.00  0.00    -0.269 OA
ATOM      5  O   UNL d   1      33.068  21.615 -22.503  0.00  0.00    -0.269 OA
ATOM      6  C   UNL d   1      32.973  21.637 -21.679  0.00  0.00     0.242 A 
ATOM      7  O   UNL d   1      33.019  19.503 -21.186  0.00  0.00    -0.259 OA
ATOM      8  O   UNL d   1      33.241  20.877 -23.717  0.00  0.00    -0.259 OA
ATOM      9  C   UNL d   1      32.874  21.863 -20.900  0.00  0.00     0.035 A 
ATOM     10  C   UNL d   1      33.010  22.229 -22.251  0.00  0.00     0.035 A 
ATOM     11  C   UNL d   1      32.948  23.009 -22.039  0.00  0.00     0.001 A 
ATOM     12  C   UNL d   1      32.812  22.664 -20.694  0.00  0.00     0.001 A 
ATOM     13  C   UNL d   1      32.852  23.233 -21.284  0.00  0.00    -0.000 A 
ENDROOT
BRANCH   1  14
ATOM     14  C   UNL d   1      33.212  19.485 -22.876  0.00  0.00     0.110 C 
BRANCH  14  15
ATOM     15  N   UNL d   1      32.529  19.116 -23.175  0.00  0.00    -0.242 NA
BRANCH  15  16
ATOM     16  C   UNL d   1      32.575  18.329 -23.435  0.00  0.00     0.104 A 
ATOM     17  C   UNL d   1      31.989  18.024 -23.933  0.00  0.00     0.112 A 
ATOM     18  C   UNL d   1      32.032  17.240 -24.193  0.00  0.00     0.026 A 
ATOM     19  C   UNL d   1      32.662  16.742 -23.962  0.00  0.00     0.002 A 
ATOM     20  C   UNL d   1      33.240  17.077 -23.458  0.00  0.00     0.002 A 
ATOM     21  C   UNL d   1      33.200  17.853 -23.199  0.00  0.00     0.021 A 
BRANCH  17  22
ATOM     22  O   UNL d   1      31.353  18.509 -24.173  0.00  0.00    -0.327 OA
ATOM     23  C   UNL d   1      30.800  18.222 -24.685  0.00  0.00     0.181 C 
ENDBRANCH  17  22
ENDBRANCH  15  16
ENDBRANCH  14  15
ENDBRANCH   1  14
TORSDOF 4
ENDMDL
MODEL 3
REMARK VINA RESULT:      -2.0      1.485      4.747
REMARK  4 active torsions:
REMARK  status: ('A' for Active; 'I' for Inactive)
REMARK    1  A    between atoms: C_7  and  C_1 
REMARK    2  A    between atoms: N_8  and  C_7 
REMARK    3  A    between atoms: C_11  and  N_8 
REMARK    4  A    between atoms: O_13  and  C_12 
ROOT
ATOM      1  C   UNL d   1      33.151  20.546 -22.296  0.00  0.00     0.145 A 
ATOM      2  C   UNL d   1      33.152  20.754 -23.090  0.00  0.00     0.305 A 
ATOM      3  C   UNL d   1      33.062  19.751 -22.075  0.00  0.00     0.305 A 
ATOM      4  O   UNL d   1      32.976  19.174 -22.652  0.00  0.00    -0.269 OA
ATOM      5  O   UNL d   1      33.066  20.177 -23.660  0.00  0.00    -0.269 OA
ATOM      6  C   UNL d   1      32.977  19.382 -23.440  0.00  0.00     0.242 A 
ATOM      7  O   UNL d   1      33.060  19.533 -21.255  0.00  0.00    -0.259 OA
ATOM      8  O   UNL d   1      33.241  21.554 -23.311  0.00  0.00    -0.259 OA
ATOM      9  C   UNL d   1      32.880  18.571 -23.427  0.00  0.00     0.035 A 
ATOM     10  C   UNL d   1      33.000  19.757 -24.173  0.00  0.00     0.035 A 
ATOM     11  C   UNL d   1      32.928  19.327 -24.856  0.00  0.00     0.001 A 
ATOM     12  C   UNL d   1      32.808  18.140 -24.132  0.00  0.00     0.001 A 
ATOM     13  C   UNL d   1      32.834  18.539 -24.849  0.00  0.00    -0.000 A 
ENDROOT
BRANCH   1  14
ATOM     14  C   UNL d   1      33.240  21.155 -21.734  0.00  0.00     0.110 C 
BRANCH  14  15
ATOM     15  N   UNL d   1      32.558  21.500 -21.405  0.00  0.00    -0.242 NA
BRANCH  15  16
ATOM     16  C   UNL d   1      32.638  22.018 -20.761  0.00  0.00     0.104 A 
ATOM     17  C   UNL d   1      32.197  22.718 -20.740  0.00  0.00     0.112 A 
ATOM     18  C   UNL d   1      32.274  23.237 -20.100  0.00  0.00     0.026 A 
ATOM     19  C   UNL d   1      32.792  23.069 -19.467  0.00  0.00     0.002 A 
ATOM     20  C   UNL d   1      33.224  22.354 -19.516  0.00  0.00     0.002 A 
ATOM     21  C   UNL d   1      33.151  21.838 -20.148  0.00  0.00     0.021 A 
BRANCH  17  22
ATOM     22  O   UNL d   1      31.674  22.901 -21.365  0.00  0.00    -0.327 OA
ATOM     23  C   UNL d   1      31.400  23.654 -21.452  0.00  0.00     0.181 C 
ENDBRANCH  17  22
ENDBRANCH  15  16
ENDBRANCH  14  15
ENDBRANCH   1  14
TORSDOF 4
ENDMDL
MODEL 4
REMARK VINA RESULT:      -1.8      1.939      5.095
REMARK  4 active torsions:
REMARK  status: ('A' for Active; 'I' for Inactive)
REMARK    1  A    between atoms: C_7  and  C_1 
REMARK    2  A    between atoms: N_8  and  C_7 
REMARK    3  A    between atoms: C_11  and  N_8 
REMARK    4  A    between atoms: O_13  and  C_12 
ROOT
ATOM      1  C   UNL d   1      30.573  17.221 -24.207  0.00  0.00     0.145 A 
ATOM      2  C   UNL d   1      29.821  17.503 -24.377  0.00  0.00     0.305 A 
ATOM      3  C   UNL d   1      30.666  16.525 -23.765  0.00  0.00     0.305 A 
ATOM      4  O   UNL d   1      30.004  16.119 -23.498  0.00  0.00    -0.269 OA
ATOM      5  O   UNL d   1      29.166  17.097 -24.110  0.00  0.00    -0.269 OA
ATOM      6  C   UNL d   1      29.258  16.400 -23.668  0.00  0.00     0.242 A 
ATOM      7  O   UNL d   1      31.441  16.231 -23.588  0.00  0.00    -0.259 OA
ATOM      8  O   UNL d   1      29.728  18.203 -24.821  0.00  0.00    -0.259 OA
ATOM      9  C   UNL d   1      29.142  15.719 -23.232  0.00  0.00     0.035 A 
ATOM     10  C   UNL d   1      28.592  16.814 -23.922  0.00  0.00     0.035 A 
ATOM     11  C   UNL d   1      27.850  16.546 -23.742  0.00  0.00     0.001 A 
ATOM     12  C   UNL d   1      28.377  15.453 -23.053  0.00  0.00     0.001 A 
ATOM     13  C   UNL d   1      27.732  15.884 -23.319  0.00  0.00    -0.000 A 
ENDROOT
BRANCH   1  14
ATOM     14  C   UNL d   1      31.225  17.656 -24.492  0.00  0.00     0.110 C 
BRANCH  14  15
ATOM     15  N   UNL d   1      31.805  17.909 -23.952  0.00  0.00    -0.242 NA
BRANCH  15  16
ATOM     16  C   UNL d   1      32.280  18.561 -24.145  0.00  0.00     0.104 A 
ATOM     17  C   UNL d   1      32.738  18.924 -23.560  0.00  0.00     0.112 A 
ATOM     18  C   UNL d   1      33.213  19.575 -23.748  0.00  0.00     0.026 A 
ATOM     19  C   UNL d   1      33.240  19.878 -24.526  0.00  0.00     0.002 A 
ATOM     20  C   UNL d   1      32.767  19.492 -25.096  0.00  0.00     0.002 A 
ATOM     21  C   UNL d   1      32.296  18.847 -24.913  0.00  0.00     0.021 A 
BRANCH  17  22
ATOM     22  O   UNL d   1      32.722  18.632 -22.777  0.00  0.00    -0.327 OA
ATOM     23  C   UNL d   1      33.043  19.068 -22.179  0.00  0.00     0.181 C 
ENDBRANCH  17  22
ENDBRANCH  15  16
ENDBRANCH  14  15
ENDBRANCH   1  14
TORSDOF 4
ENDMDL
