MODEL 1
REMARK VINA RESULT:      15.8      0.000      0.000
REMARK  1 active torsions:
REMARK  status: ('A' for Active; 'I' for Inactive)
REMARK    1  A    between atoms: N_8  and  C_7 
REMARK       I    between atoms: C_11  and  N_8 
ROOT
ATOM      1  N   UNL d   1     -50.512  26.220  33.382  0.00  0.00    -0.273 N 
ATOM      2  C   UNL d   1     -51.041  25.587  33.363  0.00  0.00     0.067 A 
ATOM      3  C   UNL d   1     -51.854  25.730  33.354  0.00  0.00     0.019 A 
ATOM      4  C   UNL d   1     -50.763  24.819  33.353  0.00  0.00     0.018 A 
ATOM      5  C   UNL d   1     -49.705  26.084  33.391  0.00  0.00     0.265 A 
ATOM      6  C   UNL d   1     -50.954  26.913  33.388  0.00  0.00     0.083 A 
ATOM      7  C   UNL d   1     -52.099  24.322  33.325  0.00  0.00     0.085 A 
ATOM      8  C   UNL d   1     -52.383  25.097  33.334  0.00  0.00     0.021 A 
ATOM      9  C   UNL d   1     -51.292  24.186  33.334  0.00  0.00     0.021 A 
ATOM     10  C   UNL d   1     -51.976  26.549  33.366  0.00  0.00     0.021 A 
ATOM     11  C   UNL d   1     -49.944  24.670  33.362  0.00  0.00     0.006 A 
ATOM     12  C   UNL d   1     -49.415  25.303  33.381  0.00  0.00     0.061 A 
ATOM     13  O   UNL d   1     -49.176  26.717  33.410  0.00  0.00    -0.267 OA
ENDROOT
BRANCH   7  14
ATOM     14  N   UNL d   1     -52.627  23.690  33.306  0.00  0.00    -0.208 NA
ATOM     15  C   UNL d   1     -53.421  23.818  33.415  0.00  0.00     0.279 C 
ATOM     16  O   UNL d   1     -53.712  24.590  33.548  0.00  0.00    -0.265 OA
ATOM     17  C   UNL d   1     -53.953  23.188  33.397  0.00  0.00     0.068 C 
ENDBRANCH   7  14
TORSDOF 1
ENDMDL
MODEL 2
REMARK VINA RESULT:      16.8      0.920      3.251
REMARK  1 active torsions:
REMARK  status: ('A' for Active; 'I' for Inactive)
REMARK    1  A    between atoms: N_8  and  C_7 
REMARK       I    between atoms: C_11  and  N_8 
ROOT
ATOM      1  N   UNL d   1     -52.744  24.466  33.310  0.00  0.00    -0.273 N 
ATOM      2  C   UNL d   1     -52.058  24.925  33.309  0.00  0.00     0.067 A 
ATOM      3  C   UNL d   1     -52.114  25.749  33.308  0.00  0.00     0.019 A 
ATOM      4  C   UNL d   1     -51.323  24.568  33.310  0.00  0.00     0.018 A 
ATOM      5  C   UNL d   1     -52.694  23.650  33.311  0.00  0.00     0.265 A 
ATOM      6  C   UNL d   1     -53.386  24.980  33.309  0.00  0.00     0.083 A 
ATOM      7  C   UNL d   1     -50.687  25.843  33.308  0.00  0.00     0.085 A 
ATOM      8  C   UNL d   1     -51.428  26.208  33.307  0.00  0.00     0.021 A 
ATOM      9  C   UNL d   1     -50.637  25.027  33.309  0.00  0.00     0.021 A 
ATOM     10  C   UNL d   1     -52.915  25.957  33.308  0.00  0.00     0.021 A 
ATOM     11  C   UNL d   1     -51.262  23.737  33.311  0.00  0.00     0.006 A 
ATOM     12  C   UNL d   1     -51.948  23.278  33.312  0.00  0.00     0.061 A 
ATOM     13  O   UNL d   1     -53.379  23.191  33.311  0.00  0.00    -0.267 OA
ENDROOT
BRANCH   7  14
ATOM     14  N   UNL d   1     -50.003  26.302  33.308  0.00  0.00    -0.208 NA
ATOM     15  C   UNL d   1     -50.054  27.111  33.310  0.00  0.00     0.279 C 
ATOM     16  O   UNL d   1     -50.798  27.490  33.312  0.00  0.00    -0.265 OA
ATOM     17  C   UNL d   1     -49.371  27.575  33.309  0.00  0.00     0.068 C 
ENDBRANCH   7  14
TORSDOF 1
ENDMDL
