MODEL 1
REMARK VINA RESULT:      64.1      0.000      0.000
REMARK  3 active torsions:
REMARK  status: ('A' for Active; 'I' for Inactive)
REMARK    1  A    between atoms: C_11  and  C_6 
REMARK       I    between atoms: N_15  and  C_11 
REMARK    2  A    between atoms: C_23  and  N_15 
REMARK    3  A    between atoms: C_22  and  C_23 
ROOT
ATOM      1  C   UNL d   1     -51.274  26.029  33.460  0.00  0.00     0.155 A 
ATOM      2  C   UNL d   1     -50.582  25.576  33.483  0.00  0.00     0.091 A 
ATOM      3  N   UNL d   1     -52.005  25.654  33.409  0.00  0.00    -0.210 NA
ATOM      4  N   UNL d   1     -51.360  24.384  33.406  0.00  0.00    -0.258 N 
ATOM      5  N   UNL d   1     -51.226  26.849  33.487  0.00  0.00    -0.272 N 
ATOM      6  C   UNL d   1     -49.798  26.777  33.561  0.00  0.00     0.094 A 
ATOM      7  C   UNL d   1     -52.047  24.844  33.383  0.00  0.00     0.152 A 
ATOM      8  C   UNL d   1     -50.624  24.750  33.457  0.00  0.00     0.269 A 
ATOM      9  C   UNL d   1     -50.483  27.225  33.538  0.00  0.00     0.175 A 
ATOM     10  C   UNL d   1     -49.845  25.944  33.534  0.00  0.00     0.016 A 
ATOM     11  C   UNL d   1     -52.781  24.465  33.333  0.00  0.00     0.035 A 
ATOM     12  C   UNL d   1     -51.400  23.561  33.380  0.00  0.00     0.084 A 
ATOM     13  N   UNL d   1     -50.439  28.054  33.565  0.00  0.00    -0.128 N 
ATOM     14  O   UNL d   1     -49.938  24.301  33.480  0.00  0.00    -0.266 OA
ATOM     15  C   UNL d   1     -52.134  23.198  33.330  0.00  0.00     0.019 A 
ATOM     16  C   UNL d   1     -52.826  23.651  33.306  0.00  0.00     0.005 A 
ATOM     17  C   UNL d   1     -51.915  27.300  33.463  0.00  0.00     0.102 C 
ATOM     18  C   UNL d   1     -53.470  24.917  33.309  0.00  0.00     0.003 C 
ENDROOT
BRANCH   6  19
ATOM     19  C   UNL d   1     -49.059  27.149  33.612  0.00  0.00     0.282 C 
ATOM     20  N   UNL d   1     -48.999  27.890  33.971  0.00  0.00    -0.206 NA
ATOM     21  O   UNL d   1     -48.391  26.782  33.306  0.00  0.00    -0.265 OA
BRANCH  20  22
ATOM     22  C   UNL d   1     -48.264  28.256  34.019  0.00  0.00     0.104 C 
BRANCH  22  23
ATOM     23  C   UNL d   1     -48.099  28.754  34.658  0.00  0.00     0.038 A 
ATOM     24  C   UNL d   1     -48.174  29.570  34.567  0.00  0.00     0.101 A 
ATOM     25  N   UNL d   1     -48.011  30.070  35.203  0.00  0.00    -0.242 NA
ATOM     26  C   UNL d   1     -47.773  29.753  35.925  0.00  0.00     0.099 A 
ATOM     27  C   UNL d   1     -47.698  28.934  36.015  0.00  0.00     0.021 A 
ATOM     28  C   UNL d   1     -47.863  28.438  35.376  0.00  0.00     0.005 A 
ENDBRANCH  22  23
ENDBRANCH  20  22
ENDBRANCH   6  19
TORSDOF 3
ENDMDL
