MODEL 1
REMARK VINA RESULT:     -10.0      0.000      0.000
REMARK  3 active torsions:
REMARK  status: ('A' for Active; 'I' for Inactive)
REMARK    1  A    between atoms: C_6  and  C_1 
REMARK    2  A    between atoms: C_5  and  N_2 
REMARK    3  A    between atoms: N_4  and  C_6 
ROOT
ATOM      1  N   UNL d   1      50.840  34.241  52.687  0.00  0.00    -0.299 N 
ATOM      2  N   UNL d   1      52.308  33.587  52.753  0.00  0.00    -0.300 N 
ATOM      3  C   UNL d   1      50.929  33.477  52.943  0.00  0.00     0.100 A 
ATOM      4  C   UNL d   1      51.492  34.691  52.458  0.00  0.00     0.100 A 
ATOM      5  C   UNL d   1      51.663  33.150  52.976  0.00  0.00     0.100 A 
ATOM      6  C   UNL d   1      52.226  34.365  52.491  0.00  0.00     0.100 A 
ENDROOT
BRANCH   2   7
ATOM      7  C   UNL d   1      53.083  33.259  52.782  0.00  0.00     0.084 C 
BRANCH   7   8
ATOM      8  C   UNL d   1      53.291  32.669  53.350  0.00  0.00     0.057 A 
ATOM      9  C   UNL d   1      53.666  32.912  54.015  0.00  0.00     0.004 A 
ATOM     10  C   UNL d   1      53.883  32.317  54.601  0.00  0.00     0.000 A 
ATOM     11  C   UNL d   1      53.850  33.705  54.151  0.00  0.00     0.000 A 
ATOM     12  C   UNL d   1      54.269  32.553  55.288  0.00  0.00     0.000 A 
ATOM     13  C   UNL d   1      53.704  31.544  54.468  0.00  0.00     0.003 A 
ATOM     14  C   UNL d   1      54.433  33.357  55.385  0.00  0.00     0.000 A 
ATOM     15  C   UNL d   1      54.250  33.906  54.875  0.00  0.00     0.000 A 
ATOM     16  C   UNL d   1      53.300  31.326  53.742  0.00  0.00     0.042 A 
ATOM     17  C   UNL d   1      53.117  31.875  53.233  0.00  0.00     0.197 A 
ATOM     18  O   UNL d   1      52.719  31.631  52.525  0.00  0.00    -0.286 OA
ENDBRANCH   7   8
ENDBRANCH   2   7
BRANCH   1  19
ATOM     19  C   UNL d   1      50.072  34.583  52.652  0.00  0.00     0.092 A 
ATOM     20  C   UNL d   1      49.646  34.543  51.942  0.00  0.00     0.156 A 
ATOM     21  F   UNL d   1      49.954  34.177  51.270  0.00  0.00    -0.203 F 
ATOM     22  C   UNL d   1      48.870  34.888  51.907  0.00  0.00     0.031 A 
ATOM     23  C   UNL d   1      48.562  35.255  52.584  0.00  0.00     0.002 A 
ATOM     24  C   UNL d   1      48.986  35.289  53.272  0.00  0.00     0.002 A 
ATOM     25  C   UNL d   1      49.762  34.943  53.308  0.00  0.00     0.020 A 
ENDBRANCH   1  19
TORSDOF 3
ENDMDL
MODEL 2
REMARK VINA RESULT:      -9.8      0.741      1.568
REMARK  3 active torsions:
REMARK  status: ('A' for Active; 'I' for Inactive)
REMARK    1  A    between atoms: C_6  and  C_1 
REMARK    2  A    between atoms: C_5  and  N_2 
REMARK    3  A    between atoms: N_4  and  C_6 
ROOT
ATOM      1  N   UNL d   1      50.650  34.212  52.744  0.00  0.00    -0.299 N 
ATOM      2  N   UNL d   1      52.035  33.398  52.679  0.00  0.00    -0.300 N 
ATOM      3  C   UNL d   1      50.700  33.477  53.082  0.00  0.00     0.100 A 
ATOM      4  C   UNL d   1      51.298  34.552  52.364  0.00  0.00     0.100 A 
ATOM      5  C   UNL d   1      51.393  33.070  53.050  0.00  0.00     0.100 A 
ATOM      6  C   UNL d   1      51.991  34.144  52.332  0.00  0.00     0.100 A 
ENDROOT
BRANCH   2   7
ATOM      7  C   UNL d   1      52.767  32.983  52.638  0.00  0.00     0.084 C 
BRANCH   7   8
ATOM      8  C   UNL d   1      53.140  32.677  53.331  0.00  0.00     0.057 A 
ATOM      9  C   UNL d   1      53.187  31.880  53.403  0.00  0.00     0.004 A 
ATOM     10  C   UNL d   1      53.566  31.557  54.108  0.00  0.00     0.000 A 
ATOM     11  C   UNL d   1      52.886  31.368  52.830  0.00  0.00     0.000 A 
ATOM     12  C   UNL d   1      53.621  30.740  54.194  0.00  0.00     0.000 A 
ATOM     13  C   UNL d   1      53.859  32.056  54.666  0.00  0.00     0.003 A 
ATOM     14  C   UNL d   1      53.306  30.264  53.596  0.00  0.00     0.000 A 
ATOM     15  C   UNL d   1      52.964  30.531  52.959  0.00  0.00     0.000 A 
ATOM     16  C   UNL d   1      53.787  32.904  54.549  0.00  0.00     0.042 A 
ATOM     17  C   UNL d   1      53.445  33.170  53.912  0.00  0.00     0.197 A 
ATOM     18  O   UNL d   1      53.389  34.011  53.823  0.00  0.00    -0.286 OA
ENDBRANCH   7   8
ENDBRANCH   2   7
BRANCH   1  19
ATOM     19  C   UNL d   1      49.924  34.638  52.777  0.00  0.00     0.092 A 
ATOM     20  C   UNL d   1      49.425  34.636  52.115  0.00  0.00     0.156 A 
ATOM     21  F   UNL d   1      49.620  34.227  51.426  0.00  0.00    -0.203 F 
ATOM     22  C   UNL d   1      48.693  35.066  52.149  0.00  0.00     0.031 A 
ATOM     23  C   UNL d   1      48.500  35.476  52.843  0.00  0.00     0.002 A 
ATOM     24  C   UNL d   1      48.994  35.472  53.485  0.00  0.00     0.002 A 
ATOM     25  C   UNL d   1      49.726  35.042  53.451  0.00  0.00     0.020 A 
ENDBRANCH   1  19
TORSDOF 3
ENDMDL
MODEL 3
REMARK VINA RESULT:      -9.0      2.058      4.686
REMARK  3 active torsions:
REMARK  status: ('A' for Active; 'I' for Inactive)
REMARK    1  A    between atoms: C_6  and  C_1 
REMARK    2  A    between atoms: C_5  and  N_2 
REMARK    3  A    between atoms: N_4  and  C_6 
ROOT
ATOM      1  N   UNL d   1      53.290  30.829  53.788  0.00  0.00    -0.299 N 
ATOM      2  N   UNL d   1      53.195  32.292  53.127  0.00  0.00    -0.300 N 
ATOM      3  C   UNL d   1      53.772  31.423  54.055  0.00  0.00     0.100 A 
ATOM      4  C   UNL d   1      52.748  30.961  53.180  0.00  0.00     0.100 A 
ATOM      5  C   UNL d   1      53.725  32.155  53.725  0.00  0.00     0.100 A 
ATOM      6  C   UNL d   1      52.701  31.693  52.850  0.00  0.00     0.100 A 
ENDROOT
BRANCH   2   7
ATOM      7  C   UNL d   1      53.134  33.053  52.771  0.00  0.00     0.084 C 
BRANCH   7   8
ATOM      8  C   UNL d   1      52.829  33.716  53.198  0.00  0.00     0.057 A 
ATOM      9  C   UNL d   1      52.079  33.946  53.036  0.00  0.00     0.004 A 
ATOM     10  C   UNL d   1      51.758  34.622  53.466  0.00  0.00     0.000 A 
ATOM     11  C   UNL d   1      51.611  33.559  52.477  0.00  0.00     0.000 A 
ATOM     12  C   UNL d   1      50.988  34.868  53.309  0.00  0.00     0.000 A 
ATOM     13  C   UNL d   1      52.214  34.998  54.011  0.00  0.00     0.003 A 
ATOM     14  C   UNL d   1      50.556  34.452  52.741  0.00  0.00     0.000 A 
ATOM     15  C   UNL d   1      50.821  33.847  52.345  0.00  0.00     0.000 A 
ATOM     16  C   UNL d   1      53.013  34.719  54.154  0.00  0.00     0.042 A 
ATOM     17  C   UNL d   1      53.278  34.114  53.758  0.00  0.00     0.197 A 
ATOM     18  O   UNL d   1      54.071  33.860  53.920  0.00  0.00    -0.286 OA
ENDBRANCH   7   8
ENDBRANCH   2   7
BRANCH   1  19
ATOM     19  C   UNL d   1      53.340  30.063  54.133  0.00  0.00     0.092 A 
ATOM     20  C   UNL d   1      53.806  29.485  53.765  0.00  0.00     0.156 A 
ATOM     21  F   UNL d   1      54.221  29.640  53.069  0.00  0.00    -0.203 F 
ATOM     22  C   UNL d   1      53.856  28.712  54.114  0.00  0.00     0.031 A 
ATOM     23  C   UNL d   1      53.437  28.558  54.813  0.00  0.00     0.002 A 
ATOM     24  C   UNL d   1      52.985  29.130  55.165  0.00  0.00     0.002 A 
ATOM     25  C   UNL d   1      52.934  29.903  54.816  0.00  0.00     0.020 A 
ENDBRANCH   1  19
TORSDOF 3
ENDMDL
MODEL 4
REMARK VINA RESULT:      -8.0      2.298      3.429
REMARK  3 active torsions:
REMARK  status: ('A' for Active; 'I' for Inactive)
REMARK    1  A    between atoms: C_6  and  C_1 
REMARK    2  A    between atoms: C_5  and  N_2 
REMARK    3  A    between atoms: N_4  and  C_6 
ROOT
ATOM      1  N   UNL d   1      53.513  33.396  54.062  0.00  0.00    -0.299 N 
ATOM      2  N   UNL d   1      53.876  31.860  53.753  0.00  0.00    -0.300 N 
ATOM      3  C   UNL d   1      53.101  32.803  54.431  0.00  0.00     0.100 A 
ATOM      4  C   UNL d   1      54.118  33.225  53.528  0.00  0.00     0.100 A 
ATOM      5  C   UNL d   1      53.283  32.035  54.276  0.00  0.00     0.100 A 
ATOM      6  C   UNL d   1      54.300  32.457  53.373  0.00  0.00     0.100 A 
ENDROOT
BRANCH   2   7
ATOM      7  C   UNL d   1      54.078  31.061  53.580  0.00  0.00     0.084 C 
BRANCH   7   8
ATOM      8  C   UNL d   1      53.484  30.480  53.424  0.00  0.00     0.057 A 
ATOM      9  C   UNL d   1      53.419  29.870  53.939  0.00  0.00     0.004 A 
ATOM     10  C   UNL d   1      52.816  29.272  53.788  0.00  0.00     0.000 A 
ATOM     11  C   UNL d   1      53.907  29.800  54.601  0.00  0.00     0.000 A 
ATOM     12  C   UNL d   1      52.739  28.640  54.310  0.00  0.00     0.000 A 
ATOM     13  C   UNL d   1      52.340  29.340  53.144  0.00  0.00     0.003 A 
ATOM     14  C   UNL d   1      53.249  28.608  54.960  0.00  0.00     0.000 A 
ATOM     15  C   UNL d   1      53.794  29.131  55.115  0.00  0.00     0.000 A 
ATOM     16  C   UNL d   1      52.443  30.011  52.617  0.00  0.00     0.042 A 
ATOM     17  C   UNL d   1      52.988  30.532  52.771  0.00  0.00     0.197 A 
ATOM     18  O   UNL d   1      53.067  31.183  52.233  0.00  0.00    -0.286 OA
ENDBRANCH   7   8
ENDBRANCH   2   7
BRANCH   1  19
ATOM     19  C   UNL d   1      53.323  34.200  54.224  0.00  0.00     0.092 A 
ATOM     20  C   UNL d   1      52.860  34.621  53.681  0.00  0.00     0.156 A 
ATOM     21  F   UNL d   1      52.580  34.273  52.987  0.00  0.00    -0.203 F 
ATOM     22  C   UNL d   1      52.668  35.432  53.844  0.00  0.00     0.031 A 
ATOM     23  C   UNL d   1      52.949  35.779  54.542  0.00  0.00     0.002 A 
ATOM     24  C   UNL d   1      53.401  35.359  55.067  0.00  0.00     0.002 A 
ATOM     25  C   UNL d   1      53.593  34.548  54.903  0.00  0.00     0.020 A 
ENDBRANCH   1  19
TORSDOF 3
ENDMDL
