MODEL 1
REMARK VINA RESULT:      93.8      0.000      0.000
REMARK  4 active torsions:
REMARK  status: ('A' for Active; 'I' for Inactive)
REMARK    1  A    between atoms: S_2  and  N_1 
REMARK    2  A    between atoms: C_10  and  S_2 
REMARK    3  A    between atoms: C_7  and  C_4 
REMARK    4  A    between atoms: C_11  and  C_5 
ROOT
ATOM      1  N   UNL d   1     -48.274  29.867  34.546  0.00  0.00    -0.152 N 
ATOM      2  N   UNL d   1     -48.815  29.424  34.078  0.00  0.00    -0.155 NA
ATOM      3  C   UNL d   1     -48.047  29.396  35.191  0.00  0.00     0.099 A 
ATOM      4  C   UNL d   1     -48.927  28.678  34.427  0.00  0.00     0.104 A 
ATOM      5  C   UNL d   1     -48.456  28.656  35.113  0.00  0.00     0.041 A 
ENDROOT
BRANCH   1   6
ATOM      6  S   UNL d   1     -48.012  30.620  34.407  0.00  0.00     0.286 S 
ATOM      7  O   UNL d   1     -47.133  30.360  34.422  0.00  0.00    -0.198 OA
ATOM      8  O   UNL d   1     -48.807  30.878  34.389  0.00  0.00    -0.198 OA
BRANCH   6   9
ATOM      9  C   UNL d   1     -48.000  31.429  34.266  0.00  0.00     0.105 A 
ATOM     10  C   UNL d   1     -48.708  31.850  34.213  0.00  0.00     0.013 A 
ATOM     11  C   UNL d   1     -48.696  32.664  34.072  0.00  0.00     0.001 A 
ATOM     12  C   UNL d   1     -47.975  33.032  33.988  0.00  0.00     0.000 A 
ATOM     13  C   UNL d   1     -47.265  32.636  34.037  0.00  0.00     0.001 A 
ATOM     14  C   UNL d   1     -47.278  31.822  34.178  0.00  0.00     0.013 A 
ENDBRANCH   6   9
ENDBRANCH   1   6
BRANCH   3  15
ATOM     15  C   UNL d   1     -47.524  29.601  35.796  0.00  0.00     0.058 A 
ATOM     16  C   UNL d   1     -47.812  29.646  36.556  0.00  0.00     0.197 A 
ATOM     17  O   UNL d   1     -48.587  29.500  36.749  0.00  0.00    -0.286 OA
ATOM     18  C   UNL d   1     -47.272  29.858  37.181  0.00  0.00     0.042 A 
ATOM     19  C   UNL d   1     -46.478  30.011  37.007  0.00  0.00     0.003 A 
ATOM     20  C   UNL d   1     -46.242  29.950  36.223  0.00  0.00     0.000 A 
ATOM     21  C   UNL d   1     -46.748  29.752  35.638  0.00  0.00     0.005 A 
ENDBRANCH   3  15
BRANCH   4  22
ATOM     22  C   UNL d   1     -49.407  28.096  34.140  0.00  0.00     0.019 A 
ATOM     23  C   UNL d   1     -49.289  27.311  34.380  0.00  0.00     0.002 A 
ATOM     24  C   UNL d   1     -49.771  26.725  34.092  0.00  0.00     0.000 A 
ATOM     25  C   UNL d   1     -50.348  26.907  33.587  0.00  0.00     0.000 A 
ATOM     26  C   UNL d   1     -50.487  27.657  33.335  0.00  0.00     0.000 A 
ATOM     27  C   UNL d   1     -50.826  26.295  33.307  0.00  0.00     0.000 C 
ATOM     28  C   UNL d   1     -50.007  28.272  33.616  0.00  0.00     0.002 A 
ENDBRANCH   4  22
TORSDOF 4
ENDMDL
