MODEL 1
REMARK VINA RESULT:      -4.8      0.000      0.000
REMARK  8 active torsions:
REMARK  status: ('A' for Active; 'I' for Inactive)
REMARK    1  A    between atoms: C_4  and  N_1 
REMARK    2  A    between atoms: C_10  and  C_2 
REMARK    3  A    between atoms: N_14  and  C_4 
REMARK    4  A    between atoms: O_17  and  C_8 
REMARK    5  A    between atoms: O_15  and  C_10 
REMARK    6  A    between atoms: O_18  and  C_11 
REMARK    7  A    between atoms: C_16  and  O_15 
REMARK    8  A    between atoms: C_25  and  C_19 
ROOT
ATOM      1  N   UNL d   1     -49.006  12.337  23.237  0.00  0.00    -0.280 N 
ATOM      2  C   UNL d   1     -48.666  13.044  22.981  0.00  0.00     0.091 A 
ATOM      3  C   UNL d   1     -49.072  13.746  23.073  0.00  0.00     0.020 A 
ATOM      4  C   UNL d   1     -49.820  13.751  23.421  0.00  0.00     0.005 A 
ATOM      5  C   UNL d   1     -48.732  14.449  22.816  0.00  0.00     0.028 A 
ATOM      6  C   UNL d   1     -49.754  12.343  23.585  0.00  0.00     0.082 A 
ATOM      7  C   UNL d   1     -49.139  15.161  22.908  0.00  0.00     0.116 A 
ATOM      8  C   UNL d   1     -50.228  14.460  23.513  0.00  0.00     0.026 A 
ATOM      9  C   UNL d   1     -49.887  15.166  23.256  0.00  0.00     0.116 A 
ATOM     10  C   UNL d   1     -50.161  13.055  23.677  0.00  0.00     0.019 A 
ENDROOT
BRANCH   2  11
ATOM     11  C   UNL d   1     -47.918  13.038  22.632  0.00  0.00     0.140 C 
BRANCH  11  12
ATOM     12  O   UNL d   1     -47.307  13.490  22.958  0.00  0.00    -0.304 OA
BRANCH  12  13
ATOM     13  C   UNL d   1     -46.540  13.419  22.664  0.00  0.00     0.100 A 
ATOM     14  C   UNL d   1     -45.897  13.633  23.134  0.00  0.00     0.025 A 
ATOM     15  C   UNL d   1     -45.129  13.562  22.840  0.00  0.00     0.002 A 
ATOM     16  C   UNL d   1     -45.005  13.277  22.076  0.00  0.00     0.000 A 
ATOM     17  C   UNL d   1     -45.649  13.063  21.605  0.00  0.00     0.002 A 
ATOM     18  C   UNL d   1     -46.416  13.134  21.899  0.00  0.00     0.025 A 
BRANCH  16  19
ATOM     19  C   UNL d   1     -44.237  13.206  21.782  0.00  0.00     0.000 C 
ATOM     20  C   UNL d   1     -43.892  12.464  21.706  0.00  0.00     0.000 C 
ENDBRANCH  16  19
ENDBRANCH  12  13
ENDBRANCH  11  12
ENDBRANCH   2  11
BRANCH   1  21
ATOM     21  C   UNL d   1     -48.598  11.616  23.147  0.00  0.00     0.206 C 
ATOM     22  S   UNL d   1     -48.774  11.121  22.500  0.00  0.00    -0.038 SA
BRANCH  21  23
ATOM     23  N   UNL d   1     -48.030  11.396  23.691  0.00  0.00    -0.215 NA
ATOM     24  C   UNL d   1     -47.729  10.628  23.692  0.00  0.00     0.122 C 
ENDBRANCH  21  23
ENDBRANCH   1  21
BRANCH   7  25
ATOM     25  O   UNL d   1     -48.799  15.872  22.650  0.00  0.00    -0.326 OA
ATOM     26  C   UNL d   1     -48.434  15.922  21.903  0.00  0.00     0.181 C 
ENDBRANCH   7  25
BRANCH   9  27
ATOM     27  O   UNL d   1     -50.295  15.883  23.346  0.00  0.00    -0.326 OA
ATOM     28  C   UNL d   1     -51.052  15.897  23.694  0.00  0.00     0.181 C 
ENDBRANCH   9  27
TORSDOF 8
ENDMDL
