MODEL 1
REMARK VINA RESULT:      47.7      0.000      0.000
REMARK  4 active torsions:
REMARK  status: ('A' for Active; 'I' for Inactive)
REMARK    1  A    between atoms: C_9  and  C_2 
REMARK    2  A    between atoms: S_8  and  C_4 
REMARK       I    between atoms: N_6  and  C_7 
REMARK    3  A    between atoms: C_7  and  C_10 
REMARK    4  A    between atoms: C_10  and  S_8 
ROOT
ATOM      1  N   UNL d   1     -50.595  25.558  33.524  0.00  0.00    -0.212 NA
ATOM      2  C   UNL d   1     -51.393  25.440  33.400  0.00  0.00     0.171 A 
ATOM      3  N   UNL d   1     -51.751  26.177  33.309  0.00  0.00    -0.188 NA
ATOM      4  C   UNL d   1     -50.443  26.366  33.513  0.00  0.00     0.160 A 
ATOM      5  S   UNL d   1     -51.164  26.750  33.379  0.00  0.00     0.041 SA
ENDROOT
BRANCH   4   6
ATOM      6  S   UNL d   1     -49.712  26.734  33.615  0.00  0.00    -0.054 SA
BRANCH   6   7
ATOM      7  C   UNL d   1     -49.625  27.322  34.176  0.00  0.00     0.098 C 
BRANCH   7   8
ATOM      8  C   UNL d   1     -48.960  27.815  34.170  0.00  0.00     0.272 C 
ATOM      9  N   UNL d   1     -48.716  28.213  34.851  0.00  0.00    -0.267 N 
ATOM     10  C   UNL d   1     -48.054  28.696  34.823  0.00  0.00     0.110 A 
ATOM     11  C   UNL d   1     -49.142  28.118  35.551  0.00  0.00     0.110 A 
ATOM     12  C   UNL d   1     -47.813  29.094  35.512  0.00  0.00     0.142 A 
ATOM     13  O   UNL d   1     -48.229  29.007  36.214  0.00  0.00    -0.300 OA
ATOM     14  C   UNL d   1     -48.900  28.516  36.239  0.00  0.00     0.142 A 
ATOM     15  O   UNL d   1     -48.531  27.910  33.463  0.00  0.00    -0.266 OA
ENDBRANCH   7   8
ENDBRANCH   6   7
ENDBRANCH   4   6
BRANCH   2  16
ATOM     16  C   UNL d   1     -51.784  24.714  33.369  0.00  0.00     0.036 A 
ATOM     17  C   UNL d   1     -52.595  24.690  33.338  0.00  0.00     0.003 A 
ATOM     18  C   UNL d   1     -52.996  23.978  33.307  0.00  0.00     0.000 A 
ATOM     19  C   UNL d   1     -52.566  23.271  33.307  0.00  0.00     0.000 A 
ATOM     20  C   UNL d   1     -51.747  23.286  33.338  0.00  0.00     0.000 A 
ATOM     21  C   UNL d   1     -51.358  24.000  33.369  0.00  0.00     0.003 A 
ENDBRANCH   2  16
TORSDOF 4
ENDMDL
