MODEL 1
REMARK VINA RESULT:      22.8      0.000      0.000
REMARK  4 active torsions:
REMARK  status: ('A' for Active; 'I' for Inactive)
REMARK    1  A    between atoms: C_9  and  N_2 
REMARK    2  A    between atoms: C_7  and  O_10 
REMARK    3  A    between atoms: C_11  and  C_9 
REMARK    4  A    between atoms: O_10  and  C_11 
ROOT
ATOM      1  C   UNL d   1      13.328  12.558  -4.787  0.00  0.00     0.378 A 
ATOM      2  N   UNL d   1      13.198  12.804  -4.002  0.00  0.00    -0.249 N 
ATOM      3  O   UNL d   1      13.516  13.229  -5.239  0.00  0.00    -0.258 OA
ATOM      4  C   UNL d   1      13.305  13.624  -3.974  0.00  0.00     0.092 A 
ATOM      5  C   UNL d   1      13.502  13.884  -4.738  0.00  0.00     0.121 A 
ATOM      6  O   UNL d   1      13.277  11.783  -5.056  0.00  0.00    -0.237 OA
ATOM      7  C   UNL d   1      13.250  14.166  -3.351  0.00  0.00     0.020 A 
ATOM      8  C   UNL d   1      13.642  14.694  -4.869  0.00  0.00     0.026 A 
ATOM      9  C   UNL d   1      13.391  14.967  -3.494  0.00  0.00     0.002 A 
ATOM     10  C   UNL d   1      13.586  15.229  -4.248  0.00  0.00     0.002 A 
ENDROOT
BRANCH   2  11
ATOM     11  C   UNL d   1      12.996  12.350  -3.342  0.00  0.00     0.112 C 
BRANCH  11  12
ATOM     12  C   UNL d   1      13.576  12.121  -2.813  0.00  0.00     0.142 C 
BRANCH  12  13
ATOM     13  O   UNL d   1      13.362  11.815  -2.077  0.00  0.00    -0.304 OA
BRANCH  13  14
ATOM     14  C   UNL d   1      13.911  11.805  -1.459  0.00  0.00     0.100 A 
ATOM     15  C   UNL d   1      13.641  11.793  -0.686  0.00  0.00     0.023 A 
ATOM     16  C   UNL d   1      12.835  11.791  -0.525  0.00  0.00     0.002 C 
ATOM     17  C   UNL d   1      14.185  11.783  -0.061  0.00  0.00     0.002 A 
ATOM     18  C   UNL d   1      14.997  11.786  -0.229  0.00  0.00     0.000 A 
ATOM     19  C   UNL d   1      15.257  11.798  -1.011  0.00  0.00     0.002 A 
ATOM     20  C   UNL d   1      14.714  11.807  -1.622  0.00  0.00     0.025 A 
ENDBRANCH  13  14
ENDBRANCH  12  13
ENDBRANCH  11  12
ENDBRANCH   2  11
TORSDOF 4
ENDMDL
