MODEL 1
REMARK VINA RESULT:      -3.0      0.000      0.000
REMARK  4 active torsions:
REMARK  status: ('A' for Active; 'I' for Inactive)
REMARK    1  A    between atoms: N_7  and  C_2 
REMARK    2  A    between atoms: C_6  and  C_3 
REMARK    3  A    between atoms: C_16  and  N_7 
REMARK    4  A    between atoms: C_10  and  C_16 
ROOT
ATOM      1  N   UNL d   1      31.415  17.019 -23.371  0.00  0.00    -0.222 NA
ATOM      2  C   UNL d   1      32.164  17.180 -23.671  0.00  0.00     0.172 A 
ATOM      3  C   UNL d   1      30.990  16.600 -23.953  0.00  0.00     0.090 A 
ATOM      4  S   UNL d   1      32.207  16.869 -24.423  0.00  0.00    -0.048 SA
ATOM      5  C   UNL d   1      31.490  16.514 -24.596  0.00  0.00     0.057 A 
ENDROOT
BRANCH   3   6
ATOM      6  C   UNL d   1      30.202  16.335 -23.857  0.00  0.00     0.018 A 
ATOM      7  C   UNL d   1      30.047  15.717 -23.341  0.00  0.00     0.002 A 
ATOM      8  C   UNL d   1      29.259  15.453 -23.244  0.00  0.00     0.011 A 
ATOM      9  C   UNL d   1      28.669  15.820 -23.669  0.00  0.00     0.058 A 
ATOM     10  C   UNL d   1      28.823  16.442 -24.189  0.00  0.00     0.011 A 
ATOM     11 CL   UNL d   1      27.898  15.561 -23.574  0.00  0.00    -0.082 Cl
ATOM     12  C   UNL d   1      29.600  16.703 -24.284  0.00  0.00     0.002 A 
ENDBRANCH   3   6
BRANCH   2  13
ATOM     13  N   UNL d   1      32.773  17.580 -23.298  0.00  0.00    -0.332 N 
ATOM     14  H   UNL d   1      33.492  17.190 -23.147  0.00  0.00     0.168 HD
BRANCH  13  15
ATOM     15  C   UNL d   1      32.678  18.376 -23.070  0.00  0.00     0.074 C 
BRANCH  15  16
ATOM     16  C   UNL d   1      33.240  18.749 -22.623  0.00  0.00     0.018 C 
ATOM     17  C   UNL d   1      33.133  19.549 -22.367  0.00  0.00     0.002 C 
ENDBRANCH  15  16
ENDBRANCH  13  15
ENDBRANCH   2  13
TORSDOF 4
ENDMDL
MODEL 2
REMARK VINA RESULT:      -3.0      1.474      2.110
REMARK  4 active torsions:
REMARK  status: ('A' for Active; 'I' for Inactive)
REMARK    1  A    between atoms: N_7  and  C_2 
REMARK    2  A    between atoms: C_6  and  C_3 
REMARK    3  A    between atoms: C_16  and  N_7 
REMARK    4  A    between atoms: C_10  and  C_16 
ROOT
ATOM      1  N   UNL d   1      32.412  18.249 -22.847  0.00  0.00    -0.222 NA
ATOM      2  C   UNL d   1      32.977  18.848 -22.842  0.00  0.00     0.172 A 
ATOM      3  C   UNL d   1      32.330  17.982 -23.633  0.00  0.00     0.090 A 
ATOM      4  S   UNL d   1      33.241  18.952 -23.605  0.00  0.00    -0.048 SA
ATOM      5  C   UNL d   1      32.846  18.423 -24.089  0.00  0.00     0.057 A 
ENDROOT
BRANCH   3   6
ATOM      6  C   UNL d   1      31.805  17.373 -23.866  0.00  0.00     0.018 A 
ATOM      7  C   UNL d   1      31.930  16.610 -23.594  0.00  0.00     0.002 A 
ATOM      8  C   UNL d   1      31.405  16.001 -23.827  0.00  0.00     0.011 A 
ATOM      9  C   UNL d   1      30.784  16.189 -24.319  0.00  0.00     0.058 A 
ATOM     10  C   UNL d   1      30.656  16.957 -24.594  0.00  0.00     0.011 A 
ATOM     11 CL   UNL d   1      30.270  15.593 -24.547  0.00  0.00    -0.082 Cl
ATOM     12  C   UNL d   1      31.173  17.557 -24.364  0.00  0.00     0.002 A 
ENDBRANCH   3   6
BRANCH   2  13
ATOM     13  N   UNL d   1      33.241  19.276 -22.197  0.00  0.00    -0.332 N 
ATOM     14  H   UNL d   1      33.899  19.007 -21.764  0.00  0.00     0.168 HD
BRANCH  13  15
ATOM     15  C   UNL d   1      32.856  19.979 -21.970  0.00  0.00     0.074 C 
BRANCH  15  16
ATOM     16  C   UNL d   1      33.093  20.389 -21.314  0.00  0.00     0.018 C 
ATOM     17  C   UNL d   1      32.624  21.021 -21.002  0.00  0.00     0.002 C 
ENDBRANCH  15  16
ENDBRANCH  13  15
ENDBRANCH   2  13
TORSDOF 4
ENDMDL
MODEL 3
REMARK VINA RESULT:      -2.9      2.151      3.138
REMARK  4 active torsions:
REMARK  status: ('A' for Active; 'I' for Inactive)
REMARK    1  A    between atoms: N_7  and  C_2 
REMARK    2  A    between atoms: C_6  and  C_3 
REMARK    3  A    between atoms: C_16  and  N_7 
REMARK    4  A    between atoms: C_10  and  C_16 
ROOT
ATOM      1  N   UNL d   1      32.867  18.841 -22.452  0.00  0.00    -0.222 NA
ATOM      2  C   UNL d   1      33.122  19.622 -22.509  0.00  0.00     0.172 A 
ATOM      3  C   UNL d   1      32.830  18.528 -23.224  0.00  0.00     0.090 A 
ATOM      4  S   UNL d   1      33.241  19.792 -23.296  0.00  0.00    -0.048 SA
ATOM      5  C   UNL d   1      33.063  19.124 -23.734  0.00  0.00     0.057 A 
ENDROOT
BRANCH   3   6
ATOM      6  C   UNL d   1      32.593  17.744 -23.398  0.00  0.00     0.018 A 
ATOM      7  C   UNL d   1      31.861  17.613 -23.742  0.00  0.00     0.002 A 
ATOM      8  C   UNL d   1      31.624  16.830 -23.917  0.00  0.00     0.011 A 
ATOM      9  C   UNL d   1      32.133  16.220 -23.738  0.00  0.00     0.058 A 
ATOM     10  C   UNL d   1      32.871  16.349 -23.392  0.00  0.00     0.011 A 
ATOM     11 CL   UNL d   1      31.902  15.453 -23.909  0.00  0.00    -0.082 Cl
ATOM     12  C   UNL d   1      33.104  17.121 -23.220  0.00  0.00     0.002 A 
ENDBRANCH   3   6
BRANCH   2  13
ATOM     13  N   UNL d   1      33.241  20.151 -21.896  0.00  0.00    -0.332 N 
ATOM     14  H   UNL d   1      33.958  20.140 -21.474  0.00  0.00     0.168 HD
BRANCH  13  15
ATOM     15  C   UNL d   1      32.649  20.700 -21.691  0.00  0.00     0.074 C 
BRANCH  15  16
ATOM     16  C   UNL d   1      32.764  21.230 -21.091  0.00  0.00     0.018 C 
ATOM     17  C   UNL d   1      32.117  21.494 -20.612  0.00  0.00     0.002 C 
ENDBRANCH  15  16
ENDBRANCH  13  15
ENDBRANCH   2  13
TORSDOF 4
ENDMDL
MODEL 4
REMARK VINA RESULT:      -2.8      3.325      5.715
REMARK  4 active torsions:
REMARK  status: ('A' for Active; 'I' for Inactive)
REMARK    1  A    between atoms: N_7  and  C_2 
REMARK    2  A    between atoms: C_6  and  C_3 
REMARK    3  A    between atoms: C_16  and  N_7 
REMARK    4  A    between atoms: C_10  and  C_16 
ROOT
ATOM      1  N   UNL d   1      32.865  20.354 -22.509  0.00  0.00    -0.222 NA
ATOM      2  C   UNL d   1      33.079  19.560 -22.512  0.00  0.00     0.172 A 
ATOM      3  C   UNL d   1      32.897  20.626 -21.721  0.00  0.00     0.090 A 
ATOM      4  S   UNL d   1      33.241  19.339 -21.744  0.00  0.00    -0.048 SA
ATOM      5  C   UNL d   1      33.130  19.990 -21.261  0.00  0.00     0.057 A 
ENDROOT
BRANCH   3   6
ATOM      6  C   UNL d   1      32.717  21.409 -21.490  0.00  0.00     0.018 A 
ATOM      7  C   UNL d   1      32.967  22.034 -21.959  0.00  0.00     0.002 A 
ATOM      8  C   UNL d   1      32.786  22.817 -21.727  0.00  0.00     0.011 A 
ATOM      9  C   UNL d   1      32.366  22.934 -21.040  0.00  0.00     0.058 A 
ATOM     10  C   UNL d   1      32.113  22.307 -20.566  0.00  0.00     0.011 A 
ATOM     11 CL   UNL d   1      32.189  23.701 -20.813  0.00  0.00    -0.082 Cl
ATOM     12  C   UNL d   1      32.291  21.534 -20.794  0.00  0.00     0.002 A 
ENDBRANCH   3   6
BRANCH   2  13
ATOM     13  N   UNL d   1      33.128  19.060 -23.158  0.00  0.00    -0.332 N 
ATOM     14  H   UNL d   1      33.804  19.076 -23.642  0.00  0.00     0.168 HD
BRANCH  13  15
ATOM     15  C   UNL d   1      32.504  18.536 -23.334  0.00  0.00     0.074 C 
BRANCH  15  16
ATOM     16  C   UNL d   1      32.499  18.116 -24.026  0.00  0.00     0.018 C 
ATOM     17  C   UNL d   1      31.846  17.615 -24.226  0.00  0.00     0.002 C 
ENDBRANCH  15  16
ENDBRANCH  13  15
ENDBRANCH   2  13
TORSDOF 4
ENDMDL
MODEL 5
REMARK VINA RESULT:      -2.8      2.032      3.965
REMARK  4 active torsions:
REMARK  status: ('A' for Active; 'I' for Inactive)
REMARK    1  A    between atoms: N_7  and  C_2 
REMARK    2  A    between atoms: C_6  and  C_3 
REMARK    3  A    between atoms: C_16  and  N_7 
REMARK    4  A    between atoms: C_10  and  C_16 
ROOT
ATOM      1  N   UNL d   1      31.043  16.844 -23.558  0.00  0.00    -0.222 NA
ATOM      2  C   UNL d   1      30.894  16.053 -23.386  0.00  0.00     0.172 A 
ATOM      3  C   UNL d   1      31.827  16.902 -23.836  0.00  0.00     0.090 A 
ATOM      4  S   UNL d   1      31.568  15.627 -23.552  0.00  0.00    -0.048 SA
ATOM      5  C   UNL d   1      32.139  16.145 -23.827  0.00  0.00     0.057 A 
ENDROOT
BRANCH   3   6
ATOM      6  C   UNL d   1      32.187  17.621 -24.069  0.00  0.00     0.018 A 
ATOM      7  C   UNL d   1      32.545  18.093 -23.502  0.00  0.00     0.002 A 
ATOM      8  C   UNL d   1      32.905  18.811 -23.735  0.00  0.00     0.011 A 
ATOM      9  C   UNL d   1      32.888  19.019 -24.522  0.00  0.00     0.058 A 
ATOM     10  C   UNL d   1      32.528  18.545 -25.095  0.00  0.00     0.011 A 
ATOM     11 CL   UNL d   1      33.241  19.722 -24.751  0.00  0.00    -0.082 Cl
ATOM     12  C   UNL d   1      32.173  17.837 -24.865  0.00  0.00     0.002 A 
ENDBRANCH   3   6
BRANCH   2  13
ATOM     13  N   UNL d   1      30.199  15.729 -23.099  0.00  0.00    -0.332 N 
ATOM     14  H   UNL d   1      30.219  15.239 -22.427  0.00  0.00     0.168 HD
BRANCH  13  15
ATOM     15  C   UNL d   1      29.473  15.888 -23.475  0.00  0.00     0.074 C 
BRANCH  15  16
ATOM     16  C   UNL d   1      28.772  15.665 -23.135  0.00  0.00     0.018 C 
ATOM     17  C   UNL d   1      28.040  15.753 -23.550  0.00  0.00     0.002 C 
ENDBRANCH  15  16
ENDBRANCH  13  15
ENDBRANCH   2  13
TORSDOF 4
ENDMDL
MODEL 6
REMARK VINA RESULT:      -2.6      2.796      5.199
REMARK  4 active torsions:
REMARK  status: ('A' for Active; 'I' for Inactive)
REMARK    1  A    between atoms: N_7  and  C_2 
REMARK    2  A    between atoms: C_6  and  C_3 
REMARK    3  A    between atoms: C_16  and  N_7 
REMARK    4  A    between atoms: C_10  and  C_16 
ROOT
ATOM      1  N   UNL d   1      32.913  19.202 -22.222  0.00  0.00    -0.222 NA
ATOM      2  C   UNL d   1      33.025  18.814 -22.939  0.00  0.00     0.172 A 
ATOM      3  C   UNL d   1      33.049  20.015 -22.346  0.00  0.00     0.090 A 
ATOM      4  S   UNL d   1      33.226  19.371 -23.498  0.00  0.00    -0.048 SA
ATOM      5  C   UNL d   1      33.241  20.105 -23.137  0.00  0.00     0.057 A 
ENDROOT
BRANCH   3   6
ATOM      6  C   UNL d   1      32.989  20.596 -21.746  0.00  0.00     0.018 A 
ATOM      7  C   UNL d   1      33.241  20.416 -20.987  0.00  0.00     0.002 A 
ATOM      8  C   UNL d   1      33.181  20.996 -20.387  0.00  0.00     0.011 A 
ATOM      9  C   UNL d   1      32.872  21.725 -20.579  0.00  0.00     0.058 A 
ATOM     10  C   UNL d   1      32.617  21.908 -21.343  0.00  0.00     0.011 A 
ATOM     11 CL   UNL d   1      32.813  22.293 -19.992  0.00  0.00    -0.082 Cl
ATOM     12  C   UNL d   1      32.677  21.336 -21.934  0.00  0.00     0.002 A 
ENDBRANCH   3   6
BRANCH   2  13
ATOM     13  N   UNL d   1      32.953  18.013 -23.087  0.00  0.00    -0.332 N 
ATOM     14  H   UNL d   1      33.515  17.483 -22.777  0.00  0.00     0.168 HD
BRANCH  13  15
ATOM     15  C   UNL d   1      32.321  17.724 -23.546  0.00  0.00     0.074 C 
BRANCH  15  16
ATOM     16  C   UNL d   1      32.170  16.929 -23.591  0.00  0.00     0.018 C 
ATOM     17  C   UNL d   1      31.385  16.642 -23.724  0.00  0.00     0.002 C 
ENDBRANCH  15  16
ENDBRANCH  13  15
ENDBRANCH   2  13
TORSDOF 4
ENDMDL
MODEL 7
REMARK VINA RESULT:      -2.4      3.523      4.660
REMARK  4 active torsions:
REMARK  status: ('A' for Active; 'I' for Inactive)
REMARK    1  A    between atoms: N_7  and  C_2 
REMARK    2  A    between atoms: C_6  and  C_3 
REMARK    3  A    between atoms: C_16  and  N_7 
REMARK    4  A    between atoms: C_10  and  C_16 
ROOT
ATOM      1  N   UNL d   1      33.095  20.705 -22.227  0.00  0.00    -0.222 NA
ATOM      2  C   UNL d   1      33.164  20.965 -21.449  0.00  0.00     0.172 A 
ATOM      3  C   UNL d   1      33.131  19.872 -22.223  0.00  0.00     0.090 A 
ATOM      4  S   UNL d   1      33.241  20.310 -20.970  0.00  0.00    -0.048 SA
ATOM      5  C   UNL d   1      33.221  19.642 -21.442  0.00  0.00     0.057 A 
ENDROOT
BRANCH   3   6
ATOM      6  C   UNL d   1      33.080  19.399 -22.911  0.00  0.00     0.018 A 
ATOM      7  C   UNL d   1      32.871  18.609 -22.841  0.00  0.00     0.002 A 
ATOM      8  C   UNL d   1      32.820  18.136 -23.530  0.00  0.00     0.011 A 
ATOM      9  C   UNL d   1      32.981  18.479 -24.251  0.00  0.00     0.058 A 
ATOM     10  C   UNL d   1      33.191  19.274 -24.324  0.00  0.00     0.011 A 
ATOM     11 CL   UNL d   1      32.931  18.016 -24.925  0.00  0.00    -0.082 Cl
ATOM     12  C   UNL d   1      33.241  19.740 -23.645  0.00  0.00     0.002 A 
ENDBRANCH   3   6
BRANCH   2  13
ATOM     13  N   UNL d   1      33.158  21.738 -21.182  0.00  0.00    -0.332 N 
ATOM     14  H   UNL d   1      33.786  22.017 -20.712  0.00  0.00     0.168 HD
BRANCH  13  15
ATOM     15  C   UNL d   1      32.529  22.247 -21.376  0.00  0.00     0.074 C 
BRANCH  15  16
ATOM     16  C   UNL d   1      32.410  22.936 -20.967  0.00  0.00     0.018 C 
ATOM     17  C   UNL d   1      31.892  23.536 -21.265  0.00  0.00     0.002 C 
ENDBRANCH  15  16
ENDBRANCH  13  15
ENDBRANCH   2  13
TORSDOF 4
ENDMDL
MODEL 8
REMARK VINA RESULT:      -2.2      5.629      8.023
REMARK  4 active torsions:
REMARK  status: ('A' for Active; 'I' for Inactive)
REMARK    1  A    between atoms: N_7  and  C_2 
REMARK    2  A    between atoms: C_6  and  C_3 
REMARK    3  A    between atoms: C_16  and  N_7 
REMARK    4  A    between atoms: C_10  and  C_16 
ROOT
ATOM      1  N   UNL d   1      32.890  22.166 -19.834  0.00  0.00    -0.222 NA
ATOM      2  C   UNL d   1      32.933  22.324 -20.641  0.00  0.00     0.172 A 
ATOM      3  C   UNL d   1      32.948  22.891 -19.428  0.00  0.00     0.090 A 
ATOM      4  S   UNL d   1      33.016  23.128 -20.736  0.00  0.00    -0.048 SA
ATOM      5  C   UNL d   1      33.025  23.476 -19.996  0.00  0.00     0.057 A 
ENDROOT
BRANCH   3   6
ATOM      6  C   UNL d   1      32.926  22.962 -18.594  0.00  0.00     0.018 A 
ATOM      7  C   UNL d   1      32.594  23.632 -18.257  0.00  0.00     0.002 A 
ATOM      8  C   UNL d   1      32.573  23.702 -17.423  0.00  0.00     0.011 A 
ATOM      9  C   UNL d   1      32.885  23.100 -16.972  0.00  0.00     0.058 A 
ATOM     10  C   UNL d   1      33.220  22.425 -17.310  0.00  0.00     0.011 A 
ATOM     11 CL   UNL d   1      32.864  23.170 -16.157  0.00  0.00    -0.082 Cl
ATOM     12  C   UNL d   1      33.241  22.355 -18.132  0.00  0.00     0.002 A 
ENDBRANCH   3   6
BRANCH   2  13
ATOM     13  N   UNL d   1      32.901  21.784 -21.255  0.00  0.00    -0.332 N 
ATOM     14  H   UNL d   1      33.192  21.994 -22.006  0.00  0.00     0.168 HD
BRANCH  13  15
ATOM     15  C   UNL d   1      32.578  21.026 -21.134  0.00  0.00     0.074 C 
BRANCH  15  16
ATOM     16  C   UNL d   1      32.374  20.557 -21.762  0.00  0.00     0.018 C 
ATOM     17  C   UNL d   1      32.882  19.931 -22.021  0.00  0.00     0.002 C 
ENDBRANCH  15  16
ENDBRANCH  13  15
ENDBRANCH   2  13
TORSDOF 4
ENDMDL
MODEL 9
REMARK VINA RESULT:      -1.7      2.262      4.363
REMARK  4 active torsions:
REMARK  status: ('A' for Active; 'I' for Inactive)
REMARK    1  A    between atoms: N_7  and  C_2 
REMARK    2  A    between atoms: C_6  and  C_3 
REMARK    3  A    between atoms: C_16  and  N_7 
REMARK    4  A    between atoms: C_10  and  C_16 
ROOT
ATOM      1  N   UNL d   1      31.917  18.335 -24.039  0.00  0.00    -0.222 NA
ATOM      2  C   UNL d   1      32.003  17.830 -24.684  0.00  0.00     0.172 A 
ATOM      3  C   UNL d   1      32.674  18.623 -23.838  0.00  0.00     0.090 A 
ATOM      4  S   UNL d   1      32.793  17.803 -24.880  0.00  0.00    -0.048 SA
ATOM      5  C   UNL d   1      33.203  18.287 -24.364  0.00  0.00     0.057 A 
ENDROOT
BRANCH   3   6
ATOM      6  C   UNL d   1      32.818  19.154 -23.208  0.00  0.00     0.018 A 
ATOM      7  C   UNL d   1      32.726  18.895 -22.435  0.00  0.00     0.002 A 
ATOM      8  C   UNL d   1      32.870  19.427 -21.805  0.00  0.00     0.011 A 
ATOM      9  C   UNL d   1      33.099  20.188 -21.982  0.00  0.00     0.058 A 
ATOM     10  C   UNL d   1      33.193  20.451 -22.759  0.00  0.00     0.011 A 
ATOM     11 CL   UNL d   1      33.241  20.708 -21.365  0.00  0.00    -0.082 Cl
ATOM     12  C   UNL d   1      33.051  19.927 -23.380  0.00  0.00     0.002 A 
ENDBRANCH   3   6
BRANCH   2  13
ATOM     13  N   UNL d   1      31.412  17.419 -25.074  0.00  0.00    -0.332 N 
ATOM     14  H   UNL d   1      31.526  17.184 -25.864  0.00  0.00     0.168 HD
BRANCH  13  15
ATOM     15  C   UNL d   1      30.699  17.234 -24.685  0.00  0.00     0.074 C 
BRANCH  15  16
ATOM     16  C   UNL d   1      30.114  16.824 -25.065  0.00  0.00     0.018 C 
ATOM     17  C   UNL d   1      29.376  16.663 -24.682  0.00  0.00     0.002 C 
ENDBRANCH  15  16
ENDBRANCH  13  15
ENDBRANCH   2  13
TORSDOF 4
ENDMDL
