MODEL 1
REMARK VINA RESULT:      -1.7      0.000      0.000
REMARK  6 active torsions:
REMARK  status: ('A' for Active; 'I' for Inactive)
REMARK    1  A    between atoms: C_2  and  S_1 
REMARK    2  A    between atoms: N_5  and  S_1 
REMARK    3  A    between atoms: O_14  and  C_4 
REMARK    4  A    between atoms: C_11  and  N_5 
REMARK    5  A    between atoms: C_15  and  C_11 
REMARK    6  A    between atoms: C_18  and  O_14 
ROOT
ATOM      1  C   UNL d   1     -41.915-122.706 -51.156  0.00  0.00     0.129 A 
ATOM      2  C   UNL d   1     -42.355-123.293 -50.784  0.00  0.00     0.026 A 
ATOM      3  C   UNL d   1     -41.651-122.055 -50.726  0.00  0.00     0.112 A 
ATOM      4  C   UNL d   1     -42.532-123.230 -49.981  0.00  0.00     0.059 A 
ATOM      5  C   UNL d   1     -41.828-121.992 -49.923  0.00  0.00     0.026 A 
ATOM      6  C   UNL d   1     -42.269-122.580 -49.550  0.00  0.00     0.013 A 
ATOM      7 CL   UNL d   1     -42.973-123.817 -49.607  0.00  0.00    -0.082 Cl
ATOM      8  C   UNL d   1     -42.446-122.517 -48.746  0.00  0.00     0.001 C 
ENDROOT
BRANCH   1   9
ATOM      9  S   UNL d   1     -41.738-122.769 -51.960  0.00  0.00     0.287 S 
ATOM     10  O   UNL d   1     -42.353-122.247 -52.136  0.00  0.00    -0.198 OA
ATOM     11  O   UNL d   1     -41.124-123.290 -51.784  0.00  0.00    -0.198 OA
BRANCH   9  12
ATOM     12  N   UNL d   1     -41.562-122.832 -52.763  0.00  0.00    -0.155 NA
BRANCH  12  13
ATOM     13  C   UNL d   1     -42.151-122.712 -53.326  0.00  0.00     0.137 C 
BRANCH  13  14
ATOM     14  C   UNL d   1     -41.951-122.619 -54.121  0.00  0.00     0.120 A 
ATOM     15  O   UNL d   1     -41.419-123.084 -54.538  0.00  0.00    -0.304 OA
ATOM     16  C   UNL d   1     -41.387-122.799 -55.310  0.00  0.00     0.123 A 
ATOM     17  C   UNL d   1     -41.901-122.156 -55.369  0.00  0.00     0.029 A 
ATOM     18  C   UNL d   1     -42.248-122.050 -54.627  0.00  0.00     0.028 A 
ENDBRANCH  13  14
ENDBRANCH  12  13
ENDBRANCH   9  12
ENDBRANCH   1   9
BRANCH   3  19
ATOM     19  O   UNL d   1     -41.209-121.464 -51.098  0.00  0.00    -0.304 OA
BRANCH  19  20
ATOM     20  C   UNL d   1     -41.153-120.716 -50.760  0.00  0.00     0.123 C 
ATOM     21  C   UNL d   1     -41.123-120.040 -51.242  0.00  0.00     0.029 C 
ENDBRANCH  19  20
ENDBRANCH   3  19
TORSDOF 6
ENDMDL
