MODEL 1
REMARK VINA RESULT:      74.3      0.000      0.000
REMARK  4 active torsions:
REMARK  status: ('A' for Active; 'I' for Inactive)
REMARK    1  A    between atoms: C_8  and  C_1 
REMARK    2  A    between atoms: C_12  and  C_3 
REMARK    3  A    between atoms: N_10  and  C_8 
REMARK    4  A    between atoms: C_25  and  C_13 
ROOT
ATOM      1  C   UNL d   1      13.547  13.111  -2.618  0.00  0.00     0.079 A 
ATOM      2  C   UNL d   1      13.605  13.851  -3.837  0.00  0.00     0.062 A 
ATOM      3  C   UNL d   1      14.113  15.182  -3.837  0.00  0.00     0.064 A 
ATOM      4  C   UNL d   1      13.736  13.801  -3.024  0.00  0.00     0.108 A 
ATOM      5  C   UNL d   1      13.794  14.542  -4.244  0.00  0.00     0.199 A 
ATOM      6  O   UNL d   1      14.055  14.442  -2.618  0.00  0.00    -0.305 OA
ATOM      7  C   UNL d   1      14.244  15.132  -3.024  0.00  0.00     0.126 A 
ATOM      8  C   UNL d   1      13.226  12.466  -3.024  0.00  0.00     0.199 A 
ATOM      9  C   UNL d   1      13.286  13.211  -4.244  0.00  0.00     0.008 A 
ATOM     10  C   UNL d   1      13.096  12.516  -3.837  0.00  0.00     0.039 A 
ATOM     11  O   UNL d   1      13.663  14.592  -5.057  0.00  0.00    -0.286 OA
ATOM     12  O   UNL d   1      13.038  11.780  -2.626  0.00  0.00    -0.286 OA
ENDROOT
BRANCH   3  13
ATOM     13  C   UNL d   1      14.302  15.873  -4.244  0.00  0.00     0.007 A 
ATOM     14  C   UNL d   1      13.857  16.103  -4.912  0.00  0.00     0.027 A 
ATOM     15  C   UNL d   1      14.046  16.793  -5.318  0.00  0.00     0.123 A 
ATOM     16  O   UNL d   1      13.603  17.015  -5.977  0.00  0.00    -0.301 OA
ATOM     17  C   UNL d   1      14.678  17.260  -5.064  0.00  0.00     0.123 A 
ATOM     18  C   UNL d   1      13.791  17.711  -6.389  0.00  0.00     0.149 A 
ATOM     19  C   UNL d   1      14.429  18.179  -6.129  0.00  0.00     0.149 A 
ATOM     20  O   UNL d   1      14.866  17.950  -5.471  0.00  0.00    -0.301 OA
ATOM     21  C   UNL d   1      15.121  17.032  -4.400  0.00  0.00     0.027 A 
ATOM     22  C   UNL d   1      14.933  16.342  -3.993  0.00  0.00     0.002 A 
ENDBRANCH   3  13
BRANCH   1  23
ATOM     23  C   UNL d   1      13.678  13.061  -1.805  0.00  0.00     0.085 C 
BRANCH  23  24
ATOM     24  N   UNL d   1      14.355  12.689  -1.518  0.00  0.00    -0.304 N 
ATOM     25  C   UNL d   1      14.625  12.846  -0.754  0.00  0.00     0.064 A 
ATOM     26  C   UNL d   1      14.216  13.377  -0.278  0.00  0.00     0.019 C 
ATOM     27  C   UNL d   1      15.297  12.472  -0.475  0.00  0.00     0.018 A 
ATOM     28  C   UNL d   1      15.711  11.934  -0.958  0.00  0.00     0.003 A 
ATOM     29  C   UNL d   1      15.440  11.781  -1.716  0.00  0.00     0.019 A 
ATOM     30  C   UNL d   1      14.764  12.153  -2.003  0.00  0.00     0.080 A 
ENDBRANCH  23  24
ENDBRANCH   1  23
BRANCH  10  31
ATOM     31  C   UNL d   1      12.773  11.867  -4.244  0.00  0.00     0.003 C 
ATOM     32  C   UNL d   1      12.901  11.787  -5.055  0.00  0.00     0.000 C 
ENDBRANCH  10  31
TORSDOF 4
ENDMDL
