MODEL 1
REMARK VINA RESULT:      91.2      0.000      0.000
REMARK  8 active torsions:
REMARK  status: ('A' for Active; 'I' for Inactive)
REMARK    1  A    between atoms: C_6  and  N_1 
REMARK    2  A    between atoms: C_7  and  C_2 
REMARK    3  A    between atoms: C_3  and  C_9 
REMARK    4  A    between atoms: O_5  and  C_3 
REMARK    5  A    between atoms: C_4  and  O_5 
REMARK    6  A    between atoms: C_8  and  C_7 
REMARK    7  A    between atoms: C_12  and  C_8 
REMARK    8  A    between atoms: C_10  and  C_12 
ROOT
ATOM      1  C   UNL d   1     -57.166 -98.974 -44.832  0.00  0.00     0.064 A 
ATOM      2  C   UNL d   1     -57.068 -98.883 -44.017  0.00  0.00     0.106 A 
ATOM      3  C   UNL d   1     -56.499 -99.094 -45.318  0.00  0.00     0.035 A 
ATOM      4  C   UNL d   1     -56.304 -98.910 -43.685  0.00  0.00     0.027 A 
ATOM      5  C   UNL d   1     -55.744 -99.121 -44.985  0.00  0.00     0.140 A 
ATOM      6  C   UNL d   1     -55.647 -99.029 -44.170  0.00  0.00     0.032 A 
ATOM      7  F   UNL d   1     -55.087 -99.240 -45.470  0.00  0.00    -0.204 F 
ENDROOT
BRANCH   2   8
ATOM      8  O   UNL d   1     -57.725 -98.763 -43.528  0.00  0.00    -0.273 OA
BRANCH   8   9
ATOM      9  C   UNL d   1     -57.779 -99.166 -42.808  0.00  0.00     0.300 C 
ATOM     10  O   UNL d   1     -57.114 -99.522 -42.479  0.00  0.00    -0.259 OA
BRANCH   9  11
ATOM     11  C   UNL d   1     -58.506 -99.208 -42.420  0.00  0.00     0.065 A 
ATOM     12  C   UNL d   1     -58.531 -99.202 -41.598  0.00  0.00     0.029 A 
ATOM     13  C   UNL d   1     -59.250 -99.243 -41.206  0.00  0.00     0.127 A 
ATOM     14  C   UNL d   1     -59.959 -99.292 -41.669  0.00  0.00     0.024 A 
ATOM     15  C   UNL d   1     -59.930 -99.297 -42.462  0.00  0.00     0.002 A 
ATOM     16  C   UNL d   1     -59.203 -99.255 -42.858  0.00  0.00     0.005 A 
BRANCH  13  17
ATOM     17  N   UNL d   1     -59.292 -99.239 -40.372  0.00  0.00    -0.114 N 
ATOM     18  O   UNL d   1     -59.887 -98.823 -39.992  0.00  0.00    -0.532 OA
ATOM     19  O   UNL d   1     -58.728 -99.656 -39.937  0.00  0.00    -0.532 OA
ENDBRANCH  13  17
ENDBRANCH   9  11
ENDBRANCH   8   9
ENDBRANCH   2   8
BRANCH   1  20
ATOM     20  C   UNL d   1     -57.925 -98.947 -45.164  0.00  0.00     0.198 C 
ATOM     21  O   UNL d   1     -58.589 -98.931 -44.674  0.00  0.00    -0.286 OA
BRANCH  20  22
ATOM     22  C   UNL d   1     -58.015 -98.935 -45.984  0.00  0.00     0.043 C 
BRANCH  22  23
ATOM     23  C   UNL d   1     -58.771 -98.902 -46.313  0.00  0.00     0.010 C 
BRANCH  23  24
ATOM     24  C   UNL d   1     -58.865 -98.949 -47.132  0.00  0.00     0.030 A 
ATOM     25  S   UNL d   1     -59.542 -99.196 -47.538  0.00  0.00    -0.086 SA
ATOM     26  C   UNL d   1     -59.393 -99.156 -48.348  0.00  0.00     0.035 A 
ATOM     27  C   UNL d   1     -58.620 -98.884 -48.452  0.00  0.00     0.007 A 
ATOM     28  C   UNL d   1     -58.293 -98.755 -47.702  0.00  0.00     0.007 A 
ENDBRANCH  23  24
ENDBRANCH  22  23
ENDBRANCH  20  22
ENDBRANCH   1  20
TORSDOF 8
ENDMDL
