MODEL 1
REMARK VINA RESULT:      62.0      0.000      0.000
REMARK  9 active torsions:
REMARK  status: ('A' for Active; 'I' for Inactive)
REMARK    1  A    between atoms: N_8  and  C_1 
REMARK    2  A    between atoms: S_2  and  C_13 
REMARK    3  A    between atoms: N_7  and  S_2 
REMARK    4  A    between atoms: C_12  and  C_3 
REMARK       I    between atoms: C_10  and  N_8 
REMARK       I    between atoms: C_11  and  N_9 
REMARK    5  A    between atoms: C_21  and  C_10 
REMARK    6  A    between atoms: O_33  and  C_11 
REMARK    7  A    between atoms: C_34  and  N_14 
REMARK    8  A    between atoms: C_35  and  O_33 
REMARK    9  A    between atoms: C_36  and  C_34 
ROOT
ATOM      1  C   UNL d   1      57.402  -5.289  34.996  0.00  0.00     0.104 A 
ATOM      2  C   UNL d   1      56.557  -3.897  34.733  0.00  0.00     0.056 A 
ATOM      3  C   UNL d   1      57.772  -4.550  35.076  0.00  0.00     0.013 A 
ATOM      4  C   UNL d   1      56.601  -5.327  34.781  0.00  0.00     0.013 A 
ATOM      5  C   UNL d   1      57.354  -3.856  34.946  0.00  0.00     0.005 A 
ATOM      6  C   UNL d   1      56.180  -4.624  34.650  0.00  0.00     0.005 A 
ENDROOT
BRANCH   2   7
ATOM      7  C   UNL d   1      56.130  -3.200  34.600  0.00  0.00     0.258 C 
ATOM      8  N   UNL d   1      56.317  -2.717  33.948  0.00  0.00    -0.316 N 
ATOM      9  H   UNL d   1      56.752  -3.182  33.862  0.00  0.00     0.169 HD
ATOM     10  O   UNL d   1      55.518  -2.978  35.110  0.00  0.00    -0.267 OA
BRANCH   8  11
ATOM     11  C   UNL d   1      55.891  -2.020  33.815  0.00  0.00     0.094 A 
ATOM     12  C   UNL d   1      56.062  -1.447  33.249  0.00  0.00     0.082 A 
ATOM     13  C   UNL d   1      55.502  -0.843  33.300  0.00  0.00     0.016 A 
ATOM     14  C   UNL d   1      55.402  -0.140  32.878  0.00  0.00     0.020 A 
ATOM     15  C   UNL d   1      54.973  -1.035  33.902  0.00  0.00     0.049 A 
ATOM     16  C   UNL d   1      54.776   0.363  33.059  0.00  0.00     0.080 A 
ATOM     17  N   UNL d   1      54.246   0.176  33.658  0.00  0.00    -0.302 N 
ATOM     18  C   UNL d   1      54.342  -0.526  34.084  0.00  0.00     0.087 A 
ATOM     19  S   UNL d   1      55.205  -1.763  34.227  0.00  0.00    -0.068 SA
BRANCH  12  20
ATOM     20  C   UNL d   1      56.687  -1.464  32.716  0.00  0.00     0.299 C 
ATOM     21  O   UNL d   1      56.652  -1.944  32.061  0.00  0.00    -0.264 OA
ATOM     22  N   UNL d   1      57.345  -0.994  32.849  0.00  0.00    -0.102 N 
ENDBRANCH  12  20
BRANCH  17  23
ATOM     23  C   UNL d   1      53.623   0.682  33.836  0.00  0.00     0.080 C 
BRANCH  23  24
ATOM     24  C   UNL d   1      52.902   0.382  34.106  0.00  0.00     0.019 C 
ATOM     25  C   UNL d   1      52.567   0.682  34.792  0.00  0.00     0.002 C 
ENDBRANCH  23  24
ENDBRANCH  17  23
ENDBRANCH   8  11
ENDBRANCH   2   7
BRANCH   1  26
ATOM     26  S   UNL d   1      57.826  -5.989  35.127  0.00  0.00     0.271 S 
ATOM     27  O   UNL d   1      57.291  -6.367  34.615  0.00  0.00    -0.200 OA
ATOM     28  O   UNL d   1      58.356  -5.612  35.634  0.00  0.00    -0.200 OA
BRANCH  26  29
ATOM     29  N   UNL d   1      58.246  -6.686  35.257  0.00  0.00    -0.226 N 
ATOM     30  C   UNL d   1      58.641  -6.811  35.965  0.00  0.00     0.111 A 
ATOM     31  C   UNL d   1      59.059  -7.516  36.081  0.00  0.00     0.105 A 
ATOM     32  N   UNL d   1      59.080  -8.094  35.489  0.00  0.00    -0.248 N 
ATOM     33  C   UNL d   1      58.683  -7.965  34.782  0.00  0.00     0.105 A 
ATOM     34  C   UNL d   1      59.494  -8.790  35.608  0.00  0.00     0.378 C 
ATOM     35  C   UNL d   1      58.270  -7.264  34.670  0.00  0.00     0.111 A 
ATOM     36  O   UNL d   1      59.889  -8.914  36.317  0.00  0.00    -0.237 OA
BRANCH  34  37
ATOM     37  O   UNL d   1      59.512  -9.356  35.020  0.00  0.00    -0.257 OA
BRANCH  37  38
ATOM     38  C   UNL d   1      59.930  -9.218  34.332  0.00  0.00     0.128 C 
ATOM     39  C   UNL d   1      60.400  -9.817  34.002  0.00  0.00     0.029 C 
ENDBRANCH  37  38
ENDBRANCH  34  37
ENDBRANCH  26  29
ENDBRANCH   1  26
TORSDOF 9
ENDMDL
