MODEL 1
REMARK VINA RESULT:       6.7      0.000      0.000
REMARK  7 active torsions:
REMARK  status: ('A' for Active; 'I' for Inactive)
REMARK    1  A    between atoms: N_4  and  S_1 
REMARK    2  A    between atoms: C_2  and  N_4 
REMARK    3  A    between atoms: C_3  and  C_2 
REMARK    4  A    between atoms: N_5  and  C_3 
REMARK    5  A    between atoms: C_7  and  C_3 
REMARK    6  A    between atoms: C_9  and  N_6 
REMARK    7  A    between atoms: O_26  and  C_22 
ROOT
ATOM      1  N   UNL d   1     -42.446-122.871 -50.152  0.00  0.00    -0.300 N 
ATOM      2  N   UNL d   1     -42.008-122.569 -51.730  0.00  0.00    -0.301 N 
ATOM      3  C   UNL d   1     -42.406-123.491 -50.707  0.00  0.00     0.100 A 
ATOM      4  C   UNL d   1     -42.265-122.111 -50.400  0.00  0.00     0.100 A 
ATOM      5  C   UNL d   1     -42.190-123.345 -51.489  0.00  0.00     0.100 A 
ATOM      6  C   UNL d   1     -42.048-121.953 -51.177  0.00  0.00     0.100 A 
ENDROOT
BRANCH   1   7
ATOM      7  C   UNL d   1     -42.662-123.020 -49.375  0.00  0.00     0.089 C 
BRANCH   7   8
ATOM      8  C   UNL d   1     -43.456-123.071 -49.167  0.00  0.00     0.110 C 
ATOM      9  C   UNL d   1     -43.811-122.461 -48.739  0.00  0.00     0.023 C 
BRANCH   8  10
ATOM     10  N   UNL d   1     -43.895-123.727 -49.385  0.00  0.00    -0.161 NA
BRANCH  10  11
ATOM     11  S   UNL d   1     -44.696-123.777 -49.205  0.00  0.00     0.266 S 
ATOM     12  O   UNL d   1     -44.824-123.740 -50.025  0.00  0.00    -0.203 OA
ATOM     13  O   UNL d   1     -45.466-123.800 -49.506  0.00  0.00    -0.203 OA
ATOM     14  C   UNL d   1     -44.638-123.817 -48.387  0.00  0.00     0.165 C 
ENDBRANCH  10  11
ENDBRANCH   8  10
ENDBRANCH   7   8
BRANCH   7  15
ATOM     15  C   UNL d   1     -42.081-123.119 -48.799  0.00  0.00     0.047 A 
ATOM     16  S   UNL d   1     -41.639-123.806 -48.664  0.00  0.00    -0.085 SA
ATOM     17  C   UNL d   1     -41.125-123.654 -48.035  0.00  0.00     0.035 A 
ATOM     18  C   UNL d   1     -41.240-122.887 -47.778  0.00  0.00     0.007 A 
ATOM     19  C   UNL d   1     -41.835-122.550 -48.251  0.00  0.00     0.009 A 
ENDBRANCH   7  15
ENDBRANCH   1   7
BRANCH   2  20
ATOM     20  C   UNL d   1     -41.791-122.423 -52.515  0.00  0.00     0.064 A 
ATOM     21  C   UNL d   1     -41.753-121.653 -52.792  0.00  0.00     0.020 A 
ATOM     22  C   UNL d   1     -41.535-121.510 -53.578  0.00  0.00     0.026 A 
ATOM     23  C   UNL d   1     -41.358-122.145 -54.081  0.00  0.00     0.094 A 
ATOM     24  C   UNL d   1     -41.402-122.918 -53.784  0.00  0.00     0.026 A 
ATOM     25  C   UNL d   1     -41.620-123.062 -52.997  0.00  0.00     0.020 A 
BRANCH  23  26
ATOM     26  O   UNL d   1     -41.139-122.009 -54.871  0.00  0.00    -0.328 OA
ATOM     27  C   UNL d   1     -41.213-122.625 -55.412  0.00  0.00     0.181 C 
ENDBRANCH  23  26
ENDBRANCH   2  20
TORSDOF 7
ENDMDL
MODEL 2
REMARK VINA RESULT:       7.4      2.009      5.163
REMARK  7 active torsions:
REMARK  status: ('A' for Active; 'I' for Inactive)
REMARK    1  A    between atoms: N_4  and  S_1 
REMARK    2  A    between atoms: C_2  and  N_4 
REMARK    3  A    between atoms: C_3  and  C_2 
REMARK    4  A    between atoms: N_5  and  C_3 
REMARK    5  A    between atoms: C_7  and  C_3 
REMARK    6  A    between atoms: C_9  and  N_6 
REMARK    7  A    between atoms: O_26  and  C_22 
ROOT
ATOM      1  N   UNL d   1     -41.812-122.417 -52.056  0.00  0.00    -0.300 N 
ATOM      2  N   UNL d   1     -41.945-122.840 -50.450  0.00  0.00    -0.301 N 
ATOM      3  C   UNL d   1     -42.498-122.228 -51.622  0.00  0.00     0.100 A 
ATOM      4  C   UNL d   1     -41.205-122.815 -51.673  0.00  0.00     0.100 A 
ATOM      5  C   UNL d   1     -42.567-122.436 -50.828  0.00  0.00     0.100 A 
ATOM      6  C   UNL d   1     -41.263-123.027 -50.881  0.00  0.00     0.100 A 
ENDROOT
BRANCH   1   7
ATOM      7  C   UNL d   1     -41.746-122.209 -52.846  0.00  0.00     0.089 C 
BRANCH   7   8
ATOM      8  C   UNL d   1     -41.685-121.417 -53.063  0.00  0.00     0.110 C 
ATOM      9  C   UNL d   1     -41.136-120.929 -52.689  0.00  0.00     0.023 C 
BRANCH   8  10
ATOM     10  N   UNL d   1     -42.169-121.116 -53.650  0.00  0.00    -0.161 NA
BRANCH  10  11
ATOM     11  S   UNL d   1     -42.068-120.347 -53.926  0.00  0.00     0.266 S 
ATOM     12  O   UNL d   1     -42.417-120.615 -54.630  0.00  0.00    -0.203 OA
ATOM     13  O   UNL d   1     -42.175-119.827 -54.559  0.00  0.00    -0.203 OA
ATOM     14  C   UNL d   1     -41.718-120.020 -53.259  0.00  0.00     0.165 C 
ENDBRANCH  10  11
ENDBRANCH   8  10
ENDBRANCH   7   8
BRANCH   7  15
ATOM     15  C   UNL d   1     -41.741-122.794 -53.426  0.00  0.00     0.047 A 
ATOM     16  S   UNL d   1     -42.354-123.327 -53.588  0.00  0.00    -0.085 SA
ATOM     17  C   UNL d   1     -42.107-123.810 -54.212  0.00  0.00     0.035 A 
ATOM     18  C   UNL d   1     -41.355-123.587 -54.439  0.00  0.00     0.007 A 
ATOM     19  C   UNL d   1     -41.123-122.954 -53.952  0.00  0.00     0.009 A 
ENDBRANCH   7  15
ENDBRANCH   1   7
BRANCH   2  20
ATOM     20  C   UNL d   1     -42.015-123.048 -49.653  0.00  0.00     0.064 A 
ATOM     21  C   UNL d   1     -41.386-123.403 -49.266  0.00  0.00     0.020 A 
ATOM     22  C   UNL d   1     -41.459-123.611 -48.468  0.00  0.00     0.026 A 
ATOM     23  C   UNL d   1     -42.167-123.458 -48.063  0.00  0.00     0.094 A 
ATOM     24  C   UNL d   1     -42.794-123.098 -48.470  0.00  0.00     0.026 A 
ATOM     25  C   UNL d   1     -42.721-122.890 -49.269  0.00  0.00     0.020 A 
BRANCH  23  26
ATOM     26  O   UNL d   1     -42.248-123.663 -47.262  0.00  0.00    -0.328 OA
ATOM     27  C   UNL d   1     -41.669-123.416 -46.732  0.00  0.00     0.181 C 
ENDBRANCH  23  26
ENDBRANCH   2  20
TORSDOF 7
ENDMDL
