MODEL 1
REMARK VINA RESULT:     121.8      0.000      0.000
REMARK  4 active torsions:
REMARK  status: ('A' for Active; 'I' for Inactive)
REMARK    1  A    between atoms: N_11  and  C_4 
REMARK    2  A    between atoms: C_22  and  N_15 
REMARK    3  A    between atoms: O_29  and  C_17 
REMARK    4  A    between atoms: C_21  and  C_22 
ROOT
ATOM      1  N   UNL d   1     -55.389-101.106 -42.905  0.00  0.00    -0.195 N 
ATOM      2  C   UNL d   1     -55.455-100.504 -43.436  0.00  0.00     0.168 A 
ATOM      3  C   UNL d   1     -55.739-100.637 -44.166  0.00  0.00     0.073 A 
ATOM      4  C   UNL d   1     -55.103-100.955 -42.180  0.00  0.00     0.153 A 
ATOM      5  N   UNL d   1     -55.892-101.978 -43.830  0.00  0.00    -0.143 NA
ATOM      6  C   UNL d   1     -55.957-101.376 -44.362  0.00  0.00     0.185 A 
ATOM      7  N   UNL d   1     -55.232 -99.767 -43.229  0.00  0.00    -0.227 NA
ATOM      8  C   UNL d   1     -55.803-100.041 -44.691  0.00  0.00     0.007 A 
ATOM      9  N   UNL d   1     -56.247-101.526 -45.097  0.00  0.00    -0.225 NA
ATOM     10  C   UNL d   1     -54.882-100.227 -41.971  0.00  0.00     0.057 A 
ATOM     11  C   UNL d   1     -56.088-100.175 -45.422  0.00  0.00     0.019 A 
ATOM     12  C   UNL d   1     -54.948 -99.625 -42.503  0.00  0.00     0.086 A 
ATOM     13  C   UNL d   1     -56.312-100.924 -45.628  0.00  0.00     0.083 A 
ATOM     14  C   UNL d   1     -55.580 -99.302 -44.483  0.00  0.00     0.000 C 
ATOM     15  C   UNL d   1     -54.715 -98.859 -42.283  0.00  0.00     0.021 C 
ATOM     16  C   UNL d   1     -56.596-101.063 -46.353  0.00  0.00     0.021 C 
ENDROOT
BRANCH   4  17
ATOM     17  N   UNL d   1     -55.039-101.582 -41.638  0.00  0.00    -0.286 N 
ATOM     18  C   UNL d   1     -54.795-102.376 -41.597  0.00  0.00     0.101 A 
ATOM     19  C   UNL d   1     -54.840-102.795 -40.888  0.00  0.00     0.100 A 
ATOM     20  N   UNL d   1     -55.134-102.412 -40.210  0.00  0.00    -0.300 N 
ATOM     21  C   UNL d   1     -55.376-101.632 -40.241  0.00  0.00     0.100 A 
ATOM     22  C   UNL d   1     -55.332-101.207 -40.955  0.00  0.00     0.101 A 
BRANCH  20  23
ATOM     23  C   UNL d   1     -55.179-102.824 -39.506  0.00  0.00     0.080 C 
BRANCH  23  24
ATOM     24  C   UNL d   1     -55.216-102.420 -38.773  0.00  0.00     0.020 A 
ATOM     25  C   UNL d   1     -55.736-102.661 -38.180  0.00  0.00     0.033 A 
ATOM     26  C   UNL d   1     -55.771-102.257 -37.450  0.00  0.00     0.162 A 
ATOM     27  F   UNL d   1     -56.294-102.501 -36.858  0.00  0.00    -0.202 F 
ATOM     28  C   UNL d   1     -55.271-101.601 -37.325  0.00  0.00     0.121 A 
ATOM     29  C   UNL d   1     -54.744-101.351 -37.915  0.00  0.00     0.027 A 
ATOM     30  C   UNL d   1     -54.711-101.755 -38.640  0.00  0.00     0.004 A 
BRANCH  28  31
ATOM     31  O   UNL d   1     -55.303-101.198 -36.602  0.00  0.00    -0.326 OA
ATOM     32  C   UNL d   1     -55.169-100.385 -36.569  0.00  0.00     0.181 C 
ENDBRANCH  28  31
ENDBRANCH  23  24
ENDBRANCH  20  23
ENDBRANCH   4  17
TORSDOF 4
ENDMDL
