MODEL 1
REMARK VINA RESULT:      -0.9      0.000      0.000
REMARK  3 active torsions:
REMARK  status: ('A' for Active; 'I' for Inactive)
REMARK    1  A    between atoms: S_3  and  N_1 
REMARK    2  A    between atoms: C_5  and  C_4 
REMARK    3  A    between atoms: C_12  and  C_6 
ROOT
ATOM      1  N   UNL d   1      31.595  16.622 -23.712  0.00  0.00    -0.155 N 
ATOM      2  N   UNL d   1      30.986  16.089 -23.807  0.00  0.00    -0.153 NA
ATOM      3  C   UNL d   1      31.291  17.375 -23.750  0.00  0.00     0.098 A 
ATOM      4  C   UNL d   1      30.290  16.521 -23.906  0.00  0.00     0.126 A 
ATOM      5  C   UNL d   1      30.478  17.316 -23.871  0.00  0.00     0.043 A 
ENDROOT
BRANCH   3   6
ATOM      6  C   UNL d   1      31.718  18.078 -23.680  0.00  0.00     0.047 A 
ATOM      7  C   UNL d   1      31.886  18.526 -24.351  0.00  0.00     0.140 A 
ATOM      8  N   UNL d   1      32.313  19.230 -24.281  0.00  0.00    -0.234 NA
ATOM      9 CL   UNL d   1      31.629  18.272 -25.093  0.00  0.00    -0.061 Cl
ATOM     10  C   UNL d   1      32.570  19.483 -23.540  0.00  0.00     0.082 A 
ATOM     11  C   UNL d   1      32.401  19.035 -22.869  0.00  0.00     0.018 A 
ATOM     12  C   UNL d   1      32.996  20.186 -23.470  0.00  0.00     0.018 A 
ATOM     13  C   UNL d   1      31.975  18.333 -22.938  0.00  0.00     0.005 A 
ATOM     14  C   UNL d   1      32.658  19.289 -22.127  0.00  0.00     0.002 A 
ATOM     15  C   UNL d   1      33.072  19.975 -22.073  0.00  0.00     0.000 A 
ATOM     16  C   UNL d   1      33.241  20.423 -22.744  0.00  0.00     0.002 A 
ATOM     17  C   UNL d   1      33.165  20.635 -24.142  0.00  0.00     0.002 C 
ENDBRANCH   3   6
BRANCH   1  18
ATOM     18  S   UNL d   1      32.153  16.033 -23.635  0.00  0.00     0.266 S 
ATOM     19  O   UNL d   1      32.484  15.667 -24.294  0.00  0.00    -0.203 OA
ATOM     20  O   UNL d   1      32.260  15.939 -22.823  0.00  0.00    -0.203 OA
ATOM     21  C   UNL d   1      32.688  15.472 -23.351  0.00  0.00     0.165 C 
ENDBRANCH   1  18
BRANCH   4  22
ATOM     22  C   UNL d   1      29.549  16.214 -24.019  0.00  0.00     0.119 A 
ATOM     23  O   UNL d   1      29.291  15.742 -24.625  0.00  0.00    -0.304 OA
ATOM     24  C   UNL d   1      28.500  15.562 -24.517  0.00  0.00     0.123 A 
ATOM     25  C   UNL d   1      28.248  15.924 -23.831  0.00  0.00     0.029 A 
ATOM     26  C   UNL d   1      28.891  16.336 -23.508  0.00  0.00     0.028 A 
ENDBRANCH   4  22
TORSDOF 3
ENDMDL
MODEL 2
REMARK VINA RESULT:      -0.8      1.158      4.164
REMARK  3 active torsions:
REMARK  status: ('A' for Active; 'I' for Inactive)
REMARK    1  A    between atoms: S_3  and  N_1 
REMARK    2  A    between atoms: C_5  and  C_4 
REMARK    3  A    between atoms: C_12  and  C_6 
ROOT
ATOM      1  N   UNL d   1      31.936  17.190 -23.976  0.00  0.00    -0.155 N 
ATOM      2  N   UNL d   1      32.542  17.717 -23.833  0.00  0.00    -0.153 NA
ATOM      3  C   UNL d   1      31.228  17.567 -23.854  0.00  0.00     0.098 A 
ATOM      4  C   UNL d   1      32.200  18.437 -23.617  0.00  0.00     0.126 A 
ATOM      5  C   UNL d   1      31.387  18.344 -23.630  0.00  0.00     0.043 A 
ENDROOT
BRANCH   3   6
ATOM      6  C   UNL d   1      30.476  17.235 -23.937  0.00  0.00     0.047 A 
ATOM      7  C   UNL d   1      29.988  17.471 -24.558  0.00  0.00     0.140 A 
ATOM      8  N   UNL d   1      29.237  17.139 -24.642  0.00  0.00    -0.234 NA
ATOM      9 CL   UNL d   1      30.250  18.040 -25.097  0.00  0.00    -0.061 Cl
ATOM     10  C   UNL d   1      28.975  16.571 -24.104  0.00  0.00     0.082 A 
ATOM     11  C   UNL d   1      29.463  16.336 -23.483  0.00  0.00     0.018 A 
ATOM     12  C   UNL d   1      28.225  16.240 -24.188  0.00  0.00     0.018 A 
ATOM     13  C   UNL d   1      30.214  16.667 -23.399  0.00  0.00     0.005 A 
ATOM     14  C   UNL d   1      29.202  15.768 -22.945  0.00  0.00     0.002 A 
ATOM     15  C   UNL d   1      28.470  15.453 -23.037  0.00  0.00     0.000 A 
ATOM     16  C   UNL d   1      27.982  15.688 -23.658  0.00  0.00     0.002 A 
ATOM     17  C   UNL d   1      27.736  16.476 -24.809  0.00  0.00     0.002 C 
ENDBRANCH   3   6
BRANCH   1  18
ATOM     18  S   UNL d   1      32.452  16.586 -24.162  0.00  0.00     0.266 S 
ATOM     19  O   UNL d   1      32.670  16.433 -24.941  0.00  0.00    -0.203 OA
ATOM     20  O   UNL d   1      32.649  16.239 -23.440  0.00  0.00    -0.203 OA
ATOM     21  C   UNL d   1      32.972  15.946 -24.140  0.00  0.00     0.165 C 
ENDBRANCH   1  18
BRANCH   4  22
ATOM     22  C   UNL d   1      32.596  19.116 -23.426  0.00  0.00     0.119 A 
ATOM     23  O   UNL d   1      32.870  19.692 -23.926  0.00  0.00    -0.304 OA
ATOM     24  C   UNL d   1      33.239  20.281 -23.494  0.00  0.00     0.123 A 
ATOM     25  C   UNL d   1      33.201  20.078 -22.705  0.00  0.00     0.029 A 
ATOM     26  C   UNL d   1      32.802  19.353 -22.645  0.00  0.00     0.028 A 
ENDBRANCH   4  22
TORSDOF 3
ENDMDL
MODEL 3
REMARK VINA RESULT:      -0.2      4.195      6.385
REMARK  3 active torsions:
REMARK  status: ('A' for Active; 'I' for Inactive)
REMARK    1  A    between atoms: S_3  and  N_1 
REMARK    2  A    between atoms: C_5  and  C_4 
REMARK    3  A    between atoms: C_12  and  C_6 
ROOT
ATOM      1  N   UNL d   1      32.709  22.463 -21.299  0.00  0.00    -0.155 N 
ATOM      2  N   UNL d   1      32.731  22.948 -20.643  0.00  0.00    -0.153 NA
ATOM      3  C   UNL d   1      32.935  21.715 -21.077  0.00  0.00     0.098 A 
ATOM      4  C   UNL d   1      32.976  22.488 -20.002  0.00  0.00     0.126 A 
ATOM      5  C   UNL d   1      33.101  21.726 -20.270  0.00  0.00     0.043 A 
ENDROOT
BRANCH   3   6
ATOM      6  C   UNL d   1      32.989  21.055 -21.571  0.00  0.00     0.047 A 
ATOM      7  C   UNL d   1      32.970  20.297 -21.248  0.00  0.00     0.140 A 
ATOM      8  N   UNL d   1      33.024  19.637 -21.742  0.00  0.00    -0.234 NA
ATOM      9 CL   UNL d   1      32.897  20.197 -20.432  0.00  0.00    -0.061 Cl
ATOM     10  C   UNL d   1      33.097  19.737 -22.557  0.00  0.00     0.082 A 
ATOM     11  C   UNL d   1      33.116  20.496 -22.879  0.00  0.00     0.018 A 
ATOM     12  C   UNL d   1      33.151  19.078 -23.050  0.00  0.00     0.018 A 
ATOM     13  C   UNL d   1      33.062  21.155 -22.387  0.00  0.00     0.005 A 
ATOM     14  C   UNL d   1      33.188  20.596 -23.695  0.00  0.00     0.002 A 
ATOM     15  C   UNL d   1      33.240  19.947 -24.164  0.00  0.00     0.000 A 
ATOM     16  C   UNL d   1      33.221  19.189 -23.841  0.00  0.00     0.002 A 
ATOM     17  C   UNL d   1      33.132  18.319 -22.727  0.00  0.00     0.002 C 
ENDBRANCH   3   6
BRANCH   1  18
ATOM     18  S   UNL d   1      32.462  23.068 -21.787  0.00  0.00     0.266 S 
ATOM     19  O   UNL d   1      32.997  23.492 -22.248  0.00  0.00    -0.203 OA
ATOM     20  O   UNL d   1      31.645  23.108 -21.686  0.00  0.00    -0.203 OA
ATOM     21  C   UNL d   1      32.023  23.628 -22.204  0.00  0.00     0.165 C 
ENDBRANCH   1  18
BRANCH   4  22
ATOM     22  C   UNL d   1      33.074  22.745 -19.240  0.00  0.00     0.119 A 
ATOM     23  O   UNL d   1      33.151  22.297 -18.569  0.00  0.00    -0.304 OA
ATOM     24  C   UNL d   1      33.239  22.787 -17.920  0.00  0.00     0.123 A 
ATOM     25  C   UNL d   1      33.219  23.560 -18.179  0.00  0.00     0.029 A 
ATOM     26  C   UNL d   1      33.116  23.551 -19.002  0.00  0.00     0.028 A 
ENDBRANCH   4  22
TORSDOF 3
ENDMDL
