MODEL 1
REMARK VINA RESULT:      -1.2      0.000      0.000
REMARK  4 active torsions:
REMARK  status: ('A' for Active; 'I' for Inactive)
REMARK    1  A    between atoms: C_12  and  N_3 
REMARK    2  A    between atoms: C_10  and  C_5 
REMARK       I    between atoms: N_11  and  C_10 
REMARK    3  A    between atoms: C_24  and  C_12 
REMARK    4  A    between atoms: C_25  and  N_14 
ROOT
ATOM      1  C   UNL d   1      33.128  21.068 -22.934  0.00  0.00     0.154 A 
ATOM      2  C   UNL d   1      33.017  20.757 -23.690  0.00  0.00     0.093 A 
ATOM      3  N   UNL d   1      33.141  20.437 -22.399  0.00  0.00    -0.286 N 
ATOM      4  N   UNL d   1      33.202  21.878 -22.837  0.00  0.00    -0.210 NA
ATOM      5  C   UNL d   1      33.038  19.742 -22.820  0.00  0.00     0.122 A 
ATOM      6  C   UNL d   1      32.980  21.259 -24.342  0.00  0.00     0.269 A 
ATOM      7  N   UNL d   1      33.055  22.072 -24.236  0.00  0.00    -0.258 N 
ATOM      8  C   UNL d   1      33.167  22.383 -23.480  0.00  0.00     0.152 A 
ATOM      9  C   UNL d   1      32.960  19.933 -23.624  0.00  0.00     0.030 A 
ATOM     10  C   UNL d   1      33.019  22.575 -24.889  0.00  0.00     0.084 A 
ATOM     11  O   UNL d   1      32.869  20.949 -25.097  0.00  0.00    -0.266 OA
ATOM     12  C   UNL d   1      33.241  23.194 -23.384  0.00  0.00     0.038 A 
ATOM     13  C   UNL d   1      33.094  23.391 -24.785  0.00  0.00     0.019 A 
ATOM     14  C   UNL d   1      33.206  23.702 -24.029  0.00  0.00     0.005 A 
ENDROOT
BRANCH   5  15
ATOM     15  C   UNL d   1      33.016  18.979 -22.503  0.00  0.00     0.281 C 
ATOM     16  N   UNL d   1      32.768  18.347 -22.969  0.00  0.00    -0.268 N 
ATOM     17  C   UNL d   1      32.542  18.475 -23.750  0.00  0.00     0.102 A 
ATOM     18  C   UNL d   1      32.745  17.582 -22.651  0.00  0.00     0.102 A 
ATOM     19  C   UNL d   1      32.293  17.841 -24.218  0.00  0.00     0.100 A 
ATOM     20  N   UNL d   1      32.271  17.076 -23.900  0.00  0.00    -0.300 N 
ATOM     21  C   UNL d   1      32.497  16.949 -23.115  0.00  0.00     0.100 A 
ATOM     22  O   UNL d   1      33.241  18.851 -21.723  0.00  0.00    -0.265 OA
BRANCH  20  23
ATOM     23  C   UNL d   1      32.020  16.433 -24.369  0.00  0.00     0.080 C 
ATOM     24  C   UNL d   1      31.506  15.862 -24.056  0.00  0.00     0.021 C 
ENDBRANCH  20  23
ENDBRANCH   5  15
BRANCH   3  25
ATOM     25  C   UNL d   1      33.240  20.503 -21.581  0.00  0.00     0.082 C 
BRANCH  25  26
ATOM     26  C   UNL d   1      32.764  21.010 -21.147  0.00  0.00     0.018 A 
ATOM     27  C   UNL d   1      31.941  20.956 -21.201  0.00  0.00     0.002 A 
ATOM     28  C   UNL d   1      31.460  21.464 -20.766  0.00  0.00     0.000 A 
ATOM     29  C   UNL d   1      31.798  22.025 -20.276  0.00  0.00     0.000 A 
ATOM     30  C   UNL d   1      32.621  22.081 -20.219  0.00  0.00     0.000 A 
ATOM     31  C   UNL d   1      33.103  21.574 -20.654  0.00  0.00     0.002 A 
ENDBRANCH  25  26
ENDBRANCH   3  25
TORSDOF 4
ENDMDL
MODEL 2
REMARK VINA RESULT:       0.9      0.941      2.878
REMARK  4 active torsions:
REMARK  status: ('A' for Active; 'I' for Inactive)
REMARK    1  A    between atoms: C_12  and  N_3 
REMARK    2  A    between atoms: C_10  and  C_5 
REMARK       I    between atoms: N_11  and  C_10 
REMARK    3  A    between atoms: C_24  and  C_12 
REMARK    4  A    between atoms: C_25  and  N_14 
ROOT
ATOM      1  C   UNL d   1      33.028  21.388 -22.942  0.00  0.00     0.154 A 
ATOM      2  C   UNL d   1      32.848  20.750 -22.450  0.00  0.00     0.093 A 
ATOM      3  N   UNL d   1      33.072  21.106 -23.718  0.00  0.00    -0.286 N 
ATOM      4  N   UNL d   1      33.127  22.134 -22.617  0.00  0.00    -0.210 NA
ATOM      5  C   UNL d   1      32.920  20.301 -23.707  0.00  0.00     0.122 A 
ATOM      6  C   UNL d   1      32.768  20.865 -21.638  0.00  0.00     0.269 A 
ATOM      7  N   UNL d   1      32.869  21.617 -21.319  0.00  0.00    -0.258 N 
ATOM      8  C   UNL d   1      33.050  22.254 -21.811  0.00  0.00     0.152 A 
ATOM      9  C   UNL d   1      32.780  20.073 -22.921  0.00  0.00     0.030 A 
ATOM     10  C   UNL d   1      32.790  21.731 -20.507  0.00  0.00     0.084 A 
ATOM     11  O   UNL d   1      32.588  20.228 -21.147  0.00  0.00    -0.266 OA
ATOM     12  C   UNL d   1      33.149  23.000 -21.485  0.00  0.00     0.038 A 
ATOM     13  C   UNL d   1      32.891  22.485 -20.185  0.00  0.00     0.019 A 
ATOM     14  C   UNL d   1      33.071  23.123 -20.676  0.00  0.00     0.005 A 
ENDROOT
BRANCH   5  15
ATOM     15  C   UNL d   1      32.908  19.798 -24.363  0.00  0.00     0.281 C 
ATOM     16  N   UNL d   1      32.614  19.033 -24.290  0.00  0.00    -0.268 N 
ATOM     17  C   UNL d   1      32.332  18.769 -23.563  0.00  0.00     0.102 A 
ATOM     18  C   UNL d   1      32.601  18.529 -24.948  0.00  0.00     0.102 A 
ATOM     19  C   UNL d   1      32.036  18.000 -23.488  0.00  0.00     0.100 A 
ATOM     20  N   UNL d   1      32.024  17.496 -24.146  0.00  0.00    -0.300 N 
ATOM     21  C   UNL d   1      32.307  17.763 -24.877  0.00  0.00     0.100 A 
ATOM     22  O   UNL d   1      33.189  20.062 -25.089  0.00  0.00    -0.265 OA
BRANCH  20  23
ATOM     23  C   UNL d   1      31.726  16.719 -24.076  0.00  0.00     0.080 C 
ATOM     24  C   UNL d   1      30.914  16.574 -24.157  0.00  0.00     0.021 C 
ENDBRANCH  20  23
ENDBRANCH   5  15
BRANCH   3  25
ATOM     25  C   UNL d   1      33.241  21.563 -24.386  0.00  0.00     0.082 C 
BRANCH  25  26
ATOM     26  C   UNL d   1      32.777  22.213 -24.569  0.00  0.00     0.018 A 
ATOM     27  C   UNL d   1      33.089  22.976 -24.514  0.00  0.00     0.002 A 
ATOM     28  C   UNL d   1      32.626  23.631 -24.698  0.00  0.00     0.000 A 
ATOM     29  C   UNL d   1      31.850  23.528 -24.936  0.00  0.00     0.000 A 
ATOM     30  C   UNL d   1      31.534  22.766 -24.993  0.00  0.00     0.000 A 
ATOM     31  C   UNL d   1      31.997  22.110 -24.809  0.00  0.00     0.002 A 
ENDBRANCH  25  26
ENDBRANCH   3  25
TORSDOF 4
ENDMDL
MODEL 3
REMARK VINA RESULT:       1.4      1.899      5.405
REMARK  4 active torsions:
REMARK  status: ('A' for Active; 'I' for Inactive)
REMARK    1  A    between atoms: C_12  and  N_3 
REMARK    2  A    between atoms: C_10  and  C_5 
REMARK       I    between atoms: N_11  and  C_10 
REMARK    3  A    between atoms: C_24  and  C_12 
REMARK    4  A    between atoms: C_25  and  N_14 
ROOT
ATOM      1  C   UNL d   1      30.816  17.550 -24.414  0.00  0.00     0.154 A 
ATOM      2  C   UNL d   1      30.371  18.137 -24.043  0.00  0.00     0.093 A 
ATOM      3  N   UNL d   1      31.586  17.837 -24.509  0.00  0.00    -0.286 N 
ATOM      4  N   UNL d   1      30.461  16.839 -24.613  0.00  0.00    -0.210 NA
ATOM      5  C   UNL d   1      31.617  18.595 -24.200  0.00  0.00     0.122 A 
ATOM      6  C   UNL d   1      29.575  18.007 -23.875  0.00  0.00     0.269 A 
ATOM      7  N   UNL d   1      29.225  17.290 -24.078  0.00  0.00    -0.258 N 
ATOM      8  C   UNL d   1      29.670  16.703 -24.449  0.00  0.00     0.152 A 
ATOM      9  C   UNL d   1      30.865  18.788 -23.908  0.00  0.00     0.030 A 
ATOM     10  C   UNL d   1      28.429  17.161 -23.910  0.00  0.00     0.084 A 
ATOM     11  O   UNL d   1      29.130  18.594 -23.504  0.00  0.00    -0.266 OA
ATOM     12  C   UNL d   1      29.315  15.992 -24.648  0.00  0.00     0.038 A 
ATOM     13  C   UNL d   1      28.076  16.442 -24.113  0.00  0.00     0.019 A 
ATOM     14  C   UNL d   1      28.521  15.854 -24.484  0.00  0.00     0.005 A 
ENDROOT
BRANCH   5  15
ATOM     15  C   UNL d   1      32.281  19.085 -24.179  0.00  0.00     0.281 C 
ATOM     16  N   UNL d   1      32.427  19.554 -23.518  0.00  0.00    -0.268 N 
ATOM     17  C   UNL d   1      31.911  19.534 -22.878  0.00  0.00     0.102 A 
ATOM     18  C   UNL d   1      33.094  20.047 -23.498  0.00  0.00     0.102 A 
ATOM     19  C   UNL d   1      32.055  20.004 -22.214  0.00  0.00     0.100 A 
ATOM     20  N   UNL d   1      32.722  20.496 -22.193  0.00  0.00    -0.300 N 
ATOM     21  C   UNL d   1      33.241  20.516 -22.838  0.00  0.00     0.100 A 
ATOM     22  O   UNL d   1      32.798  19.106 -24.819  0.00  0.00    -0.265 OA
BRANCH  20  23
ATOM     23  C   UNL d   1      32.873  20.973 -21.525  0.00  0.00     0.080 C 
ATOM     24  C   UNL d   1      32.302  21.049 -20.928  0.00  0.00     0.021 C 
ENDBRANCH  20  23
ENDBRANCH   5  15
BRANCH   3  25
ATOM     25  C   UNL d   1      32.212  17.424 -24.858  0.00  0.00     0.082 C 
BRANCH  25  26
ATOM     26  C   UNL d   1      32.548  16.782 -24.474  0.00  0.00     0.018 A 
ATOM     27  C   UNL d   1      32.713  16.820 -23.666  0.00  0.00     0.002 A 
ATOM     28  C   UNL d   1      33.050  16.176 -23.278  0.00  0.00     0.000 A 
ATOM     29  C   UNL d   1      33.224  15.495 -23.696  0.00  0.00     0.000 A 
ATOM     30  C   UNL d   1      33.060  15.453 -24.505  0.00  0.00     0.000 A 
ATOM     31  C   UNL d   1      32.723  16.097 -24.893  0.00  0.00     0.002 A 
ENDBRANCH  25  26
ENDBRANCH   3  25
TORSDOF 4
ENDMDL
