MODEL 1
REMARK VINA RESULT:      -2.7      0.000      0.000
REMARK  4 active torsions:
REMARK  status: ('A' for Active; 'I' for Inactive)
REMARK    1  A    between atoms: C_2  and  C_1 
REMARK    2  A    between atoms: C_4  and  C_3 
REMARK       I    between atoms: N_6  and  C_4 
REMARK    3  A    between atoms: C_5  and  C_10 
REMARK       I    between atoms: N_9  and  C_5 
REMARK    4  A    between atoms: C_10  and  N_6 
ROOT
ATOM      1  C   UNL d   1      32.556  17.318 -23.644  0.00  0.00     0.076 A 
ATOM      2  C   UNL d   1      32.088  17.121 -24.302  0.00  0.00     0.062 A 
ATOM      3  C   UNL d   1      32.976  16.734 -23.253  0.00  0.00     0.004 A 
ATOM      4  C   UNL d   1      32.051  16.330 -24.555  0.00  0.00     0.005 A 
ATOM      5  C   UNL d   1      32.483  15.741 -24.148  0.00  0.00     0.000 A 
ATOM      6  C   UNL d   1      32.940  15.953 -23.502  0.00  0.00    -0.000 A 
ENDROOT
BRANCH   2   7
ATOM      7  C   UNL d   1      31.662  17.702 -24.703  0.00  0.00     0.279 C 
ATOM      8  N   UNL d   1      30.836  17.679 -24.707  0.00  0.00    -0.201 NA
ATOM      9  O   UNL d   1      32.068  18.304 -25.096  0.00  0.00    -0.265 OA
BRANCH   8  10
ATOM     10  C   UNL d   1      30.434  17.075 -24.312  0.00  0.00     0.166 C 
BRANCH  10  11
ATOM     11  C   UNL d   1      29.612  17.077 -24.286  0.00  0.00     0.318 C 
ATOM     12  O   UNL d   1      29.193  17.650 -24.698  0.00  0.00    -0.262 OA
ATOM     13  N   UNL d   1      29.211  16.502 -23.846  0.00  0.00    -0.083 NA
ATOM     14  N   UNL d   1      28.389  16.504 -23.821  0.00  0.00    -0.019 N 
ENDBRANCH  10  11
ENDBRANCH   8  10
ENDBRANCH   2   7
BRANCH   1  15
ATOM     15  C   UNL d   1      32.593  18.109 -23.392  0.00  0.00     0.419 C 
ATOM     16  F   UNL d   1      32.626  18.830 -23.161  0.00  0.00    -0.166 F 
ATOM     17  F   UNL d   1      32.134  18.496 -22.765  0.00  0.00    -0.166 F 
ATOM     18  F   UNL d   1      33.084  18.744 -23.677  0.00  0.00    -0.166 F 
ENDBRANCH   1  15
TORSDOF 4
ENDMDL
MODEL 2
REMARK VINA RESULT:      -2.6      1.497      1.899
REMARK  4 active torsions:
REMARK  status: ('A' for Active; 'I' for Inactive)
REMARK    1  A    between atoms: C_2  and  C_1 
REMARK    2  A    between atoms: C_4  and  C_3 
REMARK       I    between atoms: N_6  and  C_4 
REMARK    3  A    between atoms: C_5  and  C_10 
REMARK       I    between atoms: N_9  and  C_5 
REMARK    4  A    between atoms: C_10  and  N_6 
ROOT
ATOM      1  C   UNL d   1      32.290  16.904 -23.740  0.00  0.00     0.076 A 
ATOM      2  C   UNL d   1      31.786  16.994 -24.395  0.00  0.00     0.062 A 
ATOM      3  C   UNL d   1      32.650  17.560 -23.409  0.00  0.00     0.004 A 
ATOM      4  C   UNL d   1      31.655  17.754 -24.707  0.00  0.00     0.005 A 
ATOM      5  C   UNL d   1      32.027  18.417 -24.362  0.00  0.00     0.000 A 
ATOM      6  C   UNL d   1      32.520  18.310 -23.717  0.00  0.00    -0.000 A 
ENDROOT
BRANCH   2   7
ATOM      7  C   UNL d   1      31.419  16.339 -24.736  0.00  0.00     0.279 C 
ATOM      8  N   UNL d   1      30.597  16.269 -24.713  0.00  0.00    -0.201 NA
ATOM      9  O   UNL d   1      31.881  15.757 -25.097  0.00  0.00    -0.265 OA
BRANCH   8  10
ATOM     10  C   UNL d   1      30.139  16.854 -24.351  0.00  0.00     0.166 C 
BRANCH  10  11
ATOM     11  C   UNL d   1      29.319  16.780 -24.330  0.00  0.00     0.318 C 
ATOM     12  O   UNL d   1      28.886  16.857 -25.023  0.00  0.00    -0.262 OA
ATOM     13  N   UNL d   1      28.936  16.630 -23.613  0.00  0.00    -0.083 NA
ATOM     14  N   UNL d   1      28.117  16.557 -23.592  0.00  0.00    -0.019 N 
ENDBRANCH  10  11
ENDBRANCH   8  10
ENDBRANCH   2   7
BRANCH   1  15
ATOM     15  C   UNL d   1      32.421  16.145 -23.429  0.00  0.00     0.419 C 
ATOM     16  F   UNL d   1      32.541  15.453 -23.145  0.00  0.00    -0.166 F 
ATOM     17  F   UNL d   1      33.031  15.569 -23.651  0.00  0.00    -0.166 F 
ATOM     18  F   UNL d   1      31.997  15.733 -22.815  0.00  0.00    -0.166 F 
ENDBRANCH   1  15
TORSDOF 4
ENDMDL
MODEL 3
REMARK VINA RESULT:      -2.4      2.431      3.565
REMARK  4 active torsions:
REMARK  status: ('A' for Active; 'I' for Inactive)
REMARK    1  A    between atoms: C_2  and  C_1 
REMARK    2  A    between atoms: C_4  and  C_3 
REMARK       I    between atoms: N_6  and  C_4 
REMARK    3  A    between atoms: C_5  and  C_10 
REMARK       I    between atoms: N_9  and  C_5 
REMARK    4  A    between atoms: C_10  and  N_6 
ROOT
ATOM      1  C   UNL d   1      29.235  16.234 -23.682  0.00  0.00     0.076 A 
ATOM      2  C   UNL d   1      29.984  15.875 -23.657  0.00  0.00     0.062 A 
ATOM      3  C   UNL d   1      28.744  16.199 -23.028  0.00  0.00     0.004 A 
ATOM      4  C   UNL d   1      30.226  15.483 -22.966  0.00  0.00     0.005 A 
ATOM      5  C   UNL d   1      29.718  15.453 -22.303  0.00  0.00     0.000 A 
ATOM      6  C   UNL d   1      28.983  15.812 -22.344  0.00  0.00    -0.000 A 
ENDROOT
BRANCH   2   7
ATOM      7  C   UNL d   1      30.485  15.905 -24.312  0.00  0.00     0.279 C 
ATOM      8  N   UNL d   1      31.221  16.274 -24.250  0.00  0.00    -0.201 NA
ATOM      9  O   UNL d   1      30.243  15.565 -25.025  0.00  0.00    -0.265 OA
BRANCH   8  10
ATOM     10  C   UNL d   1      31.459  16.613 -23.535  0.00  0.00     0.166 C 
BRANCH  10  11
ATOM     11  C   UNL d   1      32.189  16.991 -23.482  0.00  0.00     0.318 C 
ATOM     12  O   UNL d   1      32.873  16.585 -23.684  0.00  0.00    -0.262 OA
ATOM     13  N   UNL d   1      32.229  17.776 -23.225  0.00  0.00    -0.083 NA
ATOM     14  N   UNL d   1      32.957  18.154 -23.172  0.00  0.00    -0.019 N 
ENDBRANCH  10  11
ENDBRANCH   8  10
ENDBRANCH   2   7
BRANCH   1  15
ATOM     15  C   UNL d   1      28.992  16.625 -24.374  0.00  0.00     0.419 C 
ATOM     16  F   UNL d   1      28.771  16.982 -25.005  0.00  0.00    -0.166 F 
ATOM     17  F   UNL d   1      28.629  16.287 -25.086  0.00  0.00    -0.166 F 
ATOM     18  F   UNL d   1      29.035  17.454 -24.567  0.00  0.00    -0.166 F 
ENDBRANCH   1  15
TORSDOF 4
ENDMDL
MODEL 4
REMARK VINA RESULT:      -2.3      2.369      3.268
REMARK  4 active torsions:
REMARK  status: ('A' for Active; 'I' for Inactive)
REMARK    1  A    between atoms: C_2  and  C_1 
REMARK    2  A    between atoms: C_4  and  C_3 
REMARK       I    between atoms: N_6  and  C_4 
REMARK    3  A    between atoms: C_5  and  C_10 
REMARK       I    between atoms: N_9  and  C_5 
REMARK    4  A    between atoms: C_10  and  N_6 
ROOT
ATOM      1  C   UNL d   1      31.231  16.748 -24.109  0.00  0.00     0.076 A 
ATOM      2  C   UNL d   1      31.792  17.308 -24.359  0.00  0.00     0.062 A 
ATOM      3  C   UNL d   1      30.443  16.845 -24.305  0.00  0.00     0.004 A 
ATOM      4  C   UNL d   1      31.544  17.962 -24.807  0.00  0.00     0.005 A 
ATOM      5  C   UNL d   1      30.736  18.053 -25.002  0.00  0.00     0.000 A 
ATOM      6  C   UNL d   1      30.197  17.492 -24.748  0.00  0.00    -0.000 A 
ENDROOT
BRANCH   2   7
ATOM      7  C   UNL d   1      32.589  17.218 -24.166  0.00  0.00     0.279 C 
ATOM      8  N   UNL d   1      32.957  17.763 -23.666  0.00  0.00    -0.201 NA
ATOM      9  O   UNL d   1      33.012  16.580 -24.476  0.00  0.00    -0.265 OA
BRANCH   8  10
ATOM     10  C   UNL d   1      32.529  18.400 -23.359  0.00  0.00     0.166 C 
BRANCH  10  11
ATOM     11  C   UNL d   1      32.876  18.898 -22.803  0.00  0.00     0.318 C 
ATOM     12  O   UNL d   1      33.241  18.578 -22.140  0.00  0.00    -0.262 OA
ATOM     13  N   UNL d   1      32.857  19.718 -22.913  0.00  0.00    -0.083 NA
ATOM     14  N   UNL d   1      33.204  20.215 -22.358  0.00  0.00    -0.019 N 
ENDBRANCH  10  11
ENDBRANCH   8  10
ENDBRANCH   2   7
BRANCH   1  15
ATOM     15  C   UNL d   1      31.480  16.094 -23.661  0.00  0.00     0.419 C 
ATOM     16  F   UNL d   1      31.706  15.497 -23.252  0.00  0.00    -0.166 F 
ATOM     17  F   UNL d   1      31.275  15.892 -22.842  0.00  0.00    -0.166 F 
ATOM     18  F   UNL d   1      31.996  15.453 -23.882  0.00  0.00    -0.166 F 
ENDBRANCH   1  15
TORSDOF 4
ENDMDL
MODEL 5
REMARK VINA RESULT:      -2.0      1.368      1.976
REMARK  4 active torsions:
REMARK  status: ('A' for Active; 'I' for Inactive)
REMARK    1  A    between atoms: C_2  and  C_1 
REMARK    2  A    between atoms: C_4  and  C_3 
REMARK       I    between atoms: N_6  and  C_4 
REMARK    3  A    between atoms: C_5  and  C_10 
REMARK       I    between atoms: N_9  and  C_5 
REMARK    4  A    between atoms: C_10  and  N_6 
ROOT
ATOM      1  C   UNL d   1      32.906  18.874 -23.443  0.00  0.00     0.076 A 
ATOM      2  C   UNL d   1      32.714  18.175 -23.851  0.00  0.00     0.062 A 
ATOM      3  C   UNL d   1      33.144  19.537 -23.860  0.00  0.00     0.004 A 
ATOM      4  C   UNL d   1      32.765  18.159 -24.680  0.00  0.00     0.005 A 
ATOM      5  C   UNL d   1      33.009  18.842 -25.097  0.00  0.00     0.000 A 
ATOM      6  C   UNL d   1      33.194  19.521 -24.679  0.00  0.00    -0.000 A 
ENDROOT
BRANCH   2   7
ATOM      7  C   UNL d   1      32.474  17.502 -23.439  0.00  0.00     0.279 C 
ATOM      8  N   UNL d   1      31.759  17.136 -23.629  0.00  0.00    -0.201 NA
ATOM      9  O   UNL d   1      32.954  17.201 -22.838  0.00  0.00    -0.265 OA
BRANCH   8  10
ATOM     10  C   UNL d   1      31.282  17.440 -24.231  0.00  0.00     0.166 C 
BRANCH  10  11
ATOM     11  C   UNL d   1      30.542  17.110 -24.376  0.00  0.00     0.318 C 
ATOM     12  O   UNL d   1      30.465  16.295 -24.440  0.00  0.00    -0.262 OA
ATOM     13  N   UNL d   1      29.880  17.600 -24.456  0.00  0.00    -0.083 NA
ATOM     14  N   UNL d   1      29.141  17.270 -24.601  0.00  0.00    -0.019 N 
ENDBRANCH  10  11
ENDBRANCH   8  10
ENDBRANCH   2   7
BRANCH   1  15
ATOM     15  C   UNL d   1      32.855  18.890 -22.614  0.00  0.00     0.419 C 
ATOM     16  F   UNL d   1      32.808  18.904 -21.857  0.00  0.00    -0.166 F 
ATOM     17  F   UNL d   1      33.241  18.365 -22.040  0.00  0.00    -0.166 F 
ATOM     18  F   UNL d   1      32.415  19.418 -22.111  0.00  0.00    -0.166 F 
ENDBRANCH   1  15
TORSDOF 4
ENDMDL
MODEL 6
REMARK VINA RESULT:      -0.2      5.793      6.703
REMARK  4 active torsions:
REMARK  status: ('A' for Active; 'I' for Inactive)
REMARK    1  A    between atoms: C_2  and  C_1 
REMARK    2  A    between atoms: C_4  and  C_3 
REMARK       I    between atoms: N_6  and  C_4 
REMARK    3  A    between atoms: C_5  and  C_10 
REMARK       I    between atoms: N_9  and  C_5 
REMARK    4  A    between atoms: C_10  and  N_6 
ROOT
ATOM      1  C   UNL d   1      32.672  21.946 -21.531  0.00  0.00     0.076 A 
ATOM      2  C   UNL d   1      32.197  21.840 -20.857  0.00  0.00     0.062 A 
ATOM      3  C   UNL d   1      33.173  21.347 -21.775  0.00  0.00     0.004 A 
ATOM      4  C   UNL d   1      32.237  21.123 -20.438  0.00  0.00     0.005 A 
ATOM      5  C   UNL d   1      32.751  20.517 -20.696  0.00  0.00     0.000 A 
ATOM      6  C   UNL d   1      33.212  20.638 -21.362  0.00  0.00    -0.000 A 
ENDROOT
BRANCH   2   7
ATOM      7  C   UNL d   1      31.689  22.439 -20.603  0.00  0.00     0.279 C 
ATOM      8  N   UNL d   1      31.869  22.871 -19.923  0.00  0.00    -0.201 NA
ATOM      9  O   UNL d   1      31.004  22.600 -21.035  0.00  0.00    -0.265 OA
BRANCH   8  10
ATOM     10  C   UNL d   1      32.556  22.706 -19.494  0.00  0.00     0.166 C 
BRANCH  10  11
ATOM     11  C   UNL d   1      32.688  23.076 -18.771  0.00  0.00     0.318 C 
ATOM     12  O   UNL d   1      33.219  23.700 -18.724  0.00  0.00    -0.262 OA
ATOM     13  N   UNL d   1      32.285  22.818 -18.096  0.00  0.00    -0.083 NA
ATOM     14  N   UNL d   1      32.417  23.188 -17.373  0.00  0.00    -0.019 N 
ENDBRANCH  10  11
ENDBRANCH   8  10
ENDBRANCH   2   7
BRANCH   1  15
ATOM     15  C   UNL d   1      32.632  22.663 -21.949  0.00  0.00     0.419 C 
ATOM     16  F   UNL d   1      32.596  23.317 -22.331  0.00  0.00    -0.166 F 
ATOM     17  F   UNL d   1      33.236  23.282 -22.017  0.00  0.00    -0.166 F 
ATOM     18  F   UNL d   1      31.994  22.978 -22.419  0.00  0.00    -0.166 F 
ENDBRANCH   1  15
TORSDOF 4
ENDMDL
MODEL 7
REMARK VINA RESULT:      -0.1      2.218      3.657
REMARK  4 active torsions:
REMARK  status: ('A' for Active; 'I' for Inactive)
REMARK    1  A    between atoms: C_2  and  C_1 
REMARK    2  A    between atoms: C_4  and  C_3 
REMARK       I    between atoms: N_6  and  C_4 
REMARK    3  A    between atoms: C_5  and  C_10 
REMARK       I    between atoms: N_9  and  C_5 
REMARK    4  A    between atoms: C_10  and  N_6 
ROOT
ATOM      1  C   UNL d   1      29.204  16.813 -24.001  0.00  0.00     0.076 A 
ATOM      2  C   UNL d   1      29.887  16.822 -24.475  0.00  0.00     0.062 A 
ATOM      3  C   UNL d   1      28.644  17.405 -24.079  0.00  0.00     0.004 A 
ATOM      4  C   UNL d   1      29.993  17.437 -25.024  0.00  0.00     0.005 A 
ATOM      5  C   UNL d   1      29.416  18.037 -25.097  0.00  0.00     0.000 A 
ATOM      6  C   UNL d   1      28.750  18.012 -24.622  0.00  0.00    -0.000 A 
ENDROOT
BRANCH   2   7
ATOM      7  C   UNL d   1      30.456  16.230 -24.402  0.00  0.00     0.279 C 
ATOM      8  N   UNL d   1      31.213  16.416 -24.131  0.00  0.00    -0.201 NA
ATOM      9  O   UNL d   1      30.260  15.452 -24.602  0.00  0.00    -0.265 OA
BRANCH   8  10
ATOM     10  C   UNL d   1      31.404  17.194 -23.932  0.00  0.00     0.166 C 
BRANCH  10  11
ATOM     11  C   UNL d   1      32.156  17.374 -23.648  0.00  0.00     0.318 C 
ATOM     12  O   UNL d   1      32.778  16.857 -23.790  0.00  0.00    -0.262 OA
ATOM     13  N   UNL d   1      32.281  18.072 -23.223  0.00  0.00    -0.083 NA
ATOM     14  N   UNL d   1      33.032  18.250 -22.939  0.00  0.00    -0.019 N 
ENDBRANCH  10  11
ENDBRANCH   8  10
ENDBRANCH   2   7
BRANCH   1  15
ATOM     15  C   UNL d   1      29.097  16.199 -23.451  0.00  0.00     0.419 C 
ATOM     16  F   UNL d   1      29.000  15.639 -22.950  0.00  0.00    -0.166 F 
ATOM     17  F   UNL d   1      29.376  16.156 -22.631  0.00  0.00    -0.166 F 
ATOM     18  F   UNL d   1      28.691  15.456 -23.545  0.00  0.00    -0.166 F 
ENDBRANCH   1  15
TORSDOF 4
ENDMDL
