MODEL 1
REMARK VINA RESULT:     102.5      0.000      0.000
REMARK  6 active torsions:
REMARK  status: ('A' for Active; 'I' for Inactive)
REMARK    1  A    between atoms: C_7  and  C_1 
REMARK    2  A    between atoms: S_9  and  C_2 
REMARK    3  A    between atoms: C_11  and  C_4 
REMARK    4  A    between atoms: C_15  and  S_9 
REMARK    5  A    between atoms: C_12  and  C_15 
REMARK    6  A    between atoms: O_21  and  C_12 
ROOT
ATOM      1  C   UNL d   1      61.183  47.357  50.956  0.00  0.00     0.045 A 
ATOM      2  C   UNL d   1      61.293  46.971  50.242  0.00  0.00     0.112 A 
ATOM      3  C   UNL d   1      60.772  48.541  50.253  0.00  0.00     0.057 A 
ATOM      4  C   UNL d   1      60.923  48.140  50.971  0.00  0.00     0.008 A 
ATOM      5  C   UNL d   1      60.882  48.155  49.539  0.00  0.00     0.085 A 
ATOM      6  N   UNL d   1      61.146  47.359  49.526  0.00  0.00    -0.239 NA
ATOM      7  C   UNL d   1      60.516  49.314  50.273  0.00  0.00     0.197 A 
ATOM      8  O   UNL d   1      60.404  49.706  50.997  0.00  0.00    -0.286 OA
ATOM      9  C   UNL d   1      60.738  48.534  48.828  0.00  0.00     0.019 A 
ATOM     10  C   UNL d   1      60.368  49.705  49.562  0.00  0.00     0.042 A 
ATOM     11  C   UNL d   1      60.478  49.319  48.848  0.00  0.00     0.005 A 
ENDROOT
BRANCH   4  12
ATOM     12  C   UNL d   1      60.814  48.523  51.679  0.00  0.00     0.000 A 
ATOM     13  C   UNL d   1      61.157  48.224  52.364  0.00  0.00     0.000 A 
ATOM     14  C   UNL d   1      61.047  48.610  53.078  0.00  0.00     0.000 A 
ATOM     15  C   UNL d   1      60.594  49.295  53.108  0.00  0.00     0.000 A 
ATOM     16  C   UNL d   1      60.244  49.602  52.418  0.00  0.00     0.000 A 
ATOM     17  C   UNL d   1      60.483  49.684  53.828  0.00  0.00     0.000 C 
ATOM     18  C   UNL d   1      60.354  49.216  51.704  0.00  0.00     0.000 A 
ENDBRANCH   4  12
BRANCH   1  19
ATOM     19  C   UNL d   1      61.336  46.951  51.677  0.00  0.00     0.124 C 
ATOM     20  N   UNL d   1      60.870  46.294  51.881  0.00  0.00    -0.146 N 
ENDBRANCH   1  19
BRANCH   2  21
ATOM     21  S   UNL d   1      61.562  46.159  50.211  0.00  0.00    -0.062 SA
BRANCH  21  22
ATOM     22  C   UNL d   1      61.559  45.763  49.498  0.00  0.00     0.105 C 
BRANCH  22  23
ATOM     23  C   UNL d   1      62.119  45.166  49.354  0.00  0.00     0.303 C 
ATOM     24  O   UNL d   1      62.912  45.352  49.215  0.00  0.00    -0.259 OA
BRANCH  23  25
ATOM     25  O   UNL d   1      61.882  44.383  49.349  0.00  0.00    -0.295 OA
ATOM     26  C   UNL d   1      61.243  44.150  48.872  0.00  0.00     0.185 C 
ENDBRANCH  23  25
ENDBRANCH  22  23
ENDBRANCH  21  22
ENDBRANCH   2  21
TORSDOF 6
ENDMDL
