MODEL 1
REMARK VINA RESULT:      -3.2      0.000      0.000
REMARK  5 active torsions:
REMARK  status: ('A' for Active; 'I' for Inactive)
REMARK    1  A    between atoms: C_2  and  S_1 
REMARK    2  A    between atoms: N_3  and  S_1 
REMARK    3  A    between atoms: C_5  and  C_6 
REMARK       I    between atoms: N_10  and  C_5 
REMARK    4  A    between atoms: C_25  and  N_10 
REMARK    5  A    between atoms: C_24  and  C_25 
ROOT
ATOM      1  C   UNL d   1      31.563  16.995 -24.032  0.00  0.00     0.104 A 
ATOM      2  C   UNL d   1      31.813  17.754 -24.220  0.00  0.00     0.018 A 
ATOM      3  C   UNL d   1      32.606  17.964 -24.126  0.00  0.00     0.059 A 
ATOM      4  C   UNL d   1      32.104  16.435 -23.747  0.00  0.00     0.012 A 
ATOM      5  C   UNL d   1      33.151  17.411 -23.841  0.00  0.00     0.005 A 
ATOM      6  C   UNL d   1      32.896  16.645 -23.652  0.00  0.00     0.001 A 
ATOM      7  C   UNL d   1      31.847  15.660 -23.555  0.00  0.00     0.001 C 
ENDROOT
BRANCH   3   8
ATOM      8  C   UNL d   1      32.858  18.721 -24.313  0.00  0.00     0.279 C 
ATOM      9  N   UNL d   1      33.022  19.261 -23.707  0.00  0.00    -0.206 NA
ATOM     10  O   UNL d   1      32.948  18.940 -25.097  0.00  0.00    -0.265 OA
BRANCH   9  11
ATOM     11  C   UNL d   1      32.933  19.042 -22.924  0.00  0.00     0.102 C 
BRANCH  11  12
ATOM     12  C   UNL d   1      32.995  19.619 -22.319  0.00  0.00     0.021 A 
ATOM     13  C   UNL d   1      32.877  20.420 -22.482  0.00  0.00     0.028 A 
ATOM     14  C   UNL d   1      32.941  20.972 -21.880  0.00  0.00     0.119 A 
ATOM     15  O   UNL d   1      32.856  21.799 -21.869  0.00  0.00    -0.300 OA
ATOM     16  C   UNL d   1      33.125  20.733 -21.106  0.00  0.00     0.119 A 
ATOM     17  C   UNL d   1      32.984  22.059 -21.106  0.00  0.00     0.304 A 
ATOM     18  O   UNL d   1      33.151  21.398 -20.632  0.00  0.00    -0.300 OA
ATOM     19  C   UNL d   1      33.241  19.932 -20.953  0.00  0.00     0.026 A 
ATOM     20  C   UNL d   1      33.176  19.380 -21.555  0.00  0.00     0.004 A 
ENDBRANCH  11  12
ENDBRANCH   9  11
ENDBRANCH   3   8
BRANCH   1  21
ATOM     21  S   UNL d   1      30.767  16.792 -24.130  0.00  0.00     0.272 S 
ATOM     22  O   UNL d   1      30.945  16.460 -24.864  0.00  0.00    -0.200 OA
ATOM     23  O   UNL d   1      30.595  17.125 -23.396  0.00  0.00    -0.200 OA
BRANCH  21  24
ATOM     24  N   UNL d   1      29.976  16.591 -24.228  0.00  0.00    -0.225 N 
ATOM     25  C   UNL d   1      29.445  16.714 -23.618  0.00  0.00     0.118 A 
ATOM     26  C   UNL d   1      28.649  16.514 -23.707  0.00  0.00     0.142 A 
ATOM     27  O   UNL d   1      28.390  16.187 -24.424  0.00  0.00    -0.300 OA
ATOM     28  C   UNL d   1      28.921  16.064 -25.034  0.00  0.00     0.142 A 
ATOM     29  C   UNL d   1      29.717  16.264 -24.945  0.00  0.00     0.118 A 
ENDBRANCH  21  24
ENDBRANCH   1  21
TORSDOF 5
ENDMDL
MODEL 2
REMARK VINA RESULT:      -2.0      1.547      5.364
REMARK  5 active torsions:
REMARK  status: ('A' for Active; 'I' for Inactive)
REMARK    1  A    between atoms: C_2  and  S_1 
REMARK    2  A    between atoms: N_3  and  S_1 
REMARK    3  A    between atoms: C_5  and  C_6 
REMARK       I    between atoms: N_10  and  C_5 
REMARK    4  A    between atoms: C_25  and  N_10 
REMARK    5  A    between atoms: C_24  and  C_25 
ROOT
ATOM      1  C   UNL d   1      32.769  20.520 -21.978  0.00  0.00     0.104 A 
ATOM      2  C   UNL d   1      32.705  20.340 -22.776  0.00  0.00     0.018 A 
ATOM      3  C   UNL d   1      32.909  19.588 -23.048  0.00  0.00     0.059 A 
ATOM      4  C   UNL d   1      33.037  19.949 -21.440  0.00  0.00     0.012 A 
ATOM      5  C   UNL d   1      33.177  19.013 -22.518  0.00  0.00     0.005 A 
ATOM      6  C   UNL d   1      33.241  19.197 -21.712  0.00  0.00     0.001 A 
ATOM      7  C   UNL d   1      33.102  20.135 -20.625  0.00  0.00     0.001 C 
ENDROOT
BRANCH   3   8
ATOM      8  C   UNL d   1      32.846  19.405 -23.845  0.00  0.00     0.279 C 
ATOM      9  N   UNL d   1      32.424  18.733 -24.081  0.00  0.00    -0.206 NA
ATOM     10  O   UNL d   1      33.202  19.886 -24.404  0.00  0.00    -0.265 OA
BRANCH   9  11
ATOM     11  C   UNL d   1      32.068  18.252 -23.522  0.00  0.00     0.102 C 
BRANCH  11  12
ATOM     12  C   UNL d   1      31.606  17.598 -23.768  0.00  0.00     0.021 A 
ATOM     13  C   UNL d   1      30.891  17.708 -24.166  0.00  0.00     0.028 A 
ATOM     14  C   UNL d   1      30.450  17.058 -24.400  0.00  0.00     0.119 A 
ATOM     15  O   UNL d   1      29.725  16.990 -24.801  0.00  0.00    -0.300 OA
ATOM     16  C   UNL d   1      30.717  16.288 -24.239  0.00  0.00     0.119 A 
ATOM     17  C   UNL d   1      29.553  16.196 -24.883  0.00  0.00     0.304 A 
ATOM     18  O   UNL d   1      30.167  15.761 -24.535  0.00  0.00    -0.300 OA
ATOM     19  C   UNL d   1      31.430  16.187 -23.841  0.00  0.00     0.026 A 
ATOM     20  C   UNL d   1      31.871  16.838 -23.608  0.00  0.00     0.004 A 
ENDBRANCH  11  12
ENDBRANCH   9  11
ENDBRANCH   3   8
BRANCH   1  21
ATOM     21  S   UNL d   1      32.563  21.277 -21.713  0.00  0.00     0.272 S 
ATOM     22  O   UNL d   1      31.885  20.965 -21.360  0.00  0.00    -0.200 OA
ATOM     23  O   UNL d   1      33.241  21.583 -22.068  0.00  0.00    -0.200 OA
BRANCH  21  24
ATOM     24  N   UNL d   1      32.357  22.028 -21.450  0.00  0.00    -0.225 N 
ATOM     25  C   UNL d   1      32.103  22.135 -20.680  0.00  0.00     0.118 A 
ATOM     26  C   UNL d   1      31.895  22.886 -20.407  0.00  0.00     0.142 A 
ATOM     27  O   UNL d   1      31.945  23.533 -20.922  0.00  0.00    -0.300 OA
ATOM     28  C   UNL d   1      32.198  23.426 -21.693  0.00  0.00     0.142 A 
ATOM     29  C   UNL d   1      32.407  22.676 -21.965  0.00  0.00     0.118 A 
ENDBRANCH  21  24
ENDBRANCH   1  21
TORSDOF 5
ENDMDL
