MODEL 1
REMARK VINA RESULT:      -8.6      0.000      0.000
REMARK  3 active torsions:
REMARK  status: ('A' for Active; 'I' for Inactive)
REMARK    1  A    between atoms: N_3  and  S_1 
REMARK    2  A    between atoms: C_8  and  S_1 
REMARK    3  A    between atoms: C_2  and  N_3 
ROOT
ATOM      1  S   UNL d   1      53.192  32.479  53.344  0.00  0.00     0.287 S 
ATOM      2  O   UNL d   1      52.366  32.495  53.369  0.00  0.00    -0.198 OA
ATOM      3  O   UNL d   1      54.018  32.453  53.319  0.00  0.00    -0.198 OA
ENDROOT
BRANCH   1   4
ATOM      4  N   UNL d   1      53.212  33.304  53.322  0.00  0.00    -0.131 NA
BRANCH   4   5
ATOM      5  C   UNL d   1      53.228  33.904  53.891  0.00  0.00     0.219 A 
ATOM      6  C   UNL d   1      52.999  34.687  53.773  0.00  0.00     0.064 A 
ATOM      7  C   UNL d   1      53.107  35.092  54.488  0.00  0.00     0.112 A 
ATOM      8  C   UNL d   1      52.712  35.013  53.066  0.00  0.00     0.005 C 
ATOM      9  C   UNL d   1      52.945  35.893  54.618  0.00  0.00     0.023 C 
ATOM     10  N   UNL d   1      53.402  34.556  55.043  0.00  0.00    -0.125 NA
ATOM     11  O   UNL d   1      53.478  33.818  54.674  0.00  0.00    -0.191 OA
ENDBRANCH   4   5
ENDBRANCH   1   4
BRANCH   1  12
ATOM     12  C   UNL d   1      53.171  31.652  53.365  0.00  0.00     0.105 A 
ATOM     13  C   UNL d   1      52.601  31.242  52.933  0.00  0.00     0.015 A 
ATOM     14  C   UNL d   1      52.581  30.428  52.954  0.00  0.00     0.022 A 
ATOM     15  C   UNL d   1      53.121  30.012  53.399  0.00  0.00     0.103 A 
ATOM     16  C   UNL d   1      53.691  30.419  53.831  0.00  0.00     0.022 A 
ATOM     17  N   UNL d   1      53.101  29.187  53.420  0.00  0.00    -0.148 N 
ATOM     18  C   UNL d   1      53.711  31.237  53.810  0.00  0.00     0.015 A 
ENDBRANCH   1  12
TORSDOF 3
ENDMDL
MODEL 2
REMARK VINA RESULT:      -8.3      2.091      3.314
REMARK  3 active torsions:
REMARK  status: ('A' for Active; 'I' for Inactive)
REMARK    1  A    between atoms: N_3  and  S_1 
REMARK    2  A    between atoms: C_8  and  S_1 
REMARK    3  A    between atoms: C_2  and  N_3 
ROOT
ATOM      1  S   UNL d   1      52.203  33.652  53.168  0.00  0.00     0.287 S 
ATOM      2  O   UNL d   1      52.597  34.255  52.764  0.00  0.00    -0.198 OA
ATOM      3  O   UNL d   1      51.800  33.050  53.568  0.00  0.00    -0.198 OA
ENDROOT
BRANCH   1   4
ATOM      4  N   UNL d   1      52.917  33.401  53.499  0.00  0.00    -0.131 NA
BRANCH   4   5
ATOM      5  C   UNL d   1      53.398  33.660  54.119  0.00  0.00     0.219 A 
ATOM      6  C   UNL d   1      54.146  33.368  54.304  0.00  0.00     0.064 A 
ATOM      7  C   UNL d   1      54.425  33.786  54.963  0.00  0.00     0.112 A 
ATOM      8  C   UNL d   1      54.549  32.764  53.903  0.00  0.00     0.005 C 
ATOM      9  C   UNL d   1      55.155  33.671  55.335  0.00  0.00     0.023 C 
ATOM     10  N   UNL d   1      53.845  34.334  55.181  0.00  0.00    -0.125 NA
ATOM     11  O   UNL d   1      53.207  34.257  54.657  0.00  0.00    -0.191 OA
ENDBRANCH   4   5
ENDBRANCH   1   4
BRANCH   1  12
ATOM     12  C   UNL d   1      51.488  33.903  52.837  0.00  0.00     0.105 A 
ATOM     13  C   UNL d   1      51.451  34.104  52.038  0.00  0.00     0.015 A 
ATOM     14  C   UNL d   1      50.747  34.352  51.711  0.00  0.00     0.022 A 
ATOM     15  C   UNL d   1      50.075  34.403  52.168  0.00  0.00     0.103 A 
ATOM     16  C   UNL d   1      50.109  34.202  52.965  0.00  0.00     0.022 A 
ATOM     17  N   UNL d   1      49.361  34.654  51.837  0.00  0.00    -0.148 N 
ATOM     18  C   UNL d   1      50.817  33.954  53.293  0.00  0.00     0.015 A 
ENDBRANCH   1  12
TORSDOF 3
ENDMDL
MODEL 3
REMARK VINA RESULT:      -8.1      0.869      3.930
REMARK  3 active torsions:
REMARK  status: ('A' for Active; 'I' for Inactive)
REMARK    1  A    between atoms: N_3  and  S_1 
REMARK    2  A    between atoms: C_8  and  S_1 
REMARK    3  A    between atoms: C_2  and  N_3 
ROOT
ATOM      1  S   UNL d   1      53.185  32.806  53.478  0.00  0.00     0.287 S 
ATOM      2  O   UNL d   1      52.366  32.730  53.555  0.00  0.00    -0.198 OA
ATOM      3  O   UNL d   1      54.005  32.892  53.405  0.00  0.00    -0.198 OA
ENDROOT
BRANCH   1   4
ATOM      4  N   UNL d   1      53.238  32.026  53.212  0.00  0.00    -0.131 NA
BRANCH   4   5
ATOM      5  C   UNL d   1      53.301  31.287  53.575  0.00  0.00     0.219 A 
ATOM      6  C   UNL d   1      53.128  30.561  53.225  0.00  0.00     0.064 A 
ATOM      7  C   UNL d   1      53.269  29.969  53.788  0.00  0.00     0.112 A 
ATOM      8  C   UNL d   1      52.860  30.442  52.449  0.00  0.00     0.005 C 
ATOM      9  C   UNL d   1      53.166  29.156  53.670  0.00  0.00     0.023 C 
ATOM     10  N   UNL d   1      53.528  30.334  54.482  0.00  0.00    -0.125 NA
ATOM     11  O   UNL d   1      53.549  31.152  54.352  0.00  0.00    -0.191 OA
ENDBRANCH   4   5
ENDBRANCH   1   4
BRANCH   1  12
ATOM     12  C   UNL d   1      53.133  33.587  53.745  0.00  0.00     0.105 A 
ATOM     13  C   UNL d   1      52.734  34.152  53.295  0.00  0.00     0.015 A 
ATOM     14  C   UNL d   1      52.682  34.921  53.558  0.00  0.00     0.022 A 
ATOM     15  C   UNL d   1      53.021  35.140  54.265  0.00  0.00     0.103 A 
ATOM     16  C   UNL d   1      53.420  34.579  54.716  0.00  0.00     0.022 A 
ATOM     17  N   UNL d   1      52.969  35.920  54.531  0.00  0.00    -0.148 N 
ATOM     18  C   UNL d   1      53.472  33.806  54.452  0.00  0.00     0.015 A 
ENDBRANCH   1  12
TORSDOF 3
ENDMDL
MODEL 4
REMARK VINA RESULT:      -7.7      1.818      3.988
REMARK  3 active torsions:
REMARK  status: ('A' for Active; 'I' for Inactive)
REMARK    1  A    between atoms: N_3  and  S_1 
REMARK    2  A    between atoms: C_8  and  S_1 
REMARK    3  A    between atoms: C_2  and  N_3 
ROOT
ATOM      1  S   UNL d   1      52.126  33.034  52.994  0.00  0.00     0.287 S 
ATOM      2  O   UNL d   1      51.957  33.051  53.803  0.00  0.00    -0.198 OA
ATOM      3  O   UNL d   1      52.288  33.024  52.184  0.00  0.00    -0.198 OA
ENDROOT
BRANCH   1   4
ATOM      4  N   UNL d   1      52.777  32.545  53.136  0.00  0.00    -0.131 NA
BRANCH   4   5
ATOM      5  C   UNL d   1      52.909  31.729  53.126  0.00  0.00     0.219 A 
ATOM      6  C   UNL d   1      53.485  31.329  53.559  0.00  0.00     0.064 A 
ATOM      7  C   UNL d   1      53.419  30.522  53.381  0.00  0.00     0.112 A 
ATOM      8  C   UNL d   1      54.033  31.670  54.080  0.00  0.00     0.005 C 
ATOM      9  C   UNL d   1      53.890  29.918  53.694  0.00  0.00     0.023 C 
ATOM     10  N   UNL d   1      52.802  30.430  52.839  0.00  0.00    -0.125 NA
ATOM     11  O   UNL d   1      52.484  31.179  52.680  0.00  0.00    -0.191 OA
ENDBRANCH   4   5
ENDBRANCH   1   4
BRANCH   1  12
ATOM     12  C   UNL d   1      51.475  33.524  52.853  0.00  0.00     0.105 A 
ATOM     13  C   UNL d   1      50.844  33.535  53.384  0.00  0.00     0.015 A 
ATOM     14  C   UNL d   1      50.202  34.018  53.245  0.00  0.00     0.022 A 
ATOM     15  C   UNL d   1      50.177  34.490  52.583  0.00  0.00     0.103 A 
ATOM     16  C   UNL d   1      50.804  34.481  52.051  0.00  0.00     0.022 A 
ATOM     17  N   UNL d   1      49.526  34.979  52.442  0.00  0.00    -0.148 N 
ATOM     18  C   UNL d   1      51.449  33.996  52.191  0.00  0.00     0.015 A 
ENDBRANCH   1  12
TORSDOF 3
ENDMDL
MODEL 5
REMARK VINA RESULT:      -7.6      2.159      3.166
REMARK  3 active torsions:
REMARK  status: ('A' for Active; 'I' for Inactive)
REMARK    1  A    between atoms: N_3  and  S_1 
REMARK    2  A    between atoms: C_8  and  S_1 
REMARK    3  A    between atoms: C_2  and  N_3 
ROOT
ATOM      1  S   UNL d   1      52.668  33.812  53.326  0.00  0.00     0.287 S 
ATOM      2  O   UNL d   1      52.888  34.599  53.206  0.00  0.00    -0.198 OA
ATOM      3  O   UNL d   1      52.455  33.023  53.452  0.00  0.00    -0.198 OA
ENDROOT
BRANCH   1   4
ATOM      4  N   UNL d   1      52.055  33.894  52.777  0.00  0.00    -0.131 NA
BRANCH   4   5
ATOM      5  C   UNL d   1      51.257  34.106  52.819  0.00  0.00     0.219 A 
ATOM      6  C   UNL d   1      50.762  34.250  52.176  0.00  0.00     0.064 A 
ATOM      7  C   UNL d   1      50.013  34.444  52.472  0.00  0.00     0.112 A 
ATOM      8  C   UNL d   1      50.975  34.209  51.375  0.00  0.00     0.005 C 
ATOM      9  C   UNL d   1      49.347  34.630  52.018  0.00  0.00     0.023 C 
ATOM     10  N   UNL d   1      50.051  34.417  53.298  0.00  0.00    -0.125 NA
ATOM     11  O   UNL d   1      50.823  34.208  53.514  0.00  0.00    -0.191 OA
ENDBRANCH   4   5
ENDBRANCH   1   4
BRANCH   1  12
ATOM     12  C   UNL d   1      53.281  33.729  53.874  0.00  0.00     0.105 A 
ATOM     13  C   UNL d   1      53.811  33.100  53.810  0.00  0.00     0.015 A 
ATOM     14  C   UNL d   1      54.415  33.019  54.351  0.00  0.00     0.022 A 
ATOM     15  C   UNL d   1      54.502  33.554  54.957  0.00  0.00     0.103 A 
ATOM     16  C   UNL d   1      53.975  34.183  55.024  0.00  0.00     0.022 A 
ATOM     17  N   UNL d   1      55.114  33.472  55.505  0.00  0.00    -0.148 N 
ATOM     18  C   UNL d   1      53.368  34.265  54.481  0.00  0.00     0.015 A 
ENDBRANCH   1  12
TORSDOF 3
ENDMDL
