MODEL 1
REMARK VINA RESULT:       4.8      0.000      0.000
REMARK  3 active torsions:
REMARK  status: ('A' for Active; 'I' for Inactive)
REMARK       I    between atoms: C_6  and  N_7 
REMARK    1  A    between atoms: C_9  and  C_6 
REMARK    2  A    between atoms: N_7  and  C_13 
REMARK    3  A    between atoms: C_15  and  C_14 
ROOT
ATOM      1  C   UNL d   1     -41.826-123.056 -48.547  0.00  0.00     0.279 C 
ATOM      2  N   UNL d   1     -41.123-123.050 -48.969  0.00  0.00    -0.208 NA
ATOM      3  O   UNL d   1     -41.807-123.059 -47.727  0.00  0.00    -0.265 OA
ENDROOT
BRANCH   2   4
ATOM      4  C   UNL d   1     -41.137-123.047 -49.794  0.00  0.00     0.085 A 
ATOM      5  C   UNL d   1     -41.139-122.332 -50.193  0.00  0.00     0.024 A 
ATOM      6  C   UNL d   1     -41.154-122.328 -51.018  0.00  0.00     0.064 A 
ATOM      7  C   UNL d   1     -41.158-121.706 -51.565  0.00  0.00     0.282 A 
ATOM      8  C   UNL d   1     -41.167-123.027 -51.442  0.00  0.00     0.063 A 
ATOM      9  N   UNL d   1     -41.175-122.033 -52.318  0.00  0.00    -0.169 NA
ATOM     10  O   UNL d   1     -41.149-120.900 -51.404  0.00  0.00    -0.265 OA
ATOM     11  C   UNL d   1     -41.180-122.848 -52.242  0.00  0.00     0.282 A 
ATOM     12  O   UNL d   1     -41.196-123.396 -52.855  0.00  0.00    -0.265 OA
ATOM     13  C   UNL d   1     -41.166-123.747 -51.039  0.00  0.00     0.006 A 
ATOM     14  C   UNL d   1     -41.151-123.761 -50.215  0.00  0.00     0.019 A 
ENDBRANCH   2   4
BRANCH   1  15
ATOM     15  C   UNL d   1     -42.542-123.058 -48.937  0.00  0.00     0.058 A 
ATOM     16  C   UNL d   1     -42.915-123.765 -49.119  0.00  0.00     0.005 A 
ATOM     17  C   UNL d   1     -43.642-123.759 -49.514  0.00  0.00     0.003 A 
ATOM     18  C   UNL d   1     -43.992-123.043 -49.726  0.00  0.00     0.039 A 
ATOM     19  C   UNL d   1     -43.615-122.332 -49.542  0.00  0.00     0.003 A 
ATOM     20  C   UNL d   1     -42.889-122.339 -49.147  0.00  0.00     0.005 A 
BRANCH  18  21
ATOM     21  C   UNL d   1     -44.719-123.036 -50.122  0.00  0.00     0.196 C 
ATOM     22  O   UNL d   1     -44.970-122.356 -50.512  0.00  0.00    -0.287 OA
ATOM     23  C   UNL d   1     -45.191-123.714 -50.124  0.00  0.00     0.045 C 
ENDBRANCH  18  21
ENDBRANCH   1  15
TORSDOF 3
ENDMDL
