MODEL 1
REMARK VINA RESULT:     -10.2      0.000      0.000
REMARK  1 active torsions:
REMARK  status: ('A' for Active; 'I' for Inactive)
REMARK    1  A    between atoms: C_9  and  C_1 
ROOT
ATOM      1  C   UNL d   1      52.214  34.247  53.421  0.00  0.00     0.064 A 
ATOM      2  C   UNL d   1      52.559  33.518  53.623  0.00  0.00     0.199 A 
ATOM      3  C   UNL d   1      53.228  33.514  54.117  0.00  0.00     0.062 A 
ATOM      4  C   UNL d   1      52.528  34.952  53.704  0.00  0.00     0.126 A 
ATOM      5  C   UNL d   1      53.543  34.218  54.401  0.00  0.00     0.106 A 
ATOM      6  O   UNL d   1      53.194  34.941  54.196  0.00  0.00    -0.305 OA
ATOM      7  C   UNL d   1      53.569  32.789  54.315  0.00  0.00     0.009 A 
ATOM      8  C   UNL d   1      54.203  34.211  54.889  0.00  0.00     0.067 A 
ATOM      9  O   UNL d   1      52.246  32.817  53.340  0.00  0.00    -0.286 OA
ATOM     10  C   UNL d   1      54.552  33.489  55.093  0.00  0.00     0.198 A 
ATOM     11  C   UNL d   1      54.237  32.784  54.810  0.00  0.00     0.042 A 
ATOM     12  O   UNL d   1      55.232  33.468  55.594  0.00  0.00    -0.286 OA
ENDROOT
BRANCH   1  13
ATOM     13  C   UNL d   1      51.548  34.249  52.928  0.00  0.00     0.005 A 
ATOM     14  C   UNL d   1      51.630  34.220  52.115  0.00  0.00     0.000 A 
ATOM     15  C   UNL d   1      50.958  34.222  51.622  0.00  0.00     0.000 A 
ATOM     16  C   UNL d   1      50.212  34.254  51.972  0.00  0.00     0.000 A 
ATOM     17  C   UNL d   1      50.131  34.283  52.785  0.00  0.00     0.000 A 
ATOM     18  C   UNL d   1      50.793  34.281  53.277  0.00  0.00     0.000 A 
ENDBRANCH   1  13
TORSDOF 1
ENDMDL
MODEL 2
REMARK VINA RESULT:     -10.1      1.576      3.096
REMARK  1 active torsions:
REMARK  status: ('A' for Active; 'I' for Inactive)
REMARK    1  A    between atoms: C_9  and  C_1 
ROOT
ATOM      1  C   UNL d   1      53.272  32.288  53.837  0.00  0.00     0.064 A 
ATOM      2  C   UNL d   1      52.958  32.901  53.371  0.00  0.00     0.199 A 
ATOM      3  C   UNL d   1      52.980  33.679  53.665  0.00  0.00     0.062 A 
ATOM      4  C   UNL d   1      53.598  32.447  54.574  0.00  0.00     0.126 A 
ATOM      5  C   UNL d   1      53.306  33.839  54.402  0.00  0.00     0.106 A 
ATOM      6  O   UNL d   1      53.617  33.223  54.861  0.00  0.00    -0.305 OA
ATOM      7  C   UNL d   1      52.668  34.286  53.200  0.00  0.00     0.009 A 
ATOM      8  C   UNL d   1      53.327  34.608  54.689  0.00  0.00     0.067 A 
ATOM      9  O   UNL d   1      52.634  32.743  52.637  0.00  0.00    -0.286 OA
ATOM     10  C   UNL d   1      53.017  35.223  54.231  0.00  0.00     0.198 A 
ATOM     11  C   UNL d   1      52.690  35.064  53.494  0.00  0.00     0.042 A 
ATOM     12  O   UNL d   1      53.032  36.019  54.515  0.00  0.00    -0.286 OA
ENDROOT
BRANCH   1  13
ATOM     13  C   UNL d   1      53.249  31.514  53.543  0.00  0.00     0.005 A 
ATOM     14  C   UNL d   1      52.534  31.143  53.398  0.00  0.00     0.000 A 
ATOM     15  C   UNL d   1      52.513  30.365  53.103  0.00  0.00     0.000 A 
ATOM     16  C   UNL d   1      53.228  29.978  52.960  0.00  0.00     0.000 A 
ATOM     17  C   UNL d   1      53.942  30.349  53.104  0.00  0.00     0.000 A 
ATOM     18  C   UNL d   1      53.967  31.120  53.397  0.00  0.00     0.000 A 
ENDBRANCH   1  13
TORSDOF 1
ENDMDL
MODEL 3
REMARK VINA RESULT:      -9.5      1.745      3.067
REMARK  1 active torsions:
REMARK  status: ('A' for Active; 'I' for Inactive)
REMARK    1  A    between atoms: C_9  and  C_1 
ROOT
ATOM      1  C   UNL d   1      52.754  33.039  53.572  0.00  0.00     0.064 A 
ATOM      2  C   UNL d   1      53.354  32.487  53.738  0.00  0.00     0.199 A 
ATOM      3  C   UNL d   1      53.227  31.687  53.547  0.00  0.00     0.062 A 
ATOM      4  C   UNL d   1      52.048  32.798  53.226  0.00  0.00     0.126 A 
ATOM      5  C   UNL d   1      52.522  31.446  53.201  0.00  0.00     0.106 A 
ATOM      6  O   UNL d   1      51.929  32.000  53.039  0.00  0.00    -0.305 OA
ATOM      7  C   UNL d   1      53.825  31.143  53.713  0.00  0.00     0.009 A 
ATOM      8  C   UNL d   1      52.400  30.656  53.014  0.00  0.00     0.067 A 
ATOM      9  O   UNL d   1      54.056  32.727  54.082  0.00  0.00    -0.286 OA
ATOM     10  C   UNL d   1      52.993  30.102  53.177  0.00  0.00     0.198 A 
ATOM     11  C   UNL d   1      53.699  30.343  53.523  0.00  0.00     0.042 A 
ATOM     12  O   UNL d   1      52.880  29.286  52.989  0.00  0.00    -0.286 OA
ENDROOT
BRANCH   1  13
ATOM     13  C   UNL d   1      52.881  33.835  53.762  0.00  0.00     0.005 A 
ATOM     14  C   UNL d   1      52.961  34.070  54.541  0.00  0.00     0.000 A 
ATOM     15  C   UNL d   1      53.090  34.871  54.730  0.00  0.00     0.000 A 
ATOM     16  C   UNL d   1      53.134  35.419  54.116  0.00  0.00     0.000 A 
ATOM     17  C   UNL d   1      53.054  35.183  53.337  0.00  0.00     0.000 A 
ATOM     18  C   UNL d   1      52.927  34.391  53.145  0.00  0.00     0.000 A 
ENDBRANCH   1  13
TORSDOF 1
ENDMDL
MODEL 4
REMARK VINA RESULT:      -9.3      2.681      3.165
REMARK  1 active torsions:
REMARK  status: ('A' for Active; 'I' for Inactive)
REMARK    1  A    between atoms: C_9  and  C_1 
ROOT
ATOM      1  C   UNL d   1      53.847  31.663  53.681  0.00  0.00     0.064 A 
ATOM      2  C   UNL d   1      53.827  31.946  54.462  0.00  0.00     0.199 A 
ATOM      3  C   UNL d   1      54.269  32.623  54.655  0.00  0.00     0.062 A 
ATOM      4  C   UNL d   1      54.295  32.046  53.108  0.00  0.00     0.126 A 
ATOM      5  C   UNL d   1      54.717  33.007  54.082  0.00  0.00     0.106 A 
ATOM      6  O   UNL d   1      54.733  32.720  53.306  0.00  0.00    -0.305 OA
ATOM      7  C   UNL d   1      54.248  32.902  55.432  0.00  0.00     0.009 A 
ATOM      8  C   UNL d   1      55.153  33.676  54.276  0.00  0.00     0.067 A 
ATOM      9  O   UNL d   1      53.381  31.564  55.032  0.00  0.00    -0.286 OA
ATOM     10  C   UNL d   1      55.138  33.963  55.052  0.00  0.00     0.198 A 
ATOM     11  C   UNL d   1      54.689  33.579  55.624  0.00  0.00     0.042 A 
ATOM     12  O   UNL d   1      55.581  34.650  55.264  0.00  0.00    -0.286 OA
ENDROOT
BRANCH   1  13
ATOM     13  C   UNL d   1      53.406  30.988  53.491  0.00  0.00     0.005 A 
ATOM     14  C   UNL d   1      53.675  30.242  53.694  0.00  0.00     0.000 A 
ATOM     15  C   UNL d   1      53.230  29.565  53.502  0.00  0.00     0.000 A 
ATOM     16  C   UNL d   1      52.514  29.663  53.104  0.00  0.00     0.000 A 
ATOM     17  C   UNL d   1      52.246  30.408  52.900  0.00  0.00     0.000 A 
ATOM     18  C   UNL d   1      52.683  31.082  53.088  0.00  0.00     0.000 A 
ENDBRANCH   1  13
TORSDOF 1
ENDMDL
MODEL 5
REMARK VINA RESULT:      -9.1      1.000      3.864
REMARK  1 active torsions:
REMARK  status: ('A' for Active; 'I' for Inactive)
REMARK    1  A    between atoms: C_9  and  C_1 
ROOT
ATOM      1  C   UNL d   1      53.110  33.357  53.867  0.00  0.00     0.064 A 
ATOM      2  C   UNL d   1      52.692  34.068  53.764  0.00  0.00     0.199 A 
ATOM      3  C   UNL d   1      51.959  34.049  53.371  0.00  0.00     0.062 A 
ATOM      4  C   UNL d   1      52.804  32.647  53.587  0.00  0.00     0.126 A 
ATOM      5  C   UNL d   1      51.653  33.340  53.091  0.00  0.00     0.106 A 
ATOM      6  O   UNL d   1      52.074  32.635  53.197  0.00  0.00    -0.305 OA
ATOM      7  C   UNL d   1      51.546  34.757  53.270  0.00  0.00     0.009 A 
ATOM      8  C   UNL d   1      50.928  33.324  52.703  0.00  0.00     0.067 A 
ATOM      9  O   UNL d   1      52.996  34.774  54.043  0.00  0.00    -0.286 OA
ATOM     10  C   UNL d   1      50.507  34.029  52.597  0.00  0.00     0.198 A 
ATOM     11  C   UNL d   1      50.813  34.738  52.878  0.00  0.00     0.042 A 
ATOM     12  O   UNL d   1      49.761  34.026  52.201  0.00  0.00    -0.286 OA
ENDROOT
BRANCH   1  13
ATOM     13  C   UNL d   1      53.840  33.378  54.258  0.00  0.00     0.005 A 
ATOM     14  C   UNL d   1      53.876  33.383  55.075  0.00  0.00     0.000 A 
ATOM     15  C   UNL d   1      54.610  33.404  55.466  0.00  0.00     0.000 A 
ATOM     16  C   UNL d   1      55.299  33.419  55.012  0.00  0.00     0.000 A 
ATOM     17  C   UNL d   1      55.263  33.414  54.195  0.00  0.00     0.000 A 
ATOM     18  C   UNL d   1      54.537  33.393  53.804  0.00  0.00     0.000 A 
ENDBRANCH   1  13
TORSDOF 1
ENDMDL
MODEL 6
REMARK VINA RESULT:      -8.4      2.188      3.734
REMARK  1 active torsions:
REMARK  status: ('A' for Active; 'I' for Inactive)
REMARK    1  A    between atoms: C_9  and  C_1 
ROOT
ATOM      1  C   UNL d   1      53.605  32.288  54.288  0.00  0.00     0.064 A 
ATOM      2  C   UNL d   1      53.394  32.047  53.520  0.00  0.00     0.199 A 
ATOM      3  C   UNL d   1      53.229  31.244  53.382  0.00  0.00     0.062 A 
ATOM      4  C   UNL d   1      53.650  31.740  54.899  0.00  0.00     0.126 A 
ATOM      5  C   UNL d   1      53.274  30.697  53.994  0.00  0.00     0.106 A 
ATOM      6  O   UNL d   1      53.485  30.942  54.756  0.00  0.00    -0.305 OA
ATOM      7  C   UNL d   1      53.020  31.009  52.619  0.00  0.00     0.009 A 
ATOM      8  C   UNL d   1      53.111  29.904  53.854  0.00  0.00     0.067 A 
ATOM      9  O   UNL d   1      53.349  32.592  52.911  0.00  0.00    -0.286 OA
ATOM     10  C   UNL d   1      52.901  29.658  53.093  0.00  0.00     0.198 A 
ATOM     11  C   UNL d   1      52.855  30.205  52.481  0.00  0.00     0.042 A 
ATOM     12  O   UNL d   1      52.730  28.845  52.936  0.00  0.00    -0.286 OA
ENDROOT
BRANCH   1  13
ATOM     13  C   UNL d   1      53.769  33.088  54.423  0.00  0.00     0.005 A 
ATOM     14  C   UNL d   1      53.168  33.643  54.421  0.00  0.00     0.000 A 
ATOM     15  C   UNL d   1      53.335  34.447  54.558  0.00  0.00     0.000 A 
ATOM     16  C   UNL d   1      54.117  34.671  54.694  0.00  0.00     0.000 A 
ATOM     17  C   UNL d   1      54.718  34.115  54.696  0.00  0.00     0.000 A 
ATOM     18  C   UNL d   1      54.557  33.318  54.561  0.00  0.00     0.000 A 
ENDBRANCH   1  13
TORSDOF 1
ENDMDL
