MODEL 1
REMARK VINA RESULT:      57.6      0.000      0.000
REMARK  7 active torsions:
REMARK  status: ('A' for Active; 'I' for Inactive)
REMARK    1  A    between atoms: S_2  and  C_1 
REMARK    2  A    between atoms: C_6  and  S_2 
REMARK    3  A    between atoms: C_24  and  C_16 
REMARK    4  A    between atoms: C_25  and  C_24 
REMARK    5  A    between atoms: C_28  and  C_25 
REMARK    6  A    between atoms: C_26  and  C_27 
REMARK    7  A    between atoms: C_27  and  C_28 
ROOT
ATOM      1  C   UNL d   1      13.746  13.679  -3.409  0.00  0.00     0.151 A 
ATOM      2  C   UNL d   1      13.120  13.346  -3.830  0.00  0.00     0.311 A 
ATOM      3  C   UNL d   1      14.088  14.382  -3.666  0.00  0.00     0.019 A 
ATOM      4  O   UNL d   1      12.835  13.716  -4.508  0.00  0.00    -0.272 OA
ATOM      5  C   UNL d   1      13.177  14.420  -4.765  0.00  0.00     0.106 A 
ATOM      6  C   UNL d   1      13.803  14.753  -4.344  0.00  0.00     0.024 A 
ATOM      7  C   UNL d   1      12.892  14.790  -5.443  0.00  0.00     0.067 A 
ATOM      8  C   UNL d   1      13.235  15.504  -5.709  0.00  0.00     0.198 A 
ATOM      9  C   UNL d   1      14.145  15.456  -4.601  0.00  0.00     0.005 A 
ATOM     10  C   UNL d   1      13.861  15.837  -5.287  0.00  0.00     0.039 A 
ATOM     11  O   UNL d   1      12.771  12.630  -3.569  0.00  0.00    -0.258 OA
ATOM     12  O   UNL d   1      12.950  15.874  -6.387  0.00  0.00    -0.286 OA
ENDROOT
BRANCH   1  13
ATOM     13  S   UNL d   1      14.030  13.299  -2.723  0.00  0.00     0.215 S 
ATOM     14  O   UNL d   1      14.384  12.711  -3.197  0.00  0.00    -0.217 OA
ATOM     15  O   UNL d   1      13.678  13.884  -2.250  0.00  0.00    -0.217 OA
BRANCH  13  16
ATOM     16  C   UNL d   1      14.313  12.919  -2.050  0.00  0.00     0.089 A 
ATOM     17  C   UNL d   1      14.863  13.298  -1.562  0.00  0.00     0.025 A 
ATOM     18  C   UNL d   1      15.152  12.918  -0.882  0.00  0.00     0.086 A 
ATOM     19 CL   UNL d   1      15.700  13.297  -0.398  0.00  0.00    -0.080 Cl
ATOM     20  C   UNL d   1      14.887  12.160  -0.693  0.00  0.00     0.151 A 
ATOM     21  C   UNL d   1      14.339  11.782  -1.178  0.00  0.00     0.031 A 
ATOM     22  F   UNL d   1      15.174  11.781  -0.016  0.00  0.00    -0.203 F 
ATOM     23  C   UNL d   1      14.056  12.161  -1.851  0.00  0.00     0.014 A 
ENDBRANCH  13  16
ENDBRANCH   1  13
BRANCH  10  24
ATOM     24  C   UNL d   1      14.203  16.546  -5.550  0.00  0.00     0.003 C 
BRANCH  24  25
ATOM     25  C   UNL d   1      13.741  17.127  -5.910  0.00  0.00     0.000 C 
BRANCH  25  26
ATOM     26  C   UNL d   1      14.080  17.837  -6.153  0.00  0.00     0.000 C 
BRANCH  26  27
ATOM     27  C   UNL d   1      13.668  18.548  -6.078  0.00  0.00     0.000 C 
BRANCH  27  28
ATOM     28  C   UNL d   1      14.064  19.250  -5.892  0.00  0.00     0.000 C 
ATOM     29  C   UNL d   1      13.990  19.908  -6.376  0.00  0.00     0.000 C 
ENDBRANCH  27  28
ENDBRANCH  26  27
ENDBRANCH  25  26
ENDBRANCH  24  25
ENDBRANCH  10  24
TORSDOF 7
ENDMDL
MODEL 2
REMARK VINA RESULT:      59.0      2.868      5.477
REMARK  7 active torsions:
REMARK  status: ('A' for Active; 'I' for Inactive)
REMARK    1  A    between atoms: S_2  and  C_1 
REMARK    2  A    between atoms: C_6  and  S_2 
REMARK    3  A    between atoms: C_24  and  C_16 
REMARK    4  A    between atoms: C_25  and  C_24 
REMARK    5  A    between atoms: C_28  and  C_25 
REMARK    6  A    between atoms: C_26  and  C_27 
REMARK    7  A    between atoms: C_27  and  C_28 
ROOT
ATOM      1  C   UNL d   1      14.876  15.526  -2.095  0.00  0.00     0.151 A 
ATOM      2  C   UNL d   1      14.974  15.716  -1.298  0.00  0.00     0.311 A 
ATOM      3  C   UNL d   1      14.754  14.744  -2.320  0.00  0.00     0.019 A 
ATOM      4  O   UNL d   1      14.951  15.124  -0.727  0.00  0.00    -0.272 OA
ATOM      5  C   UNL d   1      14.829  14.341  -0.953  0.00  0.00     0.106 A 
ATOM      6  C   UNL d   1      14.730  14.151  -1.750  0.00  0.00     0.024 A 
ATOM      7  C   UNL d   1      14.805  13.749  -0.382  0.00  0.00     0.067 A 
ATOM      8  C   UNL d   1      14.682  12.954  -0.605  0.00  0.00     0.198 A 
ATOM      9  C   UNL d   1      14.609  13.369  -1.975  0.00  0.00     0.005 A 
ATOM     10  C   UNL d   1      14.583  12.764  -1.401  0.00  0.00     0.039 A 
ATOM     11  O   UNL d   1      15.099  16.512  -1.067  0.00  0.00    -0.258 OA
ATOM     12  O   UNL d   1      14.658  12.362  -0.033  0.00  0.00    -0.286 OA
ENDROOT
BRANCH   1  13
ATOM     13  S   UNL d   1      14.901  16.131  -2.669  0.00  0.00     0.215 S 
ATOM     14  O   UNL d   1      15.728  16.187  -2.572  0.00  0.00    -0.217 OA
ATOM     15  O   UNL d   1      14.079  16.077  -2.766  0.00  0.00    -0.217 OA
BRANCH  13  16
ATOM     16  C   UNL d   1      14.933  16.728  -3.234  0.00  0.00     0.089 A 
ATOM     17  C   UNL d   1      15.187  16.556  -4.003  0.00  0.00     0.025 A 
ATOM     18  C   UNL d   1      15.220  17.156  -4.576  0.00  0.00     0.086 A 
ATOM     19 CL   UNL d   1      15.473  16.983  -5.341  0.00  0.00    -0.080 Cl
ATOM     20  C   UNL d   1      15.000  17.926  -4.378  0.00  0.00     0.151 A 
ATOM     21  C   UNL d   1      14.747  18.098  -3.613  0.00  0.00     0.031 A 
ATOM     22  F   UNL d   1      15.033  18.524  -4.948  0.00  0.00    -0.203 F 
ATOM     23  C   UNL d   1      14.715  17.502  -3.048  0.00  0.00     0.014 A 
ENDBRANCH  13  16
ENDBRANCH   1  13
BRANCH  10  24
ATOM     24  C   UNL d   1      14.461  11.974  -1.625  0.00  0.00     0.003 C 
BRANCH  24  25
ATOM     25  C   UNL d   1      14.207  11.789  -2.387  0.00  0.00     0.000 C 
BRANCH  25  26
ATOM     26  C   UNL d   1      13.438  11.964  -2.624  0.00  0.00     0.000 C 
BRANCH  26  27
ATOM     27  C   UNL d   1      13.181  11.784  -3.388  0.00  0.00     0.000 C 
BRANCH  27  28
ATOM     28  C   UNL d   1      13.317  12.308  -4.014  0.00  0.00     0.000 C 
ATOM     29  C   UNL d   1      12.773  12.372  -4.625  0.00  0.00     0.000 C 
ENDBRANCH  27  28
ENDBRANCH  26  27
ENDBRANCH  25  26
ENDBRANCH  24  25
ENDBRANCH  10  24
TORSDOF 7
ENDMDL
