MODEL 1
REMARK VINA RESULT:      17.1      0.000      0.000
REMARK  2 active torsions:
REMARK  status: ('A' for Active; 'I' for Inactive)
REMARK    1  A    between atoms: S_2  and  C_1 
REMARK    2  A    between atoms: N_3  and  S_2 
ROOT
ATOM      1  C   UNL d   1     -51.404  25.902  33.343  0.00  0.00     0.125 A 
ATOM      2  C   UNL d   1     -51.709  26.699  33.350  0.00  0.00    -0.009 A 
ATOM      3  C   UNL d   1     -50.767  25.526  33.327  0.00  0.00     0.031 A 
ATOM      4  C   UNL d   1     -51.329  26.627  33.340  0.00  0.00    -0.009 A 
ATOM      5  C   UNL d   1     -50.637  27.203  33.322  0.00  0.00    -0.007 A 
ATOM      6  C   UNL d   1     -50.121  26.054  33.310  0.00  0.00     0.045 A 
ATOM      7  C   UNL d   1     -51.173  27.160  33.336  0.00  0.00    -0.007 A 
ATOM      8  C   UNL d   1     -50.018  26.838  33.306  0.00  0.00    -0.022 A 
ATOM      9  C   UNL d   1     -50.333  26.690  33.314  0.00  0.00    -0.022 A 
ATOM     10  C   UNL d   1     -50.930  28.020  33.329  0.00  0.00    -0.001 A 
ENDROOT
BRANCH   1  11
ATOM     11  S   UNL d   1     -51.628  24.878  33.350  0.00  0.00     0.142 S 
ATOM     12  O   UNL d   1     -50.882  24.507  33.316  0.00  0.00    -0.233 OA
BRANCH  11  13
ATOM     13  N   UNL d   1     -52.297  24.440  33.378  0.00  0.00    -0.251 N 
ATOM     14  C   UNL d   1     -53.022  24.806  33.307  0.00  0.00     0.108 A 
ATOM     15  C   UNL d   1     -53.729  24.326  33.339  0.00  0.00     0.100 A 
ATOM     16  N   UNL d   1     -53.671  23.534  33.436  0.00  0.00    -0.299 N 
ATOM     17  C   UNL d   1     -52.916  23.188  33.504  0.00  0.00     0.100 A 
ATOM     18  C   UNL d   1     -54.474  23.254  33.440  0.00  0.00     0.100 C 
ATOM     19  C   UNL d   1     -52.237  23.642  33.475  0.00  0.00     0.108 A 
ENDBRANCH  11  13
ENDBRANCH   1  11
TORSDOF 2
ENDMDL
MODEL 2
REMARK VINA RESULT:      17.6      1.136      3.632
REMARK  2 active torsions:
REMARK  status: ('A' for Active; 'I' for Inactive)
REMARK    1  A    between atoms: S_2  and  C_1 
REMARK    2  A    between atoms: N_3  and  S_2 
ROOT
ATOM      1  C   UNL d   1     -51.987  24.799  33.365  0.00  0.00     0.125 A 
ATOM      2  C   UNL d   1     -52.840  24.836  33.378  0.00  0.00    -0.009 A 
ATOM      3  C   UNL d   1     -51.429  24.314  33.337  0.00  0.00     0.031 A 
ATOM      4  C   UNL d   1     -52.652  24.498  33.362  0.00  0.00    -0.009 A 
ATOM      5  C   UNL d   1     -52.979  23.660  33.333  0.00  0.00    -0.007 A 
ATOM      6  C   UNL d   1     -51.726  23.535  33.310  0.00  0.00     0.045 A 
ATOM      7  C   UNL d   1     -53.108  24.182  33.356  0.00  0.00    -0.007 A 
ATOM      8  C   UNL d   1     -52.438  23.189  33.306  0.00  0.00    -0.022 A 
ATOM      9  C   UNL d   1     -52.397  23.535  33.320  0.00  0.00    -0.022 A 
ATOM     10  C   UNL d   1     -53.848  23.679  33.346  0.00  0.00    -0.001 A 
ENDROOT
BRANCH   1  11
ATOM     11  S   UNL d   1     -51.087  25.335  33.374  0.00  0.00     0.142 S 
ATOM     12  O   UNL d   1     -50.499  24.744  33.404  0.00  0.00    -0.233 OA
BRANCH  11  13
ATOM     13  N   UNL d   1     -50.882  26.108  33.359  0.00  0.00    -0.251 N 
ATOM     14  C   UNL d   1     -51.465  26.678  33.330  0.00  0.00     0.108 A 
ATOM     15  C   UNL d   1     -51.232  27.502  33.314  0.00  0.00     0.100 A 
ATOM     16  N   UNL d   1     -50.457  27.699  33.328  0.00  0.00    -0.299 N 
ATOM     17  C   UNL d   1     -49.885  27.094  33.358  0.00  0.00     0.100 A 
ATOM     18  C   UNL d   1     -50.447  28.549  33.307  0.00  0.00     0.100 C 
ATOM     19  C   UNL d   1     -50.101  26.306  33.373  0.00  0.00     0.108 A 
ENDBRANCH  11  13
ENDBRANCH   1  11
TORSDOF 2
ENDMDL
