MODEL 1
REMARK VINA RESULT:      50.5      0.000      0.000
REMARK  5 active torsions:
REMARK  status: ('A' for Active; 'I' for Inactive)
REMARK    1  A    between atoms: S_10  and  C_5 
REMARK    2  A    between atoms: C_14  and  N_9 
REMARK    3  A    between atoms: C_17  and  S_10 
REMARK    4  A    between atoms: C_15  and  C_14 
REMARK    5  A    between atoms: C_19  and  C_17 
ROOT
ATOM      1  C   UNL d   1     -54.890-100.750 -42.584  0.00  0.00     0.174 A 
ATOM      2  N   UNL d   1     -54.904 -99.971 -42.823  0.00  0.00    -0.203 NA
ATOM      3  C   UNL d   1     -54.984-101.222 -43.254  0.00  0.00     0.159 A 
ATOM      4  N   UNL d   1     -54.805-101.105 -41.853  0.00  0.00    -0.239 N 
ATOM      5  C   UNL d   1     -55.007 -99.968 -43.642  0.00  0.00     0.181 A 
ATOM      6  C   UNL d   1     -54.811-101.938 -41.757  0.00  0.00     0.358 A 
ATOM      7  N   UNL d   1     -54.905-102.410 -42.427  0.00  0.00    -0.152 NA
ATOM      8  C   UNL d   1     -54.993-102.050 -43.193  0.00  0.00     0.302 A 
ATOM      9  N   UNL d   1     -55.066-100.717 -43.989  0.00  0.00    -0.279 N 
ATOM     10  O   UNL d   1     -54.726-102.303 -41.019  0.00  0.00    -0.244 OA
ATOM     11  O   UNL d   1     -55.087-102.522 -43.862  0.00  0.00    -0.263 OA
ATOM     12  C   UNL d   1     -54.712-100.633 -41.183  0.00  0.00     0.105 C 
ENDROOT
BRANCH   5  13
ATOM     13  S   UNL d   1     -55.026 -99.202 -43.919  0.00  0.00    -0.049 SA
BRANCH  13  14
ATOM     14  C   UNL d   1     -55.460 -98.798 -44.490  0.00  0.00     0.038 C 
BRANCH  14  15
ATOM     15  C   UNL d   1     -56.285 -98.804 -44.464  0.00  0.00     0.007 A 
ATOM     16  C   UNL d   1     -56.719 -98.848 -45.162  0.00  0.00     0.003 A 
ATOM     17  C   UNL d   1     -57.540 -98.855 -45.140  0.00  0.00     0.030 A 
ATOM     18  C   UNL d   1     -57.934 -98.816 -44.411  0.00  0.00     0.140 A 
ATOM     19  C   UNL d   1     -57.499 -98.771 -43.714  0.00  0.00     0.030 A 
ATOM     20  F   UNL d   1     -58.758 -98.822 -44.385  0.00  0.00    -0.204 F 
ATOM     21  C   UNL d   1     -56.674 -98.765 -43.740  0.00  0.00     0.003 A 
ENDBRANCH  14  15
ENDBRANCH  13  14
ENDBRANCH   5  13
BRANCH   9  22
ATOM     22  C   UNL d   1     -55.169-100.945 -44.768  0.00  0.00     0.082 C 
BRANCH  22  23
ATOM     23  C   UNL d   1     -54.714-101.565 -45.070  0.00  0.00     0.019 C 
ATOM     24  C   UNL d   1     -54.925-101.923 -45.779  0.00  0.00     0.002 C 
ENDBRANCH  22  23
ENDBRANCH   9  22
TORSDOF 5
ENDMDL
MODEL 2
REMARK VINA RESULT:      50.9      2.343      4.109
REMARK  5 active torsions:
REMARK  status: ('A' for Active; 'I' for Inactive)
REMARK    1  A    between atoms: S_10  and  C_5 
REMARK    2  A    between atoms: C_14  and  N_9 
REMARK    3  A    between atoms: C_17  and  S_10 
REMARK    4  A    between atoms: C_15  and  C_14 
REMARK    5  A    between atoms: C_19  and  C_17 
ROOT
ATOM      1  C   UNL d   1     -55.180-100.430 -43.311  0.00  0.00     0.174 A 
ATOM      2  N   UNL d   1     -55.200-100.717 -42.549  0.00  0.00    -0.203 NA
ATOM      3  C   UNL d   1     -55.187-101.076 -43.825  0.00  0.00     0.159 A 
ATOM      4  N   UNL d   1     -55.155 -99.674 -43.620  0.00  0.00    -0.239 N 
ATOM      5  C   UNL d   1     -55.220-101.540 -42.598  0.00  0.00     0.181 A 
ATOM      6  C   UNL d   1     -55.138 -99.529 -44.446  0.00  0.00     0.358 A 
ATOM      7  N   UNL d   1     -55.146-100.174 -44.960  0.00  0.00    -0.152 NA
ATOM      8  C   UNL d   1     -55.171-100.965 -44.647  0.00  0.00     0.302 A 
ATOM      9  N   UNL d   1     -55.214-101.845 -43.367  0.00  0.00    -0.279 N 
ATOM     10  O   UNL d   1     -55.113 -98.765 -44.764  0.00  0.00    -0.244 OA
ATOM     11  O   UNL d   1     -55.179-101.611 -45.161  0.00  0.00    -0.263 OA
ATOM     12  C   UNL d   1     -55.148 -99.028 -43.107  0.00  0.00     0.105 C 
ENDROOT
BRANCH   5  13
ATOM     13  S   UNL d   1     -55.240-101.864 -41.850  0.00  0.00    -0.049 SA
BRANCH  13  14
ATOM     14  C   UNL d   1     -54.712-101.912 -41.219  0.00  0.00     0.038 C 
BRANCH  14  15
ATOM     15  C   UNL d   1     -54.992-102.048 -40.455  0.00  0.00     0.007 A 
ATOM     16  C   UNL d   1     -55.403-102.740 -40.284  0.00  0.00     0.003 A 
ATOM     17  C   UNL d   1     -55.683-102.879 -39.525  0.00  0.00     0.030 A 
ATOM     18  C   UNL d   1     -55.551-102.320 -38.927  0.00  0.00     0.140 A 
ATOM     19  C   UNL d   1     -55.139-101.628 -39.099  0.00  0.00     0.030 A 
ATOM     20  F   UNL d   1     -55.830-102.456 -38.163  0.00  0.00    -0.204 F 
ATOM     21  C   UNL d   1     -54.859-101.492 -39.863  0.00  0.00     0.003 A 
ENDBRANCH  14  15
ENDBRANCH  13  14
ENDBRANCH   5  13
BRANCH   9  22
ATOM     22  C   UNL d   1     -55.229-102.615 -43.644  0.00  0.00     0.082 C 
BRANCH  22  23
ATOM     23  C   UNL d   1     -54.713-102.836 -44.249  0.00  0.00     0.019 C 
ATOM     24  C   UNL d   1     -54.831-102.556 -45.013  0.00  0.00     0.002 C 
ENDBRANCH  22  23
ENDBRANCH   9  22
TORSDOF 5
ENDMDL
