MODEL 1
REMARK VINA RESULT:      60.2      0.000      0.000
REMARK  6 active torsions:
REMARK  status: ('A' for Active; 'I' for Inactive)
REMARK    1  A    between atoms: C_21  and  N_1 
REMARK       I    between atoms: N_7  and  C_10 
REMARK    2  A    between atoms: C_15  and  N_8 
REMARK    3  A    between atoms: C_10  and  C_27 
REMARK    4  A    between atoms: C_29  and  C_21 
REMARK    5  A    between atoms: O_28  and  C_24 
REMARK    6  A    between atoms: C_27  and  C_29 
ROOT
ATOM      1  N   UNL d   1      13.822  15.134  -4.997  0.00  0.00    -0.269 N 
ATOM      2  N   UNL d   1      14.025  16.715  -5.354  0.00  0.00    -0.301 N 
ATOM      3  C   UNL d   1      13.719  14.327  -4.806  0.00  0.00     0.265 C 
ATOM      4  C   UNL d   1      13.786  15.372  -5.776  0.00  0.00     0.102 A 
ATOM      5  C   UNL d   1      13.957  15.665  -4.385  0.00  0.00     0.102 A 
ATOM      6  C   UNL d   1      13.888  16.170  -5.966  0.00  0.00     0.100 A 
ATOM      7  C   UNL d   1      14.060  16.473  -4.576  0.00  0.00     0.100 A 
ATOM      8  O   UNL d   1      13.580  13.765  -5.402  0.00  0.00    -0.267 OA
ENDROOT
BRANCH   3   9
ATOM      9  C   UNL d   1      13.758  14.103  -4.005  0.00  0.00     0.063 C 
BRANCH   9  10
ATOM     10  C   UNL d   1      13.535  13.320  -3.802  0.00  0.00     0.024 C 
BRANCH  10  11
ATOM     11  C   UNL d   1      14.110  12.814  -3.464  0.00  0.00     0.088 C 
BRANCH  11  12
ATOM     12  N   UNL d   1      14.020  12.550  -2.677  0.00  0.00    -0.224 N 
ATOM     13  C   UNL d   1      14.559  12.789  -2.083  0.00  0.00     0.276 A 
ATOM     14  C   UNL d   1      14.456  12.520  -1.310  0.00  0.00     0.104 A 
ATOM     15  O   UNL d   1      15.175  13.282  -2.273  0.00  0.00    -0.266 OA
ATOM     16  S   UNL d   1      14.888  12.658  -0.624  0.00  0.00    -0.080 SA
ATOM     17  C   UNL d   1      13.828  12.018  -1.117  0.00  0.00     0.097 A 
ATOM     18  C   UNL d   1      14.528  12.248  -0.028  0.00  0.00     0.037 A 
ATOM     19  C   UNL d   1      13.873  11.849  -0.318  0.00  0.00     0.027 A 
ATOM     20  N   UNL d   1      13.297  11.783  -1.703  0.00  0.00    -0.191 NA
ATOM     21  C   UNL d   1      13.388  12.044  -2.479  0.00  0.00     0.356 A 
ATOM     22  O   UNL d   1      12.854  11.810  -3.078  0.00  0.00    -0.244 OA
ENDBRANCH  11  12
ENDBRANCH  10  11
ENDBRANCH   9  10
ENDBRANCH   3   9
BRANCH   2  23
ATOM     23  C   UNL d   1      14.129  17.517  -5.529  0.00  0.00     0.064 A 
ATOM     24  C   UNL d   1      14.581  18.012  -5.048  0.00  0.00     0.020 A 
ATOM     25  C   UNL d   1      14.677  18.801  -5.230  0.00  0.00     0.026 A 
ATOM     26  C   UNL d   1      14.321  19.119  -5.902  0.00  0.00     0.094 A 
ATOM     27  C   UNL d   1      13.866  18.622  -6.386  0.00  0.00     0.026 A 
ATOM     28  C   UNL d   1      13.768  17.824  -6.203  0.00  0.00     0.020 A 
BRANCH  26  29
ATOM     29  O   UNL d   1      14.401  19.917  -6.112  0.00  0.00    -0.328 OA
ATOM     30  C   UNL d   1      14.458  20.490  -5.508  0.00  0.00     0.181 C 
ENDBRANCH  26  29
ENDBRANCH   2  23
TORSDOF 6
ENDMDL
MODEL 2
REMARK VINA RESULT:      62.6      1.203      2.180
REMARK  6 active torsions:
REMARK  status: ('A' for Active; 'I' for Inactive)
REMARK    1  A    between atoms: C_21  and  N_1 
REMARK       I    between atoms: N_7  and  C_10 
REMARK    2  A    between atoms: C_15  and  N_8 
REMARK    3  A    between atoms: C_10  and  C_27 
REMARK    4  A    between atoms: C_29  and  C_21 
REMARK    5  A    between atoms: O_28  and  C_24 
REMARK    6  A    between atoms: C_27  and  C_29 
ROOT
ATOM      1  N   UNL d   1      13.196  13.199  -4.027  0.00  0.00    -0.269 N 
ATOM      2  N   UNL d   1      13.567  14.679  -4.608  0.00  0.00    -0.301 N 
ATOM      3  C   UNL d   1      13.005  12.445  -3.722  0.00  0.00     0.265 C 
ATOM      4  C   UNL d   1      13.360  13.282  -4.821  0.00  0.00     0.102 A 
ATOM      5  C   UNL d   1      13.211  13.837  -3.510  0.00  0.00     0.102 A 
ATOM      6  C   UNL d   1      13.549  14.029  -5.124  0.00  0.00     0.100 A 
ATOM      7  C   UNL d   1      13.402  14.591  -3.815  0.00  0.00     0.100 A 
ATOM      8  O   UNL d   1      12.981  11.780  -4.219  0.00  0.00    -0.267 OA
ENDROOT
BRANCH   3   9
ATOM      9  C   UNL d   1      12.840  12.379  -2.908  0.00  0.00     0.063 C 
BRANCH   9  10
ATOM     10  C   UNL d   1      13.234  11.780  -2.472  0.00  0.00     0.024 C 
BRANCH  10  11
ATOM     11  C   UNL d   1      13.194  11.800  -1.636  0.00  0.00     0.088 C 
BRANCH  11  12
ATOM     12  N   UNL d   1      13.811  12.157  -1.199  0.00  0.00    -0.224 N 
ATOM     13  C   UNL d   1      14.597  12.145  -1.484  0.00  0.00     0.276 A 
ATOM     14  C   UNL d   1      15.195  12.502  -1.040  0.00  0.00     0.104 A 
ATOM     15  O   UNL d   1      14.764  11.784  -2.192  0.00  0.00    -0.266 OA
ATOM     16  S   UNL d   1      16.002  12.577  -1.176  0.00  0.00    -0.080 SA
ATOM     17  C   UNL d   1      15.024  12.869  -0.319  0.00  0.00     0.097 A 
ATOM     18  C   UNL d   1      16.314  12.981  -0.550  0.00  0.00     0.037 A 
ATOM     19  C   UNL d   1      15.722  13.168  -0.014  0.00  0.00     0.027 A 
ATOM     20  N   UNL d   1      14.249  12.880  -0.039  0.00  0.00    -0.191 NA
ATOM     21  C   UNL d   1      13.642  12.528  -0.472  0.00  0.00     0.356 A 
ATOM     22  O   UNL d   1      12.854  12.535  -0.194  0.00  0.00    -0.244 OA
ENDBRANCH  11  12
ENDBRANCH  10  11
ENDBRANCH   9  10
ENDBRANCH   3   9
BRANCH   2  23
ATOM     23  C   UNL d   1      13.754  15.432  -4.897  0.00  0.00     0.064 A 
ATOM     24  C   UNL d   1      13.388  15.744  -5.567  0.00  0.00     0.020 A 
ATOM     25  C   UNL d   1      13.581  16.486  -5.843  0.00  0.00     0.026 A 
ATOM     26  C   UNL d   1      14.148  16.941  -5.455  0.00  0.00     0.094 A 
ATOM     27  C   UNL d   1      14.518  16.627  -4.781  0.00  0.00     0.026 A 
ATOM     28  C   UNL d   1      14.324  15.877  -4.501  0.00  0.00     0.020 A 
BRANCH  26  29
ATOM     29  O   UNL d   1      14.364  17.698  -5.713  0.00  0.00    -0.328 OA
ATOM     30  C   UNL d   1      13.869  18.097  -6.253  0.00  0.00     0.181 C 
ENDBRANCH  26  29
ENDBRANCH   2  23
TORSDOF 6
ENDMDL
