MODEL 1
REMARK VINA RESULT:      29.7      0.000      0.000
REMARK  5 active torsions:
REMARK  status: ('A' for Active; 'I' for Inactive)
REMARK    1  A    between atoms: C_2  and  S_1 
REMARK    2  A    between atoms: N_4  and  S_1 
REMARK    3  A    between atoms: C_3  and  N_5 
REMARK    4  A    between atoms: O_26  and  C_14 
REMARK    5  A    between atoms: O_27  and  C_24 
ROOT
ATOM      1  N   UNL d   1      45.680 -16.160  43.840  0.00  0.00    -0.226 N 
ATOM      2  N   UNL d   1      46.045 -17.739  43.567  0.00  0.00    -0.319 N 
ATOM      3  C   UNL d   1      46.208 -16.551  44.336  0.00  0.00     0.110 A 
ATOM      4  C   UNL d   1      45.334 -16.555  43.209  0.00  0.00     0.110 A 
ATOM      5  C   UNL d   1      45.511 -17.344  43.067  0.00  0.00     0.096 A 
ATOM      6  C   UNL d   1      46.392 -17.348  44.198  0.00  0.00     0.096 A 
ENDROOT
BRANCH   1   7
ATOM      7  S   UNL d   1      45.497 -15.367  43.977  0.00  0.00     0.273 S 
ATOM      8  O   UNL d   1      44.776 -15.481  43.592  0.00  0.00    -0.200 OA
ATOM      9  O   UNL d   1      46.216 -15.246  44.364  0.00  0.00    -0.200 OA
BRANCH   7  10
ATOM     10  C   UNL d   1      45.292 -14.578  44.103  0.00  0.00     0.128 A 
ATOM     11  C   UNL d   1      44.579 -14.402  44.462  0.00  0.00     0.039 A 
ATOM     12  C   UNL d   1      44.364 -13.616  44.593  0.00  0.00     0.095 A 
ATOM     13  C   UNL d   1      44.872 -13.007  44.359  0.00  0.00     0.026 A 
ATOM     14  C   UNL d   1      45.594 -13.189  43.995  0.00  0.00     0.027 A 
ATOM     15  C   UNL d   1      45.802 -13.977  43.867  0.00  0.00     0.106 A 
BRANCH  12  16
ATOM     16  O   UNL d   1      43.649 -13.433  44.954  0.00  0.00    -0.328 OA
ATOM     17  C   UNL d   1      43.028 -13.979  44.932  0.00  0.00     0.181 C 
ENDBRANCH  12  16
BRANCH  15  18
ATOM     18  O   UNL d   1      46.518 -14.165  43.506  0.00  0.00    -0.327 OA
ATOM     19  C   UNL d   1      46.641 -13.957  42.716  0.00  0.00     0.181 C 
ENDBRANCH  15  18
ENDBRANCH   7  10
ENDBRANCH   1   7
BRANCH   2  20
ATOM     20  C   UNL d   1      46.220 -18.531  43.421  0.00  0.00     0.107 A 
ATOM     21  C   UNL d   1      46.300 -18.629  42.670  0.00  0.00    -0.002 A 
ATOM     22  C   UNL d   1      46.471 -19.397  42.523  0.00  0.00    -0.006 A 
ATOM     23  C   UNL d   1      46.501 -19.790  43.171  0.00  0.00    -0.022 A 
ATOM     24  C   UNL d   1      46.642 -19.933  41.766  0.00  0.00    -0.001 A 
ATOM     25  C   UNL d   1      46.434 -19.760  43.936  0.00  0.00     0.046 A 
ATOM     26  C   UNL d   1      46.258 -18.970  44.095  0.00  0.00     0.038 A 
ATOM     27  C   UNL d   1      46.599 -20.305  43.274  0.00  0.00    -0.022 A 
ATOM     28  C   UNL d   1      46.564 -19.874  42.600  0.00  0.00    -0.006 A 
ATOM     29  C   UNL d   1      46.383 -19.057  42.750  0.00  0.00    -0.002 A 
ENDBRANCH   2  20
TORSDOF 5
ENDMDL
MODEL 2
REMARK VINA RESULT:      29.9      0.867      1.719
REMARK  5 active torsions:
REMARK  status: ('A' for Active; 'I' for Inactive)
REMARK    1  A    between atoms: C_2  and  S_1 
REMARK    2  A    between atoms: N_4  and  S_1 
REMARK    3  A    between atoms: C_3  and  N_5 
REMARK    4  A    between atoms: O_26  and  C_14 
REMARK    5  A    between atoms: O_27  and  C_24 
ROOT
ATOM      1  N   UNL d   1      45.384 -15.837  44.091  0.00  0.00    -0.226 N 
ATOM      2  N   UNL d   1      45.854 -17.384  43.801  0.00  0.00    -0.319 N 
ATOM      3  C   UNL d   1      45.179 -16.434  44.618  0.00  0.00     0.110 A 
ATOM      4  C   UNL d   1      45.824 -16.011  43.419  0.00  0.00     0.110 A 
ATOM      5  C   UNL d   1      46.062 -16.781  43.267  0.00  0.00     0.096 A 
ATOM      6  C   UNL d   1      45.416 -17.215  44.471  0.00  0.00     0.096 A 
ENDROOT
BRANCH   1   7
ATOM      7  S   UNL d   1      45.148 -15.060  44.236  0.00  0.00     0.273 S 
ATOM      8  O   UNL d   1      45.506 -14.832  43.529  0.00  0.00    -0.200 OA
ATOM      9  O   UNL d   1      44.787 -15.280  44.945  0.00  0.00    -0.200 OA
BRANCH   7  10
ATOM     10  C   UNL d   1      44.923 -14.276  44.361  0.00  0.00     0.128 A 
ATOM     11  C   UNL d   1      45.488 -13.726  44.575  0.00  0.00     0.039 A 
ATOM     12  C   UNL d   1      45.274 -12.940  44.702  0.00  0.00     0.095 A 
ATOM     13  C   UNL d   1      44.485 -12.709  44.612  0.00  0.00     0.026 A 
ATOM     14  C   UNL d   1      43.914 -13.269  44.394  0.00  0.00     0.027 A 
ATOM     15  C   UNL d   1      44.136 -14.054  44.269  0.00  0.00     0.106 A 
BRANCH  12  16
ATOM     16  O   UNL d   1      45.838 -12.382  44.918  0.00  0.00    -0.328 OA
ATOM     17  C   UNL d   1      46.635 -12.600  44.955  0.00  0.00     0.181 C 
ENDBRANCH  12  16
BRANCH  15  18
ATOM     18  O   UNL d   1      43.573 -14.615  44.053  0.00  0.00    -0.327 OA
ATOM     19  C   UNL d   1      42.770 -14.426  44.103  0.00  0.00     0.181 C 
ENDBRANCH  15  18
ENDBRANCH   7  10
ENDBRANCH   1   7
BRANCH   2  20
ATOM     20  C   UNL d   1      46.096 -18.158  43.645  0.00  0.00     0.107 A 
ATOM     21  C   UNL d   1      46.116 -18.544  44.301  0.00  0.00    -0.002 A 
ATOM     22  C   UNL d   1      46.350 -19.295  44.154  0.00  0.00    -0.006 A 
ATOM     23  C   UNL d   1      46.480 -19.392  43.413  0.00  0.00    -0.022 A 
ATOM     24  C   UNL d   1      46.504 -20.079  44.654  0.00  0.00    -0.001 A 
ATOM     25  C   UNL d   1      46.481 -19.061  42.719  0.00  0.00     0.046 A 
ATOM     26  C   UNL d   1      46.240 -18.285  42.863  0.00  0.00     0.038 A 
ATOM     27  C   UNL d   1      46.639 -19.816  43.129  0.00  0.00    -0.022 A 
ATOM     28  C   UNL d   1      46.497 -19.695  43.908  0.00  0.00    -0.006 A 
ATOM     29  C   UNL d   1      46.248 -18.899  44.070  0.00  0.00    -0.002 A 
ENDBRANCH   2  20
TORSDOF 5
ENDMDL
