MODEL 1
REMARK VINA RESULT:      80.3      0.000      0.000
REMARK  6 active torsions:
REMARK  status: ('A' for Active; 'I' for Inactive)
REMARK    1  A    between atoms: N_2  and  S_1 
REMARK    2  A    between atoms: C_8  and  S_1 
REMARK    3  A    between atoms: C_4  and  C_3 
REMARK    4  A    between atoms: O_18  and  C_5 
REMARK    5  A    between atoms: O_20  and  C_12 
REMARK    6  A    between atoms: O_21  and  C_13 
ROOT
ATOM      1  N   UNL d   1     -55.951-100.145 -44.103  0.00  0.00    -0.127 NA
ATOM      2  C   UNL d   1     -56.239 -99.376 -44.119  0.00  0.00     0.086 A 
ATOM      3  S   UNL d   1     -55.766 -98.755 -43.865  0.00  0.00    -0.073 SA
ATOM      4  C   UNL d   1     -54.712 -99.682 -43.580  0.00  0.00     0.074 A 
ATOM      5  C   UNL d   1     -55.000 -98.912 -43.595  0.00  0.00     0.050 A 
ENDROOT
BRANCH   2   6
ATOM      6  C   UNL d   1     -57.004 -99.222 -44.389  0.00  0.00     0.042 A 
ATOM      7  C   UNL d   1     -57.138 -99.144 -45.196  0.00  0.00     0.098 A 
ATOM      8  C   UNL d   1     -57.902 -98.991 -45.458  0.00  0.00     0.050 A 
ATOM      9  C   UNL d   1     -58.521 -98.916 -44.932  0.00  0.00     0.118 A 
ATOM     10  C   UNL d   1     -58.381 -98.994 -44.122  0.00  0.00     0.117 A 
ATOM     11  C   UNL d   1     -57.620 -99.148 -43.846  0.00  0.00     0.030 A 
BRANCH   7  12
ATOM     12  O   UNL d   1     -56.522 -99.219 -45.735  0.00  0.00    -0.328 OA
ATOM     13  C   UNL d   1     -56.515 -98.755 -46.416  0.00  0.00     0.181 C 
ENDBRANCH   7  12
BRANCH   9  14
ATOM     14  O   UNL d   1     -59.279 -98.764 -45.198  0.00  0.00    -0.326 OA
ATOM     15  C   UNL d   1     -59.486 -98.924 -45.979  0.00  0.00     0.181 C 
ENDBRANCH   9  14
BRANCH  10  16
ATOM     16  O   UNL d   1     -59.000 -98.920 -43.585  0.00  0.00    -0.326 OA
ATOM     17  C   UNL d   1     -59.780 -98.948 -43.845  0.00  0.00     0.181 C 
ENDBRANCH  10  16
ENDBRANCH   2   6
BRANCH   1  18
ATOM     18  S   UNL d   1     -55.441-100.898 -44.002  0.00  0.00     0.255 S 
ATOM     19  O   UNL d   1     -54.891-101.540 -43.680  0.00  0.00    -0.205 OA
ATOM     20  O   UNL d   1     -55.205-100.623 -43.170  0.00  0.00    -0.205 OA
BRANCH  18  21
ATOM     21  C   UNL d   1     -55.502-101.391 -44.751  0.00  0.00     0.099 A 
ATOM     22  C   UNL d   1     -54.936-101.250 -45.439  0.00  0.00     0.015 A 
ATOM     23  C   UNL d   1     -54.992-101.736 -46.184  0.00  0.00     0.030 A 
ATOM     24  C   UNL d   1     -55.620-102.375 -46.253  0.00  0.00     0.140 A 
ATOM     25  C   UNL d   1     -56.193-102.525 -45.568  0.00  0.00     0.030 A 
ATOM     26  F   UNL d   1     -55.689-102.879 -47.007  0.00  0.00    -0.204 F 
ATOM     27  C   UNL d   1     -56.137-102.032 -44.810  0.00  0.00     0.015 A 
ENDBRANCH  18  21
ENDBRANCH   1  18
TORSDOF 6
ENDMDL
