MODEL 1
REMARK VINA RESULT:      -7.3      0.000      0.000
REMARK  1 active torsions:
REMARK  status: ('A' for Active; 'I' for Inactive)
REMARK    1  A    between atoms: C_6  and  C_1 
ROOT
ATOM      1  C   UNL d   1     -47.480  11.863  23.277  0.00  0.00     0.168 A 
ATOM      2  C   UNL d   1     -47.362  12.664  23.124  0.00  0.00     0.045 A 
ATOM      3  N   UNL d   1     -46.789  11.555  23.605  0.00  0.00    -0.142 NA
ATOM      4  N   UNL d   1     -46.238  12.171  23.656  0.00  0.00    -0.148 NA
ATOM      5  C   UNL d   1     -46.600  12.863  23.354  0.00  0.00     0.105 A 
ATOM      6  C   UNL d   1     -47.852  13.246  22.802  0.00  0.00     0.003 A 
ATOM      7  C   UNL d   1     -46.313  13.633  23.271  0.00  0.00     0.021 A 
ATOM      8  C   UNL d   1     -47.577  14.017  22.714  0.00  0.00     0.000 A 
ATOM      9  C   UNL d   1     -46.806  14.210  22.949  0.00  0.00     0.002 A 
ATOM     10  C   UNL d   1     -48.067  14.600  22.393  0.00  0.00     0.000 C 
ENDROOT
BRANCH   1  11
ATOM     11  C   UNL d   1     -48.171  11.441  23.127  0.00  0.00     0.231 C 
ATOM     12  O   UNL d   1     -48.273  11.048  22.405  0.00  0.00    -0.643 OA
ATOM     13  O   UNL d   1     -48.768  11.407  23.698  0.00  0.00    -0.643 OA
ENDBRANCH   1  11
TORSDOF 1
ENDMDL
MODEL 2
REMARK VINA RESULT:      -7.0      1.278      1.806
REMARK  1 active torsions:
REMARK  status: ('A' for Active; 'I' for Inactive)
REMARK    1  A    between atoms: C_6  and  C_1 
ROOT
ATOM      1  C   UNL d   1     -48.935  11.968  23.023  0.00  0.00     0.168 A 
ATOM      2  C   UNL d   1     -48.164  12.245  23.109  0.00  0.00     0.045 A 
ATOM      3  N   UNL d   1     -48.989  11.229  23.385  0.00  0.00    -0.142 NA
ATOM      4  N   UNL d   1     -48.244  11.046  23.698  0.00  0.00    -0.148 NA
ATOM      5  C   UNL d   1     -47.730  11.684  23.523  0.00  0.00     0.105 A 
ATOM      6  C   UNL d   1     -47.792  12.941  22.862  0.00  0.00     0.003 A 
ATOM      7  C   UNL d   1     -46.932  11.801  23.698  0.00  0.00     0.021 A 
ATOM      8  C   UNL d   1     -46.997  13.069  23.031  0.00  0.00     0.000 A 
ATOM      9  C   UNL d   1     -46.566  12.498  23.450  0.00  0.00     0.002 A 
ATOM     10  C   UNL d   1     -46.626  13.765  22.784  0.00  0.00     0.000 C 
ENDROOT
BRANCH   1  11
ATOM     11  C   UNL d   1     -49.549  12.363  22.641  0.00  0.00     0.231 C 
ATOM     12  O   UNL d   1     -50.037  12.883  23.062  0.00  0.00    -0.643 OA
ATOM     13  O   UNL d   1     -49.681  12.240  21.835  0.00  0.00    -0.643 OA
ENDBRANCH   1  11
TORSDOF 1
ENDMDL
MODEL 3
REMARK VINA RESULT:      -6.9      1.586      2.400
REMARK  1 active torsions:
REMARK  status: ('A' for Active; 'I' for Inactive)
REMARK    1  A    between atoms: C_6  and  C_1 
ROOT
ATOM      1  C   UNL d   1     -47.507  13.913  22.913  0.00  0.00     0.168 A 
ATOM      2  C   UNL d   1     -47.511  13.129  23.166  0.00  0.00     0.045 A 
ATOM      3  N   UNL d   1     -46.727  14.183  22.910  0.00  0.00    -0.142 NA
ATOM      4  N   UNL d   1     -46.244  13.560  23.164  0.00  0.00    -0.148 NA
ATOM      5  C   UNL d   1     -46.738  12.903  23.324  0.00  0.00     0.105 A 
ATOM      6  C   UNL d   1     -48.122  12.584  23.277  0.00  0.00     0.003 A 
ATOM      7  C   UNL d   1     -46.558  12.142  23.590  0.00  0.00     0.021 A 
ATOM      8  C   UNL d   1     -47.955  11.823  23.541  0.00  0.00     0.000 A 
ATOM      9  C   UNL d   1     -47.172  11.601  23.698  0.00  0.00     0.002 A 
ATOM     10  C   UNL d   1     -48.566  11.277  23.652  0.00  0.00     0.000 C 
ENDROOT
BRANCH   1  11
ATOM     11  C   UNL d   1     -48.169  14.354  22.698  0.00  0.00     0.231 C 
ATOM     12  O   UNL d   1     -48.431  14.357  21.913  0.00  0.00    -0.643 OA
ATOM     13  O   UNL d   1     -48.575  14.795  23.268  0.00  0.00    -0.643 OA
ENDBRANCH   1  11
TORSDOF 1
ENDMDL
MODEL 4
REMARK VINA RESULT:      -6.7      1.271      1.638
REMARK  1 active torsions:
REMARK  status: ('A' for Active; 'I' for Inactive)
REMARK    1  A    between atoms: C_6  and  C_1 
ROOT
ATOM      1  C   UNL d   1     -48.531  12.328  23.009  0.00  0.00     0.168 A 
ATOM      2  C   UNL d   1     -47.925  12.873  22.886  0.00  0.00     0.045 A 
ATOM      3  N   UNL d   1     -49.231  12.743  23.144  0.00  0.00    -0.142 NA
ATOM      4  N   UNL d   1     -49.058  13.551  23.105  0.00  0.00    -0.148 NA
ATOM      5  C   UNL d   1     -48.240  13.629  22.943  0.00  0.00     0.105 A 
ATOM      6  C   UNL d   1     -47.119  12.782  22.728  0.00  0.00     0.003 A 
ATOM      7  C   UNL d   1     -47.768  14.299  22.846  0.00  0.00     0.021 A 
ATOM      8  C   UNL d   1     -46.639  13.443  22.629  0.00  0.00     0.000 A 
ATOM      9  C   UNL d   1     -46.964  14.203  22.688  0.00  0.00     0.002 A 
ATOM     10  C   UNL d   1     -45.833  13.351  22.471  0.00  0.00     0.000 C 
ENDROOT
BRANCH   1  11
ATOM     11  C   UNL d   1     -48.451  11.509  22.999  0.00  0.00     0.231 C 
ATOM     12  O   UNL d   1     -48.539  11.089  22.291  0.00  0.00    -0.643 OA
ATOM     13  O   UNL d   1     -48.282  11.101  23.698  0.00  0.00    -0.643 OA
ENDBRANCH   1  11
TORSDOF 1
ENDMDL
MODEL 5
REMARK VINA RESULT:      -6.6      1.936      2.763
REMARK  1 active torsions:
REMARK  status: ('A' for Active; 'I' for Inactive)
REMARK    1  A    between atoms: C_6  and  C_1 
ROOT
ATOM      1  C   UNL d   1     -46.976  13.798  22.860  0.00  0.00     0.168 A 
ATOM      2  C   UNL d   1     -47.624  13.314  23.018  0.00  0.00     0.045 A 
ATOM      3  N   UNL d   1     -47.253  14.524  22.585  0.00  0.00    -0.142 NA
ATOM      4  N   UNL d   1     -48.080  14.492  22.573  0.00  0.00    -0.148 NA
ATOM      5  C   UNL d   1     -48.309  13.733  22.845  0.00  0.00     0.105 A 
ATOM      6  C   UNL d   1     -47.685  12.540  23.301  0.00  0.00     0.003 A 
ATOM      7  C   UNL d   1     -49.056  13.397  22.947  0.00  0.00     0.021 A 
ATOM      8  C   UNL d   1     -48.424  12.194  23.406  0.00  0.00     0.000 A 
ATOM      9  C   UNL d   1     -49.111  12.623  23.229  0.00  0.00     0.002 A 
ATOM     10  C   UNL d   1     -48.484  11.420  23.688  0.00  0.00     0.000 C 
ENDROOT
BRANCH   1  11
ATOM     11  C   UNL d   1     -46.185  13.590  22.959  0.00  0.00     0.231 C 
ATOM     12  O   UNL d   1     -45.821  13.672  23.698  0.00  0.00    -0.643 OA
ATOM     13  O   UNL d   1     -45.750  13.299  22.319  0.00  0.00    -0.643 OA
ENDBRANCH   1  11
TORSDOF 1
ENDMDL
MODEL 6
REMARK VINA RESULT:      -6.4      2.440      3.058
REMARK  1 active torsions:
REMARK  status: ('A' for Active; 'I' for Inactive)
REMARK    1  A    between atoms: C_6  and  C_1 
ROOT
ATOM      1  C   UNL d   1     -49.376  14.414  22.386  0.00  0.00     0.168 A 
ATOM      2  C   UNL d   1     -48.627  14.071  22.384  0.00  0.00     0.045 A 
ATOM      3  N   UNL d   1     -49.862  13.985  21.877  0.00  0.00    -0.142 NA
ATOM      4  N   UNL d   1     -49.410  13.369  21.556  0.00  0.00    -0.148 NA
ATOM      5  C   UNL d   1     -48.638  13.426  21.876  0.00  0.00     0.105 A 
ATOM      6  C   UNL d   1     -47.927  14.260  22.781  0.00  0.00     0.003 A 
ATOM      7  C   UNL d   1     -47.965  12.963  21.754  0.00  0.00     0.021 A 
ATOM      8  C   UNL d   1     -47.250  13.805  22.667  0.00  0.00     0.000 A 
ATOM      9  C   UNL d   1     -47.270  13.156  22.153  0.00  0.00     0.002 A 
ATOM     10  C   UNL d   1     -46.551  13.995  23.065  0.00  0.00     0.000 C 
ENDROOT
BRANCH   1  11
ATOM     11  C   UNL d   1     -49.601  15.075  22.823  0.00  0.00     0.231 C 
ATOM     12  O   UNL d   1     -49.561  15.831  22.487  0.00  0.00    -0.643 OA
ATOM     13  O   UNL d   1     -49.868  14.986  23.600  0.00  0.00    -0.643 OA
ENDBRANCH   1  11
TORSDOF 1
ENDMDL
MODEL 7
REMARK VINA RESULT:      -6.2      2.100      2.803
REMARK  1 active torsions:
REMARK  status: ('A' for Active; 'I' for Inactive)
REMARK    1  A    between atoms: C_6  and  C_1 
ROOT
ATOM      1  C   UNL d   1     -48.520  12.288  22.486  0.00  0.00     0.168 A 
ATOM      2  C   UNL d   1     -49.272  12.428  22.792  0.00  0.00     0.045 A 
ATOM      3  N   UNL d   1     -48.249  11.565  22.778  0.00  0.00    -0.142 NA
ATOM      4  N   UNL d   1     -48.839  11.254  23.269  0.00  0.00    -0.148 NA
ATOM      5  C   UNL d   1     -49.477  11.797  23.275  0.00  0.00     0.105 A 
ATOM      6  C   UNL d   1     -49.804  13.052  22.695  0.00  0.00     0.003 A 
ATOM      7  C   UNL d   1     -50.204  11.773  23.666  0.00  0.00     0.021 A 
ATOM      8  C   UNL d   1     -50.532  13.040  23.079  0.00  0.00     0.000 A 
ATOM      9  C   UNL d   1     -50.732  12.399  23.565  0.00  0.00     0.002 A 
ATOM     10  C   UNL d   1     -51.064  13.664  22.981  0.00  0.00     0.000 C 
ENDROOT
BRANCH   1  11
ATOM     11  C   UNL d   1     -48.107  12.786  21.976  0.00  0.00     0.231 C 
ATOM     12  O   UNL d   1     -48.221  12.732  21.157  0.00  0.00    -0.643 OA
ATOM     13  O   UNL d   1     -47.576  13.342  22.279  0.00  0.00    -0.643 OA
ENDBRANCH   1  11
TORSDOF 1
ENDMDL
MODEL 8
REMARK VINA RESULT:      -6.1      1.942      2.418
REMARK  1 active torsions:
REMARK  status: ('A' for Active; 'I' for Inactive)
REMARK    1  A    between atoms: C_6  and  C_1 
ROOT
ATOM      1  C   UNL d   1     -49.722  12.215  22.570  0.00  0.00     0.168 A 
ATOM      2  C   UNL d   1     -48.935  12.457  22.528  0.00  0.00     0.045 A 
ATOM      3  N   UNL d   1     -50.069  12.327  21.830  0.00  0.00    -0.142 NA
ATOM      4  N   UNL d   1     -49.493  12.641  21.325  0.00  0.00    -0.148 NA
ATOM      5  C   UNL d   1     -48.785  12.721  21.765  0.00  0.00     0.105 A 
ATOM      6  C   UNL d   1     -48.328  12.472  23.088  0.00  0.00     0.003 A 
ATOM      7  C   UNL d   1     -48.039  13.001  21.547  0.00  0.00     0.021 A 
ATOM      8  C   UNL d   1     -47.581  12.750  22.882  0.00  0.00     0.000 A 
ATOM      9  C   UNL d   1     -47.437  13.015  22.110  0.00  0.00     0.002 A 
ATOM     10  C   UNL d   1     -46.974  12.765  23.443  0.00  0.00     0.000 C 
ENDROOT
BRANCH   1  11
ATOM     11  C   UNL d   1     -50.098  11.913  23.237  0.00  0.00     0.231 C 
ATOM     12  O   UNL d   1     -49.993  11.121  23.453  0.00  0.00    -0.643 OA
ATOM     13  O   UNL d   1     -50.584  12.401  23.695  0.00  0.00    -0.643 OA
ENDBRANCH   1  11
TORSDOF 1
ENDMDL
MODEL 9
REMARK VINA RESULT:      -5.8      9.420     10.042
REMARK  1 active torsions:
REMARK  status: ('A' for Active; 'I' for Inactive)
REMARK    1  A    between atoms: C_6  and  C_1 
ROOT
ATOM      1  C   UNL d   1     -40.479  14.562  17.515  0.00  0.00     0.168 A 
ATOM      2  C   UNL d   1     -39.755  14.351  17.185  0.00  0.00     0.045 A 
ATOM      3  N   UNL d   1     -40.685  13.995  18.078  0.00  0.00    -0.142 NA
ATOM      4  N   UNL d   1     -40.082  13.428  18.098  0.00  0.00    -0.148 NA
ATOM      5  C   UNL d   1     -39.501  13.654  17.538  0.00  0.00     0.105 A 
ATOM      6  C   UNL d   1     -39.285  14.704  16.604  0.00  0.00     0.003 A 
ATOM      7  C   UNL d   1     -38.788  13.299  17.323  0.00  0.00     0.021 A 
ATOM      8  C   UNL d   1     -38.571  14.358  16.382  0.00  0.00     0.000 A 
ATOM      9  C   UNL d   1     -38.322  13.655  16.743  0.00  0.00     0.002 A 
ATOM     10  C   UNL d   1     -38.101  14.711  15.801  0.00  0.00     0.000 C 
ENDROOT
BRANCH   1  11
ATOM     11  C   UNL d   1     -40.924  15.226  17.316  0.00  0.00     0.231 C 
ATOM     12  O   UNL d   1     -41.447  15.201  16.675  0.00  0.00    -0.643 OA
ATOM     13  O   UNL d   1     -40.850  15.921  17.757  0.00  0.00    -0.643 OA
ENDBRANCH   1  11
TORSDOF 1
ENDMDL
