MODEL 1
REMARK VINA RESULT:      -5.6      0.000      0.000
REMARK  6 active torsions:
REMARK  status: ('A' for Active; 'I' for Inactive)
REMARK    1  A    between atoms: N_2  and  S_1 
REMARK    2  A    between atoms: C_4  and  S_1 
REMARK    3  A    between atoms: C_3  and  N_2 
REMARK    4  A    between atoms: N_7  and  C_3 
REMARK    5  A    between atoms: C_11  and  N_7 
REMARK    6  A    between atoms: C_15  and  C_14 
ROOT
ATOM      1  S   UNL d   1      57.051  -0.321  31.343  0.00  0.00     0.287 S 
ATOM      2  O   UNL d   1      57.176  -1.109  31.553  0.00  0.00    -0.198 OA
ATOM      3  O   UNL d   1      56.925   0.471  31.132  0.00  0.00    -0.198 OA
ENDROOT
BRANCH   1   4
ATOM      4  N   UNL d   1      57.563  -0.412  30.697  0.00  0.00    -0.128 NA
BRANCH   4   5
ATOM      5  C   UNL d   1      58.147  -0.093  30.209  0.00  0.00     0.232 C 
ATOM      6  S   UNL d   1      58.719   0.414  30.520  0.00  0.00    -0.036 SA
BRANCH   5   7
ATOM      7  N   UNL d   1      58.156  -0.284  29.408  0.00  0.00    -0.217 NA
BRANCH   7   8
ATOM      8  C   UNL d   1      58.816  -0.670  29.091  0.00  0.00     0.084 A 
ATOM      9  C   UNL d   1      59.440  -0.223  28.792  0.00  0.00     0.019 A 
ATOM     10  C   UNL d   1      60.099  -0.600  28.475  0.00  0.00     0.002 A 
ATOM     11  C   UNL d   1      60.135  -1.416  28.457  0.00  0.00     0.000 A 
ATOM     12  C   UNL d   1      59.507  -1.859  28.758  0.00  0.00     0.002 A 
ATOM     13  C   UNL d   1      58.852  -1.486  29.073  0.00  0.00     0.019 A 
ENDBRANCH   7   8
ENDBRANCH   5   7
ENDBRANCH   4   5
ENDBRANCH   1   4
BRANCH   1  14
ATOM     14  C   UNL d   1      56.537  -0.230  31.993  0.00  0.00     0.105 A 
ATOM     15  C   UNL d   1      56.262  -0.899  32.389  0.00  0.00     0.013 A 
ATOM     16  C   UNL d   1      55.747  -0.808  33.040  0.00  0.00     0.001 A 
ATOM     17  C   UNL d   1      55.512  -0.048  33.289  0.00  0.00     0.000 A 
ATOM     18  C   UNL d   1      55.793   0.621  32.886  0.00  0.00     0.001 A 
ATOM     19  C   UNL d   1      56.301   0.530  32.243  0.00  0.00     0.013 A 
BRANCH  17  20
ATOM     20  C   UNL d   1      55.003   0.030  33.934  0.00  0.00     0.000 C 
ATOM     21  C   UNL d   1      55.061   0.679  34.430  0.00  0.00     0.000 C 
ENDBRANCH  17  20
ENDBRANCH   1  14
TORSDOF 6
ENDMDL
MODEL 2
REMARK VINA RESULT:      -4.0      1.066      5.123
REMARK  6 active torsions:
REMARK  status: ('A' for Active; 'I' for Inactive)
REMARK    1  A    between atoms: N_2  and  S_1 
REMARK    2  A    between atoms: C_4  and  S_1 
REMARK    3  A    between atoms: C_3  and  N_2 
REMARK    4  A    between atoms: N_7  and  C_3 
REMARK    5  A    between atoms: C_11  and  N_7 
REMARK    6  A    between atoms: C_15  and  C_14 
ROOT
ATOM      1  S   UNL d   1      57.363   0.110  31.266  0.00  0.00     0.287 S 
ATOM      2  O   UNL d   1      56.830  -0.455  30.987  0.00  0.00    -0.198 OA
ATOM      3  O   UNL d   1      57.899   0.678  31.545  0.00  0.00    -0.198 OA
ENDROOT
BRANCH   1   4
ATOM      4  N   UNL d   1      56.886   0.230  31.934  0.00  0.00    -0.128 NA
BRANCH   4   5
ATOM      5  C   UNL d   1      56.807   0.217  32.755  0.00  0.00     0.232 C 
ATOM      6  S   UNL d   1      57.297   0.682  33.229  0.00  0.00    -0.036 SA
BRANCH   5   7
ATOM      7  N   UNL d   1      56.234  -0.265  33.101  0.00  0.00    -0.217 NA
BRANCH   7   8
ATOM      8  C   UNL d   1      55.730   0.053  33.674  0.00  0.00     0.084 A 
ATOM      9  C   UNL d   1      54.927   0.131  33.507  0.00  0.00     0.019 A 
ATOM     10  C   UNL d   1      54.420   0.447  34.073  0.00  0.00     0.002 A 
ATOM     11  C   UNL d   1      54.711   0.682  34.799  0.00  0.00     0.000 A 
ATOM     12  C   UNL d   1      55.516   0.602  34.960  0.00  0.00     0.002 A 
ATOM     13  C   UNL d   1      56.022   0.289  34.400  0.00  0.00     0.019 A 
ENDBRANCH   7   8
ENDBRANCH   5   7
ENDBRANCH   4   5
ENDBRANCH   1   4
BRANCH   1  14
ATOM     14  C   UNL d   1      57.841  -0.011  30.593  0.00  0.00     0.105 A 
ATOM     15  C   UNL d   1      58.132   0.640  30.180  0.00  0.00     0.013 A 
ATOM     16  C   UNL d   1      58.610   0.519  29.507  0.00  0.00     0.001 A 
ATOM     17  C   UNL d   1      58.794  -0.254  29.253  0.00  0.00     0.000 A 
ATOM     18  C   UNL d   1      58.497  -0.905  29.674  0.00  0.00     0.001 A 
ATOM     19  C   UNL d   1      58.024  -0.784  30.339  0.00  0.00     0.013 A 
BRANCH  17  20
ATOM     20  C   UNL d   1      59.268  -0.362  28.587  0.00  0.00     0.000 C 
ATOM     21  C   UNL d   1      59.776  -1.003  28.541  0.00  0.00     0.000 C 
ENDBRANCH  17  20
ENDBRANCH   1  14
TORSDOF 6
ENDMDL
MODEL 3
REMARK VINA RESULT:      -3.6      0.951      4.933
REMARK  6 active torsions:
REMARK  status: ('A' for Active; 'I' for Inactive)
REMARK    1  A    between atoms: N_2  and  S_1 
REMARK    2  A    between atoms: C_4  and  S_1 
REMARK    3  A    between atoms: C_3  and  N_2 
REMARK    4  A    between atoms: N_7  and  C_3 
REMARK    5  A    between atoms: C_11  and  N_7 
REMARK    6  A    between atoms: C_15  and  C_14 
ROOT
ATOM      1  S   UNL d   1      58.144   0.171  30.452  0.00  0.00     0.287 S 
ATOM      2  O   UNL d   1      58.736   0.680  30.719  0.00  0.00    -0.198 OA
ATOM      3  O   UNL d   1      57.550  -0.340  30.183  0.00  0.00    -0.198 OA
ENDROOT
BRANCH   1   4
ATOM      4  N   UNL d   1      57.598   0.545  30.951  0.00  0.00    -0.128 NA
BRANCH   4   5
ATOM      5  C   UNL d   1      57.235   0.591  31.691  0.00  0.00     0.232 C 
ATOM      6  S   UNL d   1      57.690   0.667  32.375  0.00  0.00    -0.036 SA
BRANCH   5   7
ATOM      7  N   UNL d   1      56.413   0.562  31.743  0.00  0.00    -0.217 NA
BRANCH   7   8
ATOM      8  C   UNL d   1      56.062   0.224  32.411  0.00  0.00     0.084 A 
ATOM      9  C   UNL d   1      55.560   0.681  32.878  0.00  0.00     0.019 A 
ATOM     10  C   UNL d   1      55.207   0.352  33.544  0.00  0.00     0.002 A 
ATOM     11  C   UNL d   1      55.353  -0.427  33.743  0.00  0.00     0.000 A 
ATOM     12  C   UNL d   1      55.856  -0.880  33.272  0.00  0.00     0.002 A 
ATOM     13  C   UNL d   1      56.208  -0.555  32.610  0.00  0.00     0.019 A 
ENDBRANCH   7   8
ENDBRANCH   5   7
ENDBRANCH   4   5
ENDBRANCH   1   4
BRANCH   1  14
ATOM     14  C   UNL d   1      58.695  -0.204  29.950  0.00  0.00     0.105 A 
ATOM     15  C   UNL d   1      59.424   0.153  29.808  0.00  0.00     0.013 A 
ATOM     16  C   UNL d   1      59.975  -0.222  29.307  0.00  0.00     0.001 A 
ATOM     17  C   UNL d   1      59.791  -0.953  28.950  0.00  0.00     0.000 A 
ATOM     18  C   UNL d   1      59.055  -1.307  29.097  0.00  0.00     0.001 A 
ATOM     19  C   UNL d   1      58.511  -0.935  29.593  0.00  0.00     0.013 A 
BRANCH  17  20
ATOM     20  C   UNL d   1      60.343  -1.315  28.455  0.00  0.00     0.000 C 
ATOM     21  C   UNL d   1      61.045  -1.606  28.763  0.00  0.00     0.000 C 
ENDBRANCH  17  20
ENDBRANCH   1  14
TORSDOF 6
ENDMDL
