MODEL 1
REMARK VINA RESULT:      -9.7      0.000      0.000
REMARK  4 active torsions:
REMARK  status: ('A' for Active; 'I' for Inactive)
REMARK    1  A    between atoms: C_2  and  C_1 
REMARK    2  A    between atoms: C_4  and  C_3 
REMARK       I    between atoms: N_6  and  C_4 
REMARK    3  A    between atoms: C_5  and  C_10 
REMARK       I    between atoms: N_9  and  C_5 
REMARK    4  A    between atoms: C_10  and  N_6 
ROOT
ATOM      1  C   UNL d   1      53.895  33.627  54.625  0.00  0.00     0.076 A 
ATOM      2  C   UNL d   1      53.867  33.344  53.844  0.00  0.00     0.062 A 
ATOM      3  C   UNL d   1      53.357  34.191  54.874  0.00  0.00     0.004 A 
ATOM      4  C   UNL d   1      53.291  33.639  53.324  0.00  0.00     0.005 A 
ATOM      5  C   UNL d   1      52.745  34.215  53.587  0.00  0.00     0.000 A 
ATOM      6  C   UNL d   1      52.787  34.483  54.360  0.00  0.00    -0.000 A 
ENDROOT
BRANCH   2   7
ATOM      7  C   UNL d   1      54.405  32.775  53.585  0.00  0.00     0.279 C 
ATOM      8  N   UNL d   1      54.139  32.023  53.372  0.00  0.00    -0.201 NA
ATOM      9  O   UNL d   1      55.208  32.965  53.542  0.00  0.00    -0.265 OA
BRANCH   8  10
ATOM     10  C   UNL d   1      53.336  31.837  53.416  0.00  0.00     0.166 C 
BRANCH  10  11
ATOM     11  C   UNL d   1      53.068  31.104  53.153  0.00  0.00     0.318 C 
ATOM     12  O   UNL d   1      52.850  31.010  52.367  0.00  0.00    -0.262 OA
ATOM     13  N   UNL d   1      53.019  30.469  53.680  0.00  0.00    -0.083 NA
ATOM     14  N   UNL d   1      52.751  29.737  53.416  0.00  0.00    -0.019 N 
ENDBRANCH  10  11
ENDBRANCH   8  10
ENDBRANCH   2   7
BRANCH   1  15
ATOM     15  C   UNL d   1      54.472  33.332  55.146  0.00  0.00     0.419 C 
ATOM     16  F   UNL d   1      54.998  33.063  55.621  0.00  0.00    -0.166 F 
ATOM     17  F   UNL d   1      54.401  32.682  55.717  0.00  0.00    -0.166 F 
ATOM     18  F   UNL d   1      55.277  33.585  55.257  0.00  0.00    -0.166 F 
ENDBRANCH   1  15
TORSDOF 4
ENDMDL
MODEL 2
REMARK VINA RESULT:      -8.9      1.701      2.049
REMARK  4 active torsions:
REMARK  status: ('A' for Active; 'I' for Inactive)
REMARK    1  A    between atoms: C_2  and  C_1 
REMARK    2  A    between atoms: C_4  and  C_3 
REMARK       I    between atoms: N_6  and  C_4 
REMARK    3  A    between atoms: C_5  and  C_10 
REMARK       I    between atoms: N_9  and  C_5 
REMARK    4  A    between atoms: C_10  and  N_6 
ROOT
ATOM      1  C   UNL d   1      53.169  33.471  54.064  0.00  0.00     0.076 A 
ATOM      2  C   UNL d   1      53.551  32.928  53.564  0.00  0.00     0.062 A 
ATOM      3  C   UNL d   1      53.574  33.799  54.696  0.00  0.00     0.004 A 
ATOM      4  C   UNL d   1      54.343  32.723  53.713  0.00  0.00     0.005 A 
ATOM      5  C   UNL d   1      54.747  33.063  54.361  0.00  0.00     0.000 A 
ATOM      6  C   UNL d   1      54.356  33.596  54.843  0.00  0.00    -0.000 A 
ENDROOT
BRANCH   2   7
ATOM      7  C   UNL d   1      53.151  32.594  52.925  0.00  0.00     0.279 C 
ATOM      8  N   UNL d   1      53.046  31.776  52.887  0.00  0.00    -0.201 NA
ATOM      9  O   UNL d   1      52.859  33.084  52.327  0.00  0.00    -0.265 OA
BRANCH   8  10
ATOM     10  C   UNL d   1      53.340  31.290  53.487  0.00  0.00     0.166 C 
BRANCH  10  11
ATOM     11  C   UNL d   1      53.208  30.477  53.460  0.00  0.00     0.318 C 
ATOM     12  O   UNL d   1      52.931  30.133  52.769  0.00  0.00    -0.262 OA
ATOM     13  N   UNL d   1      53.356  30.013  54.129  0.00  0.00    -0.083 NA
ATOM     14  N   UNL d   1      53.224  29.201  54.101  0.00  0.00    -0.019 N 
ENDBRANCH  10  11
ENDBRANCH   8  10
ENDBRANCH   2   7
BRANCH   1  15
ATOM     15  C   UNL d   1      52.378  33.676  53.915  0.00  0.00     0.419 C 
ATOM     16  F   UNL d   1      51.656  33.863  53.779  0.00  0.00    -0.166 F 
ATOM     17  F   UNL d   1      52.072  34.331  53.434  0.00  0.00    -0.166 F 
ATOM     18  F   UNL d   1      51.663  33.303  54.191  0.00  0.00    -0.166 F 
ENDBRANCH   1  15
TORSDOF 4
ENDMDL
MODEL 3
REMARK VINA RESULT:      -8.8      1.865      2.593
REMARK  4 active torsions:
REMARK  status: ('A' for Active; 'I' for Inactive)
REMARK    1  A    between atoms: C_2  and  C_1 
REMARK    2  A    between atoms: C_4  and  C_3 
REMARK       I    between atoms: N_6  and  C_4 
REMARK    3  A    between atoms: C_5  and  C_10 
REMARK       I    between atoms: N_9  and  C_5 
REMARK    4  A    between atoms: C_10  and  N_6 
ROOT
ATOM      1  C   UNL d   1      53.736  32.075  54.218  0.00  0.00     0.076 A 
ATOM      2  C   UNL d   1      53.530  32.449  53.505  0.00  0.00     0.062 A 
ATOM      3  C   UNL d   1      53.595  31.274  54.313  0.00  0.00     0.004 A 
ATOM      4  C   UNL d   1      53.183  32.004  52.896  0.00  0.00     0.005 A 
ATOM      5  C   UNL d   1      53.043  31.187  53.003  0.00  0.00     0.000 A 
ATOM      6  C   UNL d   1      53.252  30.834  53.711  0.00  0.00    -0.000 A 
ENDROOT
BRANCH   2   7
ATOM      7  C   UNL d   1      53.668  33.256  53.400  0.00  0.00     0.279 C 
ATOM      8  N   UNL d   1      53.033  33.773  53.296  0.00  0.00    -0.201 NA
ATOM      9  O   UNL d   1      54.444  33.538  53.401  0.00  0.00    -0.265 OA
BRANCH   8  10
ATOM     10  C   UNL d   1      52.258  33.486  53.296  0.00  0.00     0.166 C 
BRANCH  10  11
ATOM     11  C   UNL d   1      51.627  34.006  53.203  0.00  0.00     0.318 C 
ATOM     12  O   UNL d   1      51.747  34.812  53.298  0.00  0.00    -0.262 OA
ATOM     13  N   UNL d   1      50.876  33.714  53.015  0.00  0.00    -0.083 NA
ATOM     14  N   UNL d   1      50.245  34.234  52.923  0.00  0.00    -0.019 N 
ENDBRANCH  10  11
ENDBRANCH   8  10
ENDBRANCH   2   7
BRANCH   1  15
ATOM     15  C   UNL d   1      54.083  32.520  54.827  0.00  0.00     0.419 C 
ATOM     16  F   UNL d   1      54.400  32.927  55.383  0.00  0.00    -0.166 F 
ATOM     17  F   UNL d   1      53.705  32.859  55.531  0.00  0.00    -0.166 F 
ATOM     18  F   UNL d   1      54.895  32.761  54.923  0.00  0.00    -0.166 F 
ENDBRANCH   1  15
TORSDOF 4
ENDMDL
MODEL 4
REMARK VINA RESULT:      -8.8      2.509      3.002
REMARK  4 active torsions:
REMARK  status: ('A' for Active; 'I' for Inactive)
REMARK    1  A    between atoms: C_2  and  C_1 
REMARK    2  A    between atoms: C_4  and  C_3 
REMARK       I    between atoms: N_6  and  C_4 
REMARK    3  A    between atoms: C_5  and  C_10 
REMARK       I    between atoms: N_9  and  C_5 
REMARK    4  A    between atoms: C_10  and  N_6 
ROOT
ATOM      1  C   UNL d   1      52.030  34.312  52.954  0.00  0.00     0.076 A 
ATOM      2  C   UNL d   1      52.038  33.677  53.491  0.00  0.00     0.062 A 
ATOM      3  C   UNL d   1      52.548  34.937  53.055  0.00  0.00     0.004 A 
ATOM      4  C   UNL d   1      52.575  33.686  54.125  0.00  0.00     0.005 A 
ATOM      5  C   UNL d   1      53.101  34.329  54.219  0.00  0.00     0.000 A 
ATOM      6  C   UNL d   1      53.079  34.946  53.681  0.00  0.00    -0.000 A 
ENDROOT
BRANCH   2   7
ATOM      7  C   UNL d   1      51.519  33.042  53.398  0.00  0.00     0.279 C 
ATOM      8  N   UNL d   1      51.815  32.288  53.239  0.00  0.00    -0.201 NA
ATOM      9  O   UNL d   1      50.706  33.170  53.465  0.00  0.00    -0.265 OA
BRANCH   8  10
ATOM     10  C   UNL d   1      52.629  32.165  53.173  0.00  0.00     0.166 C 
BRANCH  10  11
ATOM     11  C   UNL d   1      52.919  31.415  52.999  0.00  0.00     0.318 C 
ATOM     12  O   UNL d   1      52.834  31.111  52.241  0.00  0.00    -0.262 OA
ATOM     13  N   UNL d   1      53.294  30.970  53.588  0.00  0.00    -0.083 NA
ATOM     14  N   UNL d   1      53.584  30.221  53.413  0.00  0.00    -0.019 N 
ENDBRANCH  10  11
ENDBRANCH   8  10
ENDBRANCH   2   7
BRANCH   1  15
ATOM     15  C   UNL d   1      51.492  34.303  52.320  0.00  0.00     0.419 C 
ATOM     16  F   UNL d   1      51.002  34.295  51.742  0.00  0.00    -0.166 F 
ATOM     17  F   UNL d   1      51.637  34.080  51.495  0.00  0.00    -0.166 F 
ATOM     18  F   UNL d   1      50.666  34.509  52.312  0.00  0.00    -0.166 F 
ENDBRANCH   1  15
TORSDOF 4
ENDMDL
