MODEL 1
REMARK VINA RESULT:      -6.3      0.000      0.000
REMARK  3 active torsions:
REMARK  status: ('A' for Active; 'I' for Inactive)
REMARK       I    between atoms: N_4  and  C_1 
REMARK    1  A    between atoms: O_11  and  C_3 
REMARK    2  A    between atoms: C_6  and  N_4 
REMARK    3  A    between atoms: O_12  and  C_7 
ROOT
ATOM      1  C   UNL d   1     -47.633  12.931  23.272  0.00  0.00     0.046 A 
ATOM      2  C   UNL d   1     -46.833  12.755  23.353  0.00  0.00     0.118 A 
ATOM      3  C   UNL d   1     -48.203  12.344  23.402  0.00  0.00     0.102 A 
ATOM      4  C   UNL d   1     -46.599  11.991  23.565  0.00  0.00     0.116 A 
ATOM      5  C   UNL d   1     -47.168  11.405  23.695  0.00  0.00     0.028 A 
ATOM      6  C   UNL d   1     -47.969  11.585  23.612  0.00  0.00     0.022 A 
ENDROOT
BRANCH   3   7
ATOM      7  N   UNL d   1     -49.006  12.522  23.319  0.00  0.00    -0.056 NA
ATOM      8  C   UNL d   1     -49.428  12.251  22.674  0.00  0.00     0.787 C 
ATOM      9  N   UNL d   1     -50.223  12.427  22.593  0.00  0.00     0.064 N 
ATOM     10  N   UNL d   1     -49.044  11.794  22.100  0.00  0.00     0.064 N 
ENDBRANCH   3   7
BRANCH   2  11
ATOM     11  O   UNL d   1     -46.269  13.336  23.224  0.00  0.00    -0.326 OA
ATOM     12  C   UNL d   1     -46.493  14.065  22.919  0.00  0.00     0.181 C 
ENDBRANCH   2  11
BRANCH   4  13
ATOM     13  O   UNL d   1     -45.804  11.815  23.646  0.00  0.00    -0.326 OA
ATOM     14  C   UNL d   1     -45.559  11.030  23.689  0.00  0.00     0.181 C 
ENDBRANCH   4  13
TORSDOF 3
ENDMDL
MODEL 2
REMARK VINA RESULT:      -5.9      1.294      2.019
REMARK  3 active torsions:
REMARK  status: ('A' for Active; 'I' for Inactive)
REMARK       I    between atoms: N_4  and  C_1 
REMARK    1  A    between atoms: O_11  and  C_3 
REMARK    2  A    between atoms: C_6  and  N_4 
REMARK    3  A    between atoms: O_12  and  C_7 
ROOT
ATOM      1  C   UNL d   1     -47.786  13.018  23.158  0.00  0.00     0.046 A 
ATOM      2  C   UNL d   1     -47.016  12.736  23.093  0.00  0.00     0.118 A 
ATOM      3  C   UNL d   1     -47.964  13.796  22.940  0.00  0.00     0.102 A 
ATOM      4  C   UNL d   1     -46.418  13.232  22.809  0.00  0.00     0.116 A 
ATOM      5  C   UNL d   1     -46.596  14.011  22.591  0.00  0.00     0.028 A 
ATOM      6  C   UNL d   1     -47.370  14.289  22.659  0.00  0.00     0.022 A 
ENDROOT
BRANCH   3   7
ATOM      7  N   UNL d   1     -48.739  14.078  23.007  0.00  0.00    -0.056 NA
ATOM      8  C   UNL d   1     -49.206  14.169  22.342  0.00  0.00     0.787 C 
ATOM      9  N   UNL d   1     -49.972  14.448  22.407  0.00  0.00     0.064 N 
ATOM     10  N   UNL d   1     -48.897  13.977  21.599  0.00  0.00     0.064 N 
ENDBRANCH   3   7
BRANCH   2  11
ATOM     11  O   UNL d   1     -46.839  11.965  23.308  0.00  0.00    -0.326 OA
ATOM     12  C   UNL d   1     -47.401  11.510  23.698  0.00  0.00     0.181 C 
ENDBRANCH   2  11
BRANCH   4  13
ATOM     13  O   UNL d   1     -45.652  12.954  22.744  0.00  0.00    -0.326 OA
ATOM     14  C   UNL d   1     -45.136  13.294  22.199  0.00  0.00     0.181 C 
ENDBRANCH   4  13
TORSDOF 3
ENDMDL
MODEL 3
REMARK VINA RESULT:      -5.9      0.658      1.785
REMARK  3 active torsions:
REMARK  status: ('A' for Active; 'I' for Inactive)
REMARK       I    between atoms: N_4  and  C_1 
REMARK    1  A    between atoms: O_11  and  C_3 
REMARK    2  A    between atoms: C_6  and  N_4 
REMARK    3  A    between atoms: O_12  and  C_7 
ROOT
ATOM      1  C   UNL d   1     -47.645  12.057  23.214  0.00  0.00     0.046 A 
ATOM      2  C   UNL d   1     -46.943  12.469  23.338  0.00  0.00     0.118 A 
ATOM      3  C   UNL d   1     -48.288  12.431  22.851  0.00  0.00     0.102 A 
ATOM      4  C   UNL d   1     -46.881  13.258  23.099  0.00  0.00     0.116 A 
ATOM      5  C   UNL d   1     -47.525  13.632  22.736  0.00  0.00     0.028 A 
ATOM      6  C   UNL d   1     -48.226  13.215  22.614  0.00  0.00     0.022 A 
ENDROOT
BRANCH   3   7
ATOM      7  N   UNL d   1     -48.992  12.015  22.727  0.00  0.00    -0.056 NA
ATOM      8  C   UNL d   1     -49.670  12.214  23.138  0.00  0.00     0.787 C 
ATOM      9  N   UNL d   1     -50.366  11.803  23.016  0.00  0.00     0.064 N 
ATOM     10  N   UNL d   1     -49.647  12.837  23.683  0.00  0.00     0.064 N 
ENDBRANCH   3   7
BRANCH   2  11
ATOM     11  O   UNL d   1     -46.306  12.099  23.697  0.00  0.00    -0.326 OA
ATOM     12  C   UNL d   1     -46.255  11.279  23.698  0.00  0.00     0.181 C 
ENDBRANCH   2  11
BRANCH   4  13
ATOM     13  O   UNL d   1     -46.185  13.669  23.222  0.00  0.00    -0.326 OA
ATOM     14  C   UNL d   1     -46.089  14.421  22.900  0.00  0.00     0.181 C 
ENDBRANCH   4  13
TORSDOF 3
ENDMDL
MODEL 4
REMARK VINA RESULT:      -5.8      2.468      3.702
REMARK  3 active torsions:
REMARK  status: ('A' for Active; 'I' for Inactive)
REMARK       I    between atoms: N_4  and  C_1 
REMARK    1  A    between atoms: O_11  and  C_3 
REMARK    2  A    between atoms: C_6  and  N_4 
REMARK    3  A    between atoms: O_12  and  C_7 
ROOT
ATOM      1  C   UNL d   1     -48.464  13.342  22.884  0.00  0.00     0.046 A 
ATOM      2  C   UNL d   1     -49.144  13.692  23.188  0.00  0.00     0.118 A 
ATOM      3  C   UNL d   1     -47.878  13.809  22.531  0.00  0.00     0.102 A 
ATOM      4  C   UNL d   1     -49.241  14.512  23.141  0.00  0.00     0.116 A 
ATOM      5  C   UNL d   1     -48.656  14.979  22.789  0.00  0.00     0.028 A 
ATOM      6  C   UNL d   1     -47.976  14.623  22.485  0.00  0.00     0.022 A 
ENDROOT
BRANCH   3   7
ATOM      7  N   UNL d   1     -47.195  13.456  22.226  0.00  0.00    -0.056 NA
ATOM      8  C   UNL d   1     -46.479  13.533  22.612  0.00  0.00     0.787 C 
ATOM      9  N   UNL d   1     -45.804  13.184  22.310  0.00  0.00     0.064 N 
ATOM     10  N   UNL d   1     -46.441  13.969  23.314  0.00  0.00     0.064 N 
ENDBRANCH   3   7
BRANCH   2  11
ATOM     11  O   UNL d   1     -49.724  13.230  23.537  0.00  0.00    -0.326 OA
ATOM     12  C   UNL d   1     -49.720  12.415  23.427  0.00  0.00     0.181 C 
ENDBRANCH   2  11
BRANCH   4  13
ATOM     13  O   UNL d   1     -49.916  14.861  23.443  0.00  0.00    -0.326 OA
ATOM     14  C   UNL d   1     -49.978  15.682  23.472  0.00  0.00     0.181 C 
ENDBRANCH   4  13
TORSDOF 3
ENDMDL
MODEL 5
REMARK VINA RESULT:      -5.6      2.213      3.080
REMARK  3 active torsions:
REMARK  status: ('A' for Active; 'I' for Inactive)
REMARK       I    between atoms: N_4  and  C_1 
REMARK    1  A    between atoms: O_11  and  C_3 
REMARK    2  A    between atoms: C_6  and  N_4 
REMARK    3  A    between atoms: O_12  and  C_7 
ROOT
ATOM      1  C   UNL d   1     -48.433  13.722  22.786  0.00  0.00     0.046 A 
ATOM      2  C   UNL d   1     -49.170  13.552  23.110  0.00  0.00     0.118 A 
ATOM      3  C   UNL d   1     -47.918  13.107  22.581  0.00  0.00     0.102 A 
ATOM      4  C   UNL d   1     -49.396  12.766  23.230  0.00  0.00     0.116 A 
ATOM      5  C   UNL d   1     -48.881  12.151  23.025  0.00  0.00     0.028 A 
ATOM      6  C   UNL d   1     -48.143  12.326  22.701  0.00  0.00     0.022 A 
ENDROOT
BRANCH   3   7
ATOM      7  N   UNL d   1     -47.177  13.279  22.256  0.00  0.00    -0.056 NA
ATOM      8  C   UNL d   1     -46.498  13.202  22.704  0.00  0.00     0.787 C 
ATOM      9  N   UNL d   1     -45.766  13.372  22.383  0.00  0.00     0.064 N 
ATOM     10  N   UNL d   1     -46.557  12.949  23.490  0.00  0.00     0.064 N 
ENDBRANCH   3   7
BRANCH   2  11
ATOM     11  O   UNL d   1     -49.681  14.161  23.312  0.00  0.00    -0.326 OA
ATOM     12  C   UNL d   1     -49.527  14.927  23.058  0.00  0.00     0.181 C 
ENDBRANCH   2  11
BRANCH   4  13
ATOM     13  O   UNL d   1     -50.129  12.596  23.552  0.00  0.00    -0.326 OA
ATOM     14  C   UNL d   1     -50.343  11.814  23.697  0.00  0.00     0.181 C 
ENDBRANCH   4  13
TORSDOF 3
ENDMDL
MODEL 6
REMARK VINA RESULT:      -5.5      2.263      3.632
REMARK  3 active torsions:
REMARK  status: ('A' for Active; 'I' for Inactive)
REMARK       I    between atoms: N_4  and  C_1 
REMARK    1  A    between atoms: O_11  and  C_3 
REMARK    2  A    between atoms: C_6  and  N_4 
REMARK    3  A    between atoms: O_12  and  C_7 
ROOT
ATOM      1  C   UNL d   1     -48.723  12.396  22.724  0.00  0.00     0.046 A 
ATOM      2  C   UNL d   1     -49.540  12.406  22.625  0.00  0.00     0.118 A 
ATOM      3  C   UNL d   1     -48.239  12.859  22.237  0.00  0.00     0.102 A 
ATOM      4  C   UNL d   1     -49.878  12.879  22.037  0.00  0.00     0.116 A 
ATOM      5  C   UNL d   1     -49.394  13.342  21.550  0.00  0.00     0.028 A 
ATOM      6  C   UNL d   1     -48.575  13.329  21.653  0.00  0.00     0.022 A 
ENDROOT
BRANCH   3   7
ATOM      7  N   UNL d   1     -47.418  12.847  22.338  0.00  0.00    -0.056 NA
ATOM      8  C   UNL d   1     -47.035  13.475  22.694  0.00  0.00     0.787 C 
ATOM      9  N   UNL d   1     -46.223  13.465  22.794  0.00  0.00     0.064 N 
ATOM     10  N   UNL d   1     -47.476  14.126  22.953  0.00  0.00     0.064 N 
ENDBRANCH   3   7
BRANCH   2  11
ATOM     11  O   UNL d   1     -50.019  11.948  23.107  0.00  0.00    -0.326 OA
ATOM     12  C   UNL d   1     -49.684  11.484  23.697  0.00  0.00     0.181 C 
ENDBRANCH   2  11
BRANCH   4  13
ATOM     13  O   UNL d   1     -50.689  12.890  21.937  0.00  0.00    -0.326 OA
ATOM     14  C   UNL d   1     -51.036  13.451  21.443  0.00  0.00     0.181 C 
ENDBRANCH   4  13
TORSDOF 3
ENDMDL
