MODEL 1
REMARK VINA RESULT:      39.0      0.000      0.000
REMARK  4 active torsions:
REMARK  status: ('A' for Active; 'I' for Inactive)
REMARK    1  A    between atoms: C_5  and  S_1 
REMARK    2  A    between atoms: N_8  and  S_1 
REMARK    3  A    between atoms: C_6  and  C_14 
REMARK    4  A    between atoms: C_14  and  N_8 
ROOT
ATOM      1  N   UNL d   1     -51.091  26.303  33.652  0.00  0.00    -0.155 NA
ENDROOT
BRANCH   1   2
ATOM      2  S   UNL d   1     -50.479  26.806  33.864  0.00  0.00     0.291 S 
ATOM      3  O   UNL d   1     -51.010  27.436  33.774  0.00  0.00    -0.198 OA
ATOM      4  O   UNL d   1     -49.959  26.171  33.951  0.00  0.00    -0.198 OA
BRANCH   2   5
ATOM      5  C   UNL d   1     -49.854  27.325  34.082  0.00  0.00     0.135 A 
ATOM      6  S   UNL d   1     -49.558  27.943  33.622  0.00  0.00    -0.073 SA
ATOM      7  C   UNL d   1     -48.936  28.317  34.053  0.00  0.00     0.036 A 
ATOM      8  C   UNL d   1     -48.859  27.917  34.785  0.00  0.00     0.008 A 
ATOM      9  C   UNL d   1     -49.427  27.298  34.810  0.00  0.00     0.020 A 
ENDBRANCH   2   5
ENDBRANCH   1   2
BRANCH   1  10
ATOM     10  C   UNL d   1     -50.978  25.490  33.665  0.00  0.00     0.133 C 
BRANCH  10  11
ATOM     11  C   UNL d   1     -51.615  24.982  33.579  0.00  0.00     0.121 A 
ATOM     12  N   UNL d   1     -52.398  25.202  33.473  0.00  0.00    -0.219 NA
ATOM     13  C   UNL d   1     -52.853  24.519  33.412  0.00  0.00     0.180 A 
ATOM     14  S   UNL d   1     -53.613  24.229  33.309  0.00  0.00    -0.048 SA
ATOM     15  N   UNL d   1     -52.341  23.865  33.480  0.00  0.00    -0.282 N 
ATOM     16  C   UNL d   1     -53.575  23.405  33.313  0.00  0.00     0.057 A 
ATOM     17  C   UNL d   1     -52.794  23.189  33.419  0.00  0.00     0.089 A 
ATOM     18  C   UNL d   1     -51.577  24.158  33.584  0.00  0.00     0.103 A 
ENDBRANCH  10  11
ENDBRANCH   1  10
TORSDOF 4
ENDMDL
