MODEL 1
REMARK VINA RESULT:      37.6      0.000      0.000
REMARK  8 active torsions:
REMARK  status: ('A' for Active; 'I' for Inactive)
REMARK    1  A    between atoms: N_5  and  C_1 
REMARK    2  A    between atoms: N_8  and  C_3 
REMARK    3  A    between atoms: C_17  and  N_8 
REMARK    4  A    between atoms: C_28  and  N_9 
REMARK    5  A    between atoms: C_10  and  C_17 
REMARK    6  A    between atoms: C_20  and  O_27 
REMARK    7  A    between atoms: O_27  and  C_29 
REMARK    8  A    between atoms: C_29  and  C_28 
ROOT
ATOM      1  C   UNL d   1      46.219 -18.458  42.362  0.00  0.00     0.737 A 
ATOM      2  N   UNL d   1      46.300 -17.869  42.907  0.00  0.00    -0.041 NA
ATOM      3  C   UNL d   1      46.357 -18.042  43.686  0.00  0.00     0.182 A 
ATOM      4  N   UNL d   1      46.195 -19.228  42.604  0.00  0.00    -0.060 NA
ATOM      5  C   UNL d   1      46.333 -18.809  43.930  0.00  0.00     0.055 A 
ATOM      6  C   UNL d   1      46.253 -19.402  43.396  0.00  0.00     0.103 A 
ATOM      7  C   UNL d   1      46.390 -18.980  44.713  0.00  0.00     0.005 A 
ATOM      8  C   UNL d   1      46.229 -20.168  43.642  0.00  0.00     0.020 A 
ATOM      9  C   UNL d   1      46.366 -19.736  44.953  0.00  0.00     0.000 A 
ATOM     10  C   UNL d   1      46.286 -20.328  44.419  0.00  0.00     0.002 A 
ENDROOT
BRANCH   1  11
ATOM     11  N   UNL d   1      46.161 -18.285  41.563  0.00  0.00    -0.134 N 
ATOM     12  C   UNL d   1      45.671 -17.658  41.305  0.00  0.00     0.117 A 
ATOM     13  C   UNL d   1      45.614 -17.486  40.501  0.00  0.00     0.100 A 
ATOM     14  N   UNL d   1      46.039 -17.929  39.946  0.00  0.00    -0.298 N 
ATOM     15  C   UNL d   1      46.529 -18.555  40.203  0.00  0.00     0.100 A 
ATOM     16  C   UNL d   1      46.585 -18.727  41.011  0.00  0.00     0.117 A 
BRANCH  14  17
ATOM     17  C   UNL d   1      45.982 -17.756  39.142  0.00  0.00     0.107 C 
BRANCH  17  18
ATOM     18  C   UNL d   1      45.435 -17.198  38.870  0.00  0.00     0.142 C 
BRANCH  18  19
ATOM     19  O   UNL d   1      45.597 -16.735  38.197  0.00  0.00    -0.304 OA
BRANCH  19  20
ATOM     20  C   UNL d   1      44.986 -16.425  37.741  0.00  0.00     0.100 A 
ATOM     21  C   UNL d   1      45.140 -16.153  36.969  0.00  0.00     0.025 A 
ATOM     22  C   UNL d   1      44.525 -15.843  36.514  0.00  0.00     0.002 A 
ATOM     23  C   UNL d   1      43.750 -15.801  36.822  0.00  0.00     0.000 A 
ATOM     24  C   UNL d   1      43.598 -16.073  37.594  0.00  0.00     0.002 A 
ATOM     25  C   UNL d   1      43.132 -15.487  36.359  0.00  0.00     0.000 C 
ATOM     26  C   UNL d   1      44.224 -16.387  38.053  0.00  0.00     0.025 A 
ENDBRANCH  19  20
ENDBRANCH  18  19
ENDBRANCH  17  18
ENDBRANCH  14  17
ENDBRANCH   1  11
BRANCH   3  27
ATOM     27  N   UNL d   1      46.436 -17.457  44.213  0.00  0.00    -0.223 NA
BRANCH  27  28
ATOM     28  C   UNL d   1      45.938 -16.872  44.226  0.00  0.00     0.125 C 
BRANCH  28  29
ATOM     29  C   UNL d   1      45.764 -16.002  44.394  0.00  0.00     0.119 A 
ATOM     30  O   UNL d   1      46.163 -15.044  44.363  0.00  0.00    -0.304 OA
ATOM     31  C   UNL d   1      45.409 -14.362  44.720  0.00  0.00     0.123 A 
ATOM     32  C   UNL d   1      44.902 -15.053  44.823  0.00  0.00     0.029 A 
ATOM     33  C   UNL d   1      45.039 -15.738  44.691  0.00  0.00     0.028 A 
ENDBRANCH  28  29
ENDBRANCH  27  28
ENDBRANCH   3  27
TORSDOF 8
ENDMDL
