MODEL 1
REMARK VINA RESULT:      -2.7      0.000      0.000
REMARK  9 active torsions:
REMARK  status: ('A' for Active; 'I' for Inactive)
REMARK       I    between atoms: C_2  and  N_1 
REMARK    1  A    between atoms: C_3  and  C_2 
REMARK    2  A    between atoms: C_15  and  C_4 
REMARK       I    between atoms: C_5  and  N_9 
REMARK    3  A    between atoms: C_6  and  C_5 
REMARK       I    between atoms: N_21  and  C_6 
REMARK    4  A    between atoms: N_9  and  C_15 
REMARK    5  A    between atoms: C_25  and  N_21 
REMARK    6  A    between atoms: N_23  and  C_26 
REMARK    7  A    between atoms: C_27  and  N_23 
REMARK    8  A    between atoms: C_28  and  N_23 
REMARK    9  A    between atoms: C_26  and  C_25 
ROOT
ATOM      1  N   UNL d   1      32.870  20.270 -22.517  0.00  0.00    -0.250 N 
ATOM      2  C   UNL d   1      32.767  20.243 -21.697  0.00  0.00     0.266 C 
ATOM      3  C   UNL d   1      32.904  19.627 -23.037  0.00  0.00     0.190 A 
ATOM      4  O   UNL d   1      32.685  19.511 -21.319  0.00  0.00    -0.267 OA
ATOM      5  O   UNL d   1      33.013  19.906 -23.801  0.00  0.00    -0.285 OA
ATOM      6  C   UNL d   1      32.960  20.950 -22.979  0.00  0.00     0.112 A 
ATOM      7  C   UNL d   1      33.048  20.727 -23.766  0.00  0.00     0.144 A 
ENDROOT
BRANCH   3   8
ATOM      8  C   UNL d   1      32.838  18.828 -22.811  0.00  0.00     0.146 C 
BRANCH   8   9
ATOM      9  N   UNL d   1      32.491  18.286 -23.326  0.00  0.00    -0.199 NA
ATOM     10  C   UNL d   1      32.689  17.492 -23.276  0.00  0.00     0.337 C 
ATOM     11  O   UNL d   1      33.235  17.227 -22.714  0.00  0.00    -0.260 OA
BRANCH  10  12
ATOM     12  C   UNL d   1      32.342  16.950 -23.791  0.00  0.00     0.337 C 
ATOM     13  O   UNL d   1      32.786  16.616 -24.398  0.00  0.00    -0.260 OA
ATOM     14  N   UNL d   1      31.554  16.746 -23.696  0.00  0.00    -0.201 NA
BRANCH  14  15
ATOM     15  C   UNL d   1      31.021  16.238 -24.088  0.00  0.00     0.121 C 
BRANCH  15  16
ATOM     16  C   UNL d   1      30.426  15.832 -23.691  0.00  0.00     0.101 C 
BRANCH  16  17
ATOM     17  N   UNL d   1      29.661  15.834 -23.986  0.00  0.00    -0.301 N 
BRANCH  17  18
ATOM     18  C   UNL d   1      29.512  15.820 -24.788  0.00  0.00     0.080 C 
ATOM     19  C   UNL d   1      28.777  15.570 -25.089  0.00  0.00     0.021 C 
ENDBRANCH  17  18
BRANCH  17  20
ATOM     20  C   UNL d   1      29.012  15.851 -23.447  0.00  0.00     0.080 C 
ATOM     21  C   UNL d   1      28.644  16.579 -23.269  0.00  0.00     0.021 C 
ENDBRANCH  17  20
ENDBRANCH  16  17
ENDBRANCH  15  16
ENDBRANCH  14  15
ENDBRANCH  10  12
ENDBRANCH   8   9
ENDBRANCH   3   8
BRANCH   2  22
ATOM     22  C   UNL d   1      32.747  20.949 -21.271  0.00  0.00     0.059 A 
ATOM     23  C   UNL d   1      32.262  21.566 -21.490  0.00  0.00     0.031 A 
ATOM     24  C   UNL d   1      32.242  22.272 -21.064  0.00  0.00     0.119 A 
ATOM     25  O   UNL d   1      31.818  22.971 -21.152  0.00  0.00    -0.300 OA
ATOM     26  C   UNL d   1      32.735  22.350 -20.392  0.00  0.00     0.119 A 
ATOM     27  C   UNL d   1      32.049  23.481 -20.536  0.00  0.00     0.304 A 
ATOM     28  O   UNL d   1      32.606  23.102 -20.075  0.00  0.00    -0.300 OA
ATOM     29  C   UNL d   1      33.230  21.731 -20.162  0.00  0.00     0.026 A 
ATOM     30  C   UNL d   1      33.239  21.032 -20.598  0.00  0.00     0.007 A 
ENDBRANCH   2  22
TORSDOF 9
ENDMDL
MODEL 2
REMARK VINA RESULT:       0.1      2.127      6.162
REMARK  9 active torsions:
REMARK  status: ('A' for Active; 'I' for Inactive)
REMARK       I    between atoms: C_2  and  N_1 
REMARK    1  A    between atoms: C_3  and  C_2 
REMARK    2  A    between atoms: C_15  and  C_4 
REMARK       I    between atoms: C_5  and  N_9 
REMARK    3  A    between atoms: C_6  and  C_5 
REMARK       I    between atoms: N_21  and  C_6 
REMARK    4  A    between atoms: N_9  and  C_15 
REMARK    5  A    between atoms: C_25  and  N_21 
REMARK    6  A    between atoms: N_23  and  C_26 
REMARK    7  A    between atoms: C_27  and  N_23 
REMARK    8  A    between atoms: C_28  and  N_23 
REMARK    9  A    between atoms: C_26  and  C_25 
ROOT
ATOM      1  N   UNL d   1      29.601  17.309 -24.414  0.00  0.00    -0.250 N 
ATOM      2  C   UNL d   1      29.492  16.571 -24.057  0.00  0.00     0.266 C 
ATOM      3  C   UNL d   1      30.319  17.697 -24.551  0.00  0.00     0.190 A 
ATOM      4  O   UNL d   1      30.151  16.143 -23.795  0.00  0.00    -0.267 OA
ATOM      5  O   UNL d   1      30.169  18.415 -24.918  0.00  0.00    -0.285 OA
ATOM      6  C   UNL d   1      29.007  17.806 -24.705  0.00  0.00     0.112 A 
ATOM      7  C   UNL d   1      29.356  18.483 -25.014  0.00  0.00     0.144 A 
ENDROOT
BRANCH   3   8
ATOM      8  C   UNL d   1      31.068  17.397 -24.345  0.00  0.00     0.146 C 
BRANCH   8   9
ATOM      9  N   UNL d   1      31.542  17.814 -23.815  0.00  0.00    -0.199 NA
ATOM     10  C   UNL d   1      32.331  17.607 -23.724  0.00  0.00     0.337 C 
ATOM     11  O   UNL d   1      32.657  16.984 -24.160  0.00  0.00    -0.260 OA
BRANCH  10  12
ATOM     12  C   UNL d   1      32.805  18.024 -23.194  0.00  0.00     0.337 C 
ATOM     13  O   UNL d   1      33.241  17.619 -22.625  0.00  0.00    -0.260 OA
ATOM     14  N   UNL d   1      32.840  18.841 -23.235  0.00  0.00    -0.201 NA
BRANCH  14  15
ATOM     15  C   UNL d   1      33.239  19.441 -22.814  0.00  0.00     0.121 C 
BRANCH  15  16
ATOM     16  C   UNL d   1      33.034  20.234 -22.875  0.00  0.00     0.101 C 
BRANCH  16  17
ATOM     17  N   UNL d   1      33.038  20.712 -22.207  0.00  0.00    -0.301 N 
BRANCH  17  18
ATOM     18  C   UNL d   1      32.932  20.403 -21.460  0.00  0.00     0.080 C 
ATOM     19  C   UNL d   1      33.116  20.843 -20.777  0.00  0.00     0.021 C 
ENDBRANCH  17  18
BRANCH  17  20
ATOM     20  C   UNL d   1      33.155  21.542 -22.297  0.00  0.00     0.080 C 
ATOM     21  C   UNL d   1      33.029  21.898 -23.042  0.00  0.00     0.021 C 
ENDBRANCH  17  20
ENDBRANCH  16  17
ENDBRANCH  15  16
ENDBRANCH  14  15
ENDBRANCH  10  12
ENDBRANCH   8   9
ENDBRANCH   3   8
BRANCH   2  22
ATOM     22  C   UNL d   1      28.727  16.275 -23.969  0.00  0.00     0.059 A 
ATOM     23  C   UNL d   1      28.263  16.475 -23.329  0.00  0.00     0.031 A 
ATOM     24  C   UNL d   1      27.498  16.179 -23.242  0.00  0.00     0.119 A 
ATOM     25  O   UNL d   1      26.917  16.282 -22.669  0.00  0.00    -0.300 OA
ATOM     26  C   UNL d   1      27.198  15.662 -23.827  0.00  0.00     0.119 A 
ATOM     27  C   UNL d   1      26.258  15.829 -22.899  0.00  0.00     0.304 A 
ATOM     28  O   UNL d   1      26.431  15.453 -23.603  0.00  0.00    -0.300 OA
ATOM     29  C   UNL d   1      27.659  15.453 -24.478  0.00  0.00     0.026 A 
ATOM     30  C   UNL d   1      28.422  15.757 -24.552  0.00  0.00     0.007 A 
ENDBRANCH   2  22
TORSDOF 9
ENDMDL
