MODEL 1
REMARK VINA RESULT:      -2.8      0.000      0.000
REMARK  3 active torsions:
REMARK  status: ('A' for Active; 'I' for Inactive)
REMARK    1  A    between atoms: C_8  and  C_2 
REMARK    2  A    between atoms: O_6  and  C_8 
REMARK    3  A    between atoms: C_7  and  O_6 
ROOT
ATOM      1  N   UNL d   1      33.241  20.240 -23.094  0.00  0.00    -0.224 NA
ATOM      2  C   UNL d   1      33.081  19.481 -22.820  0.00  0.00     0.188 A 
ATOM      3  N   UNL d   1      32.897  19.556 -22.020  0.00  0.00    -0.224 NA
ATOM      4  C   UNL d   1      33.158  20.764 -22.486  0.00  0.00     0.101 A 
ATOM      5  C   UNL d   1      32.943  20.336 -21.814  0.00  0.00     0.101 A 
ATOM      6  C   UNL d   1      33.241  21.566 -22.417  0.00  0.00     0.021 A 
ATOM      7  C   UNL d   1      32.818  20.727 -21.098  0.00  0.00     0.021 A 
ATOM      8  C   UNL d   1      32.909  21.546 -21.055  0.00  0.00     0.002 A 
ATOM      9  C   UNL d   1      33.125  21.974 -21.726  0.00  0.00     0.002 A 
ENDROOT
BRANCH   2  10
ATOM     10  C   UNL d   1      32.989  18.683 -22.850  0.00  0.00     0.161 C 
BRANCH  10  11
ATOM     11  O   UNL d   1      32.697  18.371 -23.482  0.00  0.00    -0.302 OA
BRANCH  11  12
ATOM     12  C   UNL d   1      32.653  17.526 -23.567  0.00  0.00     0.100 A 
ATOM     13  C   UNL d   1      32.092  17.200 -24.035  0.00  0.00     0.023 A 
ATOM     14  C   UNL d   1      31.553  17.670 -24.439  0.00  0.00     0.002 C 
ATOM     15  C   UNL d   1      32.058  16.375 -24.111  0.00  0.00     0.002 A 
ATOM     16  C   UNL d   1      32.600  15.903 -23.706  0.00  0.00     0.000 A 
ATOM     17  C   UNL d   1      33.195  16.240 -23.209  0.00  0.00     0.002 A 
ATOM     18  C   UNL d   1      33.207  17.077 -23.150  0.00  0.00     0.025 A 
ENDBRANCH  11  12
ENDBRANCH  10  11
ENDBRANCH   2  10
TORSDOF 3
ENDMDL
MODEL 2
REMARK VINA RESULT:      -2.4      2.651      4.851
REMARK  3 active torsions:
REMARK  status: ('A' for Active; 'I' for Inactive)
REMARK    1  A    between atoms: C_8  and  C_2 
REMARK    2  A    between atoms: O_6  and  C_8 
REMARK    3  A    between atoms: C_7  and  O_6 
ROOT
ATOM      1  N   UNL d   1      30.235  16.097 -23.906  0.00  0.00    -0.224 NA
ATOM      2  C   UNL d   1      30.462  16.850 -24.147  0.00  0.00     0.188 A 
ATOM      3  N   UNL d   1      29.766  17.272 -24.278  0.00  0.00    -0.224 NA
ATOM      4  C   UNL d   1      29.429  16.057 -23.889  0.00  0.00     0.101 A 
ATOM      5  C   UNL d   1      29.136  16.792 -24.121  0.00  0.00     0.101 A 
ATOM      6  C   UNL d   1      28.897  15.476 -23.701  0.00  0.00     0.021 A 
ATOM      7  C   UNL d   1      28.321  16.920 -24.157  0.00  0.00     0.021 A 
ATOM      8  C   UNL d   1      27.800  16.310 -23.960  0.00  0.00     0.002 A 
ATOM      9  C   UNL d   1      28.093  15.575 -23.728  0.00  0.00     0.002 A 
ENDROOT
BRANCH   2  10
ATOM     10  C   UNL d   1      30.960  17.450 -24.341  0.00  0.00     0.161 C 
BRANCH  10  11
ATOM     11  O   UNL d   1      31.629  17.504 -23.980  0.00  0.00    -0.302 OA
BRANCH  11  12
ATOM     12  C   UNL d   1      32.167  18.139 -24.154  0.00  0.00     0.100 A 
ATOM     13  C   UNL d   1      32.721  18.352 -23.618  0.00  0.00     0.023 A 
ATOM     14  C   UNL d   1      32.781  17.966 -22.896  0.00  0.00     0.002 C 
ATOM     15  C   UNL d   1      33.241  18.972 -23.799  0.00  0.00     0.002 A 
ATOM     16  C   UNL d   1      33.180  19.360 -24.524  0.00  0.00     0.000 A 
ATOM     17  C   UNL d   1      32.598  19.140 -25.095  0.00  0.00     0.002 A 
ATOM     18  C   UNL d   1      32.085  18.509 -24.887  0.00  0.00     0.025 A 
ENDBRANCH  11  12
ENDBRANCH  10  11
ENDBRANCH   2  10
TORSDOF 3
ENDMDL
MODEL 3
REMARK VINA RESULT:      -2.0      1.237      4.329
REMARK  3 active torsions:
REMARK  status: ('A' for Active; 'I' for Inactive)
REMARK    1  A    between atoms: C_8  and  C_2 
REMARK    2  A    between atoms: O_6  and  C_8 
REMARK    3  A    between atoms: C_7  and  O_6 
ROOT
ATOM      1  N   UNL d   1      32.166  17.687 -24.531  0.00  0.00    -0.224 NA
ATOM      2  C   UNL d   1      32.368  17.961 -23.781  0.00  0.00     0.188 A 
ATOM      3  N   UNL d   1      32.162  17.364 -23.252  0.00  0.00    -0.224 NA
ATOM      4  C   UNL d   1      31.848  16.948 -24.465  0.00  0.00     0.101 A 
ATOM      5  C   UNL d   1      31.845  16.746 -23.665  0.00  0.00     0.101 A 
ATOM      6  C   UNL d   1      31.554  16.411 -24.994  0.00  0.00     0.021 A 
ATOM      7  C   UNL d   1      31.549  16.015 -23.424  0.00  0.00     0.021 A 
ATOM      8  C   UNL d   1      31.255  15.485 -23.985  0.00  0.00     0.002 A 
ATOM      9  C   UNL d   1      31.258  15.686 -24.785  0.00  0.00     0.002 A 
ENDROOT
BRANCH   2  10
ATOM     10  C   UNL d   1      32.651  18.469 -23.227  0.00  0.00     0.161 C 
BRANCH  10  11
ATOM     11  O   UNL d   1      32.908  19.151 -23.451  0.00  0.00    -0.302 OA
BRANCH  11  12
ATOM     12  C   UNL d   1      33.014  19.781 -22.890  0.00  0.00     0.100 A 
ATOM     13  C   UNL d   1      33.139  20.528 -23.146  0.00  0.00     0.023 A 
ATOM     14  C   UNL d   1      33.167  20.701 -23.948  0.00  0.00     0.002 C 
ATOM     15  C   UNL d   1      33.241  21.135 -22.589  0.00  0.00     0.002 A 
ATOM     16  C   UNL d   1      33.213  20.960 -21.783  0.00  0.00     0.000 A 
ATOM     17  C   UNL d   1      33.082  20.173 -21.505  0.00  0.00     0.002 A 
ATOM     18  C   UNL d   1      32.982  19.579 -22.090  0.00  0.00     0.025 A 
ENDBRANCH  11  12
ENDBRANCH  10  11
ENDBRANCH   2  10
TORSDOF 3
ENDMDL
MODEL 4
REMARK VINA RESULT:      -1.3      3.337      4.557
REMARK  3 active torsions:
REMARK  status: ('A' for Active; 'I' for Inactive)
REMARK    1  A    between atoms: C_8  and  C_2 
REMARK    2  A    between atoms: O_6  and  C_8 
REMARK    3  A    between atoms: C_7  and  O_6 
ROOT
ATOM      1  N   UNL d   1      33.035  21.891 -20.824  0.00  0.00    -0.224 NA
ATOM      2  C   UNL d   1      33.121  22.448 -21.423  0.00  0.00     0.188 A 
ATOM      3  N   UNL d   1      33.207  23.179 -21.052  0.00  0.00    -0.224 NA
ATOM      4  C   UNL d   1      33.066  22.265 -20.110  0.00  0.00     0.101 A 
ATOM      5  C   UNL d   1      33.173  23.070 -20.252  0.00  0.00     0.101 A 
ATOM      6  C   UNL d   1      33.015  22.017 -19.341  0.00  0.00     0.021 A 
ATOM      7  C   UNL d   1      33.226  23.598 -19.620  0.00  0.00     0.021 A 
ATOM      8  C   UNL d   1      33.171  23.319 -18.845  0.00  0.00     0.002 A 
ATOM      9  C   UNL d   1      33.063  22.513 -18.702  0.00  0.00     0.002 A 
ENDROOT
BRANCH   2  10
ATOM     10  C   UNL d   1      33.176  22.731 -22.174  0.00  0.00     0.161 C 
BRANCH  10  11
ATOM     11  O   UNL d   1      33.081  22.248 -22.756  0.00  0.00    -0.302 OA
BRANCH  11  12
ATOM     12  C   UNL d   1      33.052  22.533 -23.557  0.00  0.00     0.100 A 
ATOM     13  C   UNL d   1      33.131  22.022 -24.166  0.00  0.00     0.023 A 
ATOM     14  C   UNL d   1      33.241  21.220 -24.034  0.00  0.00     0.002 C 
ATOM     15  C   UNL d   1      33.101  22.312 -24.943  0.00  0.00     0.002 A 
ATOM     16  C   UNL d   1      32.990  23.118 -25.076  0.00  0.00     0.000 A 
ATOM     17  C   UNL d   1      32.906  23.664 -24.437  0.00  0.00     0.002 A 
ATOM     18  C   UNL d   1      32.940  23.345 -23.661  0.00  0.00     0.025 A 
ENDBRANCH  11  12
ENDBRANCH  10  11
ENDBRANCH   2  10
TORSDOF 3
ENDMDL
MODEL 5
REMARK VINA RESULT:      -0.8      3.992      5.617
REMARK  3 active torsions:
REMARK  status: ('A' for Active; 'I' for Inactive)
REMARK    1  A    between atoms: C_8  and  C_2 
REMARK    2  A    between atoms: O_6  and  C_8 
REMARK    3  A    between atoms: C_7  and  O_6 
ROOT
ATOM      1  N   UNL d   1      31.779  22.834 -18.671  0.00  0.00    -0.224 NA
ATOM      2  C   UNL d   1      32.291  23.090 -19.262  0.00  0.00     0.188 A 
ATOM      3  N   UNL d   1      32.922  23.458 -18.879  0.00  0.00    -0.224 NA
ATOM      4  C   UNL d   1      32.083  23.037 -17.951  0.00  0.00     0.101 A 
ATOM      5  C   UNL d   1      32.798  23.427 -18.082  0.00  0.00     0.101 A 
ATOM      6  C   UNL d   1      31.837  22.937 -17.187  0.00  0.00     0.021 A 
ATOM      7  C   UNL d   1      33.241  23.702 -17.442  0.00  0.00     0.021 A 
ATOM      8  C   UNL d   1      32.967  23.587 -16.672  0.00  0.00     0.002 A 
ATOM      9  C   UNL d   1      32.252  23.197 -16.541  0.00  0.00     0.002 A 
ENDROOT
BRANCH   2  10
ATOM     10  C   UNL d   1      32.567  23.208 -20.007  0.00  0.00     0.161 C 
BRANCH  10  11
ATOM     11  O   UNL d   1      32.610  22.612 -20.481  0.00  0.00    -0.302 OA
BRANCH  11  12
ATOM     12  C   UNL d   1      32.777  22.726 -21.307  0.00  0.00     0.100 A 
ATOM     13  C   UNL d   1      33.030  22.112 -21.752  0.00  0.00     0.023 A 
ATOM     14  C   UNL d   1      33.134  21.366 -21.424  0.00  0.00     0.002 C 
ATOM     15  C   UNL d   1      33.190  22.234 -22.557  0.00  0.00     0.002 A 
ATOM     16  C   UNL d   1      33.086  22.983 -22.886  0.00  0.00     0.000 A 
ATOM     17  C   UNL d   1      32.818  23.637 -22.422  0.00  0.00     0.002 A 
ATOM     18  C   UNL d   1      32.664  23.485 -21.611  0.00  0.00     0.025 A 
ENDBRANCH  11  12
ENDBRANCH  10  11
ENDBRANCH   2  10
TORSDOF 3
ENDMDL
MODEL 6
REMARK VINA RESULT:      -0.6      1.003      1.464
REMARK  3 active torsions:
REMARK  status: ('A' for Active; 'I' for Inactive)
REMARK    1  A    between atoms: C_8  and  C_2 
REMARK    2  A    between atoms: O_6  and  C_8 
REMARK    3  A    between atoms: C_7  and  O_6 
ROOT
ATOM      1  N   UNL d   1      33.241  21.478 -22.258  0.00  0.00    -0.224 NA
ATOM      2  C   UNL d   1      33.018  20.695 -22.135  0.00  0.00     0.188 A 
ATOM      3  N   UNL d   1      32.552  20.689 -21.456  0.00  0.00    -0.224 NA
ATOM      4  C   UNL d   1      32.923  21.937 -21.675  0.00  0.00     0.101 A 
ATOM      5  C   UNL d   1      32.492  21.444 -21.173  0.00  0.00     0.101 A 
ATOM      6  C   UNL d   1      32.946  22.728 -21.505  0.00  0.00     0.021 A 
ATOM      7  C   UNL d   1      32.101  21.760 -20.520  0.00  0.00     0.021 A 
ATOM      8  C   UNL d   1      32.140  22.571 -20.368  0.00  0.00     0.002 A 
ATOM      9  C   UNL d   1      32.571  23.064 -20.870  0.00  0.00     0.002 A 
ENDROOT
BRANCH   2  10
ATOM     10  C   UNL d   1      32.973  19.904 -22.273  0.00  0.00     0.161 C 
BRANCH  10  11
ATOM     11  O   UNL d   1      33.047  19.651 -22.988  0.00  0.00    -0.302 OA
BRANCH  11  12
ATOM     12  C   UNL d   1      33.058  18.817 -23.155  0.00  0.00     0.100 A 
ATOM     13  C   UNL d   1      32.916  18.556 -23.897  0.00  0.00     0.023 A 
ATOM     14  C   UNL d   1      32.758  19.082 -24.507  0.00  0.00     0.002 C 
ATOM     15  C   UNL d   1      32.929  17.741 -24.048  0.00  0.00     0.002 A 
ATOM     16  C   UNL d   1      33.088  17.213 -23.434  0.00  0.00     0.000 A 
ATOM     17  C   UNL d   1      33.239  17.482 -22.648  0.00  0.00     0.002 A 
ATOM     18  C   UNL d   1      33.220  18.312 -22.523  0.00  0.00     0.025 A 
ENDBRANCH  11  12
ENDBRANCH  10  11
ENDBRANCH   2  10
TORSDOF 3
ENDMDL
