MODEL 1
REMARK VINA RESULT:      42.5      0.000      0.000
REMARK  5 active torsions:
REMARK  status: ('A' for Active; 'I' for Inactive)
REMARK    1  A    between atoms: S_6  and  C_3 
REMARK    2  A    between atoms: C_10  and  C_4 
REMARK    3  A    between atoms: C_5  and  C_7 
REMARK    4  A    between atoms: C_9  and  C_5 
REMARK    5  A    between atoms: C_7  and  S_6 
ROOT
ATOM      1  N   UNL d   1      58.544  49.627  51.334  0.00  0.00    -0.148 NA
ATOM      2  N   UNL d   1      59.326  49.620  51.605  0.00  0.00    -0.141 NA
ATOM      3  C   UNL d   1      59.952  49.657  51.070  0.00  0.00     0.133 A 
ATOM      4  C   UNL d   1      58.393  49.669  50.521  0.00  0.00     0.103 A 
ATOM      5  C   UNL d   1      59.012  49.706  49.983  0.00  0.00     0.023 A 
ATOM      6  C   UNL d   1      59.791  49.700  50.249  0.00  0.00     0.029 A 
ENDROOT
BRANCH   3   7
ATOM      7  S   UNL d   1      60.725  49.650  51.342  0.00  0.00    -0.062 SA
BRANCH   7   8
ATOM      8  C   UNL d   1      61.170  48.957  51.306  0.00  0.00     0.079 C 
BRANCH   8   9
ATOM      9  C   UNL d   1      61.279  48.566  50.574  0.00  0.00     0.202 C 
ATOM     10  O   UNL d   1      61.334  49.000  49.886  0.00  0.00    -0.286 OA
BRANCH   9  11
ATOM     11  C   UNL d   1      61.331  47.748  50.555  0.00  0.00     0.040 A 
ATOM     12  C   UNL d   1      60.949  47.298  51.131  0.00  0.00     0.003 A 
ATOM     13  C   UNL d   1      60.995  46.476  51.122  0.00  0.00     0.000 A 
ATOM     14  C   UNL d   1      61.435  46.102  50.519  0.00  0.00     0.000 A 
ATOM     15  C   UNL d   1      61.817  46.553  49.943  0.00  0.00     0.000 A 
ATOM     16  C   UNL d   1      61.760  47.374  49.968  0.00  0.00     0.003 A 
ENDBRANCH   9  11
ENDBRANCH   8   9
ENDBRANCH   7   8
ENDBRANCH   3   7
BRANCH   4  17
ATOM     17  C   UNL d   1      57.612  49.676  50.250  0.00  0.00     0.019 A 
ATOM     18  C   UNL d   1      56.982  49.701  50.793  0.00  0.00     0.002 A 
ATOM     19  C   UNL d   1      56.197  49.707  50.521  0.00  0.00     0.000 A 
ATOM     20  C   UNL d   1      56.038  49.688  49.704  0.00  0.00     0.000 A 
ATOM     21  C   UNL d   1      56.658  49.663  49.170  0.00  0.00     0.000 A 
ATOM     22  C   UNL d   1      57.447  49.657  49.431  0.00  0.00     0.002 A 
ENDBRANCH   4  17
TORSDOF 5
ENDMDL
