MODEL 1
REMARK VINA RESULT:      -3.1      0.000      0.000
REMARK  4 active torsions:
REMARK  status: ('A' for Active; 'I' for Inactive)
REMARK    1  A    between atoms: C_2  and  N_1 
REMARK       I    between atoms: C_3  and  N_1 
REMARK    2  A    between atoms: N_5  and  C_2 
REMARK    3  A    between atoms: C_4  and  C_3 
REMARK    4  A    between atoms: C_7  and  N_5 
ROOT
ATOM      1  C   UNL d   1      31.053  16.696 -24.235  0.00  0.00     0.224 C 
ATOM      2  S   UNL d   1      31.405  16.018 -24.550  0.00  0.00    -0.037 SA
ENDROOT
BRANCH   1   3
ATOM      3  N   UNL d   1      31.484  17.192 -23.736  0.00  0.00    -0.177 NA
ATOM      4  C   UNL d   1      32.137  17.608 -24.023  0.00  0.00     0.304 C 
ATOM      5  O   UNL d   1      32.356  17.525 -24.814  0.00  0.00    -0.263 OA
BRANCH   4   6
ATOM      6  C   UNL d   1      32.568  18.105 -23.524  0.00  0.00     0.158 A 
ATOM      7  O   UNL d   1      32.836  17.905 -22.764  0.00  0.00    -0.300 OA
ATOM      8  C   UNL d   1      33.241  18.569 -22.470  0.00  0.00     0.123 A 
ATOM      9  C   UNL d   1      33.219  19.162 -23.043  0.00  0.00     0.029 A 
ATOM     10  C   UNL d   1      32.802  18.874 -23.694  0.00  0.00     0.032 A 
ENDBRANCH   4   6
ENDBRANCH   1   3
BRANCH   1  11
ATOM     11  N   UNL d   1      30.264  16.874 -24.425  0.00  0.00    -0.215 NA
BRANCH  11  12
ATOM     12  C   UNL d   1      29.645  16.514 -24.017  0.00  0.00     0.112 A 
ATOM     13  C   UNL d   1      28.881  16.851 -24.033  0.00  0.00     0.156 A 
ATOM     14  N   UNL d   1      28.262  16.491 -23.625  0.00  0.00    -0.231 NA
ATOM     15 CL   UNL d   1      28.749  17.552 -24.462  0.00  0.00    -0.060 Cl
ATOM     16  C   UNL d   1      28.397  15.796 -23.201  0.00  0.00     0.100 A 
ATOM     17  C   UNL d   1      29.154  15.462 -23.185  0.00  0.00     0.022 A 
ATOM     18  C   UNL d   1      29.780  15.819 -23.593  0.00  0.00     0.023 A 
ENDBRANCH  11  12
ENDBRANCH   1  11
TORSDOF 4
ENDMDL
MODEL 2
REMARK VINA RESULT:      -2.3      1.505      1.917
REMARK  4 active torsions:
REMARK  status: ('A' for Active; 'I' for Inactive)
REMARK    1  A    between atoms: C_2  and  N_1 
REMARK       I    between atoms: C_3  and  N_1 
REMARK    2  A    between atoms: N_5  and  C_2 
REMARK    3  A    between atoms: C_4  and  C_3 
REMARK    4  A    between atoms: C_7  and  N_5 
ROOT
ATOM      1  C   UNL d   1      32.111  17.741 -24.152  0.00  0.00     0.224 C 
ATOM      2  S   UNL d   1      32.031  18.063 -24.908  0.00  0.00    -0.037 SA
ENDROOT
BRANCH   1   3
ATOM      3  N   UNL d   1      32.257  18.233 -23.506  0.00  0.00    -0.177 NA
ATOM      4  C   UNL d   1      32.820  18.834 -23.558  0.00  0.00     0.304 C 
ATOM      5  O   UNL d   1      33.237  18.941 -24.263  0.00  0.00    -0.263 OA
BRANCH   4   6
ATOM      6  C   UNL d   1      32.966  19.327 -22.912  0.00  0.00     0.158 A 
ATOM      7  O   UNL d   1      32.969  19.087 -22.117  0.00  0.00    -0.300 OA
ATOM      8  C   UNL d   1      33.141  19.762 -21.663  0.00  0.00     0.123 A 
ATOM      9  C   UNL d   1      33.240  20.401 -22.175  0.00  0.00     0.029 A 
ATOM     10  C   UNL d   1      33.132  20.131 -22.946  0.00  0.00     0.032 A 
ENDBRANCH   4   6
ENDBRANCH   1   3
BRANCH   1  11
ATOM     11  N   UNL d   1      32.043  16.920 -24.047  0.00  0.00    -0.215 NA
BRANCH  11  12
ATOM     12  C   UNL d   1      31.301  16.565 -23.993  0.00  0.00     0.112 A 
ATOM     13  C   UNL d   1      31.193  15.891 -23.513  0.00  0.00     0.156 A 
ATOM     14  N   UNL d   1      30.450  15.536 -23.459  0.00  0.00    -0.231 NA
ATOM     15 CL   UNL d   1      31.838  15.579 -23.089  0.00  0.00    -0.060 Cl
ATOM     16  C   UNL d   1      29.814  15.848 -23.880  0.00  0.00     0.100 A 
ATOM     17  C   UNL d   1      29.920  16.516 -24.356  0.00  0.00     0.022 A 
ATOM     18  C   UNL d   1      30.664  16.877 -24.415  0.00  0.00     0.023 A 
ENDBRANCH  11  12
ENDBRANCH   1  11
TORSDOF 4
ENDMDL
MODEL 3
REMARK VINA RESULT:      -1.8      2.079      4.313
REMARK  4 active torsions:
REMARK  status: ('A' for Active; 'I' for Inactive)
REMARK    1  A    between atoms: C_2  and  N_1 
REMARK       I    between atoms: C_3  and  N_1 
REMARK    2  A    between atoms: N_5  and  C_2 
REMARK    3  A    between atoms: C_4  and  C_3 
REMARK    4  A    between atoms: C_7  and  N_5 
ROOT
ATOM      1  C   UNL d   1      32.872  18.128 -23.890  0.00  0.00     0.224 C 
ATOM      2  S   UNL d   1      33.215  18.236 -24.633  0.00  0.00    -0.037 SA
ENDROOT
BRANCH   1   3
ATOM      3  N   UNL d   1      32.169  17.703 -23.816  0.00  0.00    -0.177 NA
ATOM      4  C   UNL d   1      32.177  16.878 -23.825  0.00  0.00     0.304 C 
ATOM      5  O   UNL d   1      32.896  16.479 -23.909  0.00  0.00    -0.263 OA
BRANCH   4   6
ATOM      6  C   UNL d   1      31.474  16.452 -23.751  0.00  0.00     0.158 A 
ATOM      7  O   UNL d   1      30.740  16.680 -24.066  0.00  0.00    -0.300 OA
ATOM      8  C   UNL d   1      30.195  16.089 -23.856  0.00  0.00     0.123 A 
ATOM      9  C   UNL d   1      30.591  15.511 -23.421  0.00  0.00     0.029 A 
ATOM     10  C   UNL d   1      31.382  15.737 -23.357  0.00  0.00     0.032 A 
ENDBRANCH   4   6
ENDBRANCH   1   3
BRANCH   1  11
ATOM     11  N   UNL d   1      33.241  18.450 -23.219  0.00  0.00    -0.215 NA
BRANCH  11  12
ATOM     12  C   UNL d   1      33.241  19.265 -23.092  0.00  0.00     0.112 A 
ATOM     13  C   UNL d   1      33.241  19.567 -22.313  0.00  0.00     0.156 A 
ATOM     14  N   UNL d   1      33.241  20.382 -22.187  0.00  0.00    -0.231 NA
ATOM     15 CL   UNL d   1      33.241  19.042 -21.667  0.00  0.00    -0.060 Cl
ATOM     16  C   UNL d   1      33.241  20.898 -22.830  0.00  0.00     0.100 A 
ATOM     17  C   UNL d   1      33.241  20.599 -23.601  0.00  0.00     0.022 A 
ATOM     18  C   UNL d   1      33.241  19.781 -23.735  0.00  0.00     0.023 A 
ENDBRANCH  11  12
ENDBRANCH   1  11
TORSDOF 4
ENDMDL
MODEL 4
REMARK VINA RESULT:      -1.7      2.001      4.026
REMARK  4 active torsions:
REMARK  status: ('A' for Active; 'I' for Inactive)
REMARK    1  A    between atoms: C_2  and  N_1 
REMARK       I    between atoms: C_3  and  N_1 
REMARK    2  A    between atoms: N_5  and  C_2 
REMARK    3  A    between atoms: C_4  and  C_3 
REMARK    4  A    between atoms: C_7  and  N_5 
ROOT
ATOM      1  C   UNL d   1      30.631  17.353 -24.829  0.00  0.00     0.224 C 
ATOM      2  S   UNL d   1      30.420  18.130 -25.015  0.00  0.00    -0.037 SA
ENDROOT
BRANCH   1   3
ATOM      3  N   UNL d   1      30.097  16.861 -24.440  0.00  0.00    -0.177 NA
ATOM      4  C   UNL d   1      29.285  16.952 -24.554  0.00  0.00     0.304 C 
ATOM      5  O   UNL d   1      29.010  17.542 -25.063  0.00  0.00    -0.263 OA
BRANCH   4   6
ATOM      6  C   UNL d   1      28.749  16.459 -24.165  0.00  0.00     0.158 A 
ATOM      7  O   UNL d   1      28.421  15.764 -24.479  0.00  0.00    -0.300 OA
ATOM      8  C   UNL d   1      27.917  15.453 -23.897  0.00  0.00     0.123 A 
ATOM      9  C   UNL d   1      27.938  15.950 -23.240  0.00  0.00     0.029 A 
ATOM     10  C   UNL d   1      28.453  16.573 -23.407  0.00  0.00     0.032 A 
ENDBRANCH   4   6
ENDBRANCH   1   3
BRANCH   1  11
ATOM     11  N   UNL d   1      31.385  17.074 -25.038  0.00  0.00    -0.215 NA
BRANCH  11  12
ATOM     12  C   UNL d   1      32.002  17.086 -24.490  0.00  0.00     0.112 A 
ATOM     13  C   UNL d   1      32.578  16.482 -24.495  0.00  0.00     0.156 A 
ATOM     14  N   UNL d   1      33.195  16.494 -23.947  0.00  0.00    -0.231 NA
ATOM     15 CL   UNL d   1      32.528  15.868 -25.056  0.00  0.00    -0.060 Cl
ATOM     16  C   UNL d   1      33.241  17.104 -23.394  0.00  0.00     0.100 A 
ATOM     17  C   UNL d   1      32.670  17.702 -23.388  0.00  0.00     0.022 A 
ATOM     18  C   UNL d   1      32.048  17.696 -23.936  0.00  0.00     0.023 A 
ENDBRANCH  11  12
ENDBRANCH   1  11
TORSDOF 4
ENDMDL
MODEL 5
REMARK VINA RESULT:      -1.4      3.261      4.482
REMARK  4 active torsions:
REMARK  status: ('A' for Active; 'I' for Inactive)
REMARK    1  A    between atoms: C_2  and  N_1 
REMARK       I    between atoms: C_3  and  N_1 
REMARK    2  A    between atoms: N_5  and  C_2 
REMARK    3  A    between atoms: C_4  and  C_3 
REMARK    4  A    between atoms: C_7  and  N_5 
ROOT
ATOM      1  C   UNL d   1      32.949  19.986 -22.353  0.00  0.00     0.224 C 
ATOM      2  S   UNL d   1      32.961  19.416 -21.756  0.00  0.00    -0.037 SA
ENDROOT
BRANCH   1   3
ATOM      3  N   UNL d   1      32.661  20.743 -22.197  0.00  0.00    -0.177 NA
ATOM      4  C   UNL d   1      32.791  21.097 -21.463  0.00  0.00     0.304 C 
ATOM      5  O   UNL d   1      33.213  20.686 -20.883  0.00  0.00    -0.263 OA
BRANCH   4   6
ATOM      6  C   UNL d   1      32.503  21.854 -21.306  0.00  0.00     0.158 A 
ATOM      7  O   UNL d   1      31.954  22.045 -20.713  0.00  0.00    -0.300 OA
ATOM      8  C   UNL d   1      31.827  22.865 -20.759  0.00  0.00     0.123 A 
ATOM      9  C   UNL d   1      32.292  23.167 -21.370  0.00  0.00     0.029 A 
ATOM     10  C   UNL d   1      32.710  22.541 -21.707  0.00  0.00     0.032 A 
ENDBRANCH   4   6
ENDBRANCH   1   3
BRANCH   1  11
ATOM     11  N   UNL d   1      33.230  19.792 -23.111  0.00  0.00    -0.215 NA
BRANCH  11  12
ATOM     12  C   UNL d   1      32.867  19.196 -23.550  0.00  0.00     0.112 A 
ATOM     13  C   UNL d   1      32.839  19.248 -24.383  0.00  0.00     0.156 A 
ATOM     14  N   UNL d   1      32.476  18.652 -24.823  0.00  0.00    -0.231 NA
ATOM     15 CL   UNL d   1      33.178  19.904 -24.767  0.00  0.00    -0.060 Cl
ATOM     16  C   UNL d   1      32.141  18.004 -24.439  0.00  0.00     0.100 A 
ATOM     17  C   UNL d   1      32.169  17.951 -23.614  0.00  0.00     0.022 A 
ATOM     18  C   UNL d   1      32.532  18.547 -23.166  0.00  0.00     0.023 A 
ENDBRANCH  11  12
ENDBRANCH   1  11
TORSDOF 4
ENDMDL
MODEL 6
REMARK VINA RESULT:      -0.3      5.998      7.484
REMARK  4 active torsions:
REMARK  status: ('A' for Active; 'I' for Inactive)
REMARK    1  A    between atoms: C_2  and  N_1 
REMARK       I    between atoms: C_3  and  N_1 
REMARK    2  A    between atoms: N_5  and  C_2 
REMARK    3  A    between atoms: C_4  and  C_3 
REMARK    4  A    between atoms: C_7  and  N_5 
ROOT
ATOM      1  C   UNL d   1      32.389  22.633 -19.703  0.00  0.00     0.224 C 
ATOM      2  S   UNL d   1      32.084  23.316 -20.053  0.00  0.00    -0.037 SA
ENDROOT
BRANCH   1   3
ATOM      3  N   UNL d   1      32.745  22.672 -18.961  0.00  0.00    -0.177 NA
ATOM      4  C   UNL d   1      32.332  22.976 -18.314  0.00  0.00     0.304 C 
ATOM      5  O   UNL d   1      31.556  23.241 -18.416  0.00  0.00    -0.263 OA
BRANCH   4   6
ATOM      6  C   UNL d   1      32.688  23.015 -17.571  0.00  0.00     0.158 A 
ATOM      7  O   UNL d   1      32.885  22.361 -17.098  0.00  0.00    -0.300 OA
ATOM      8  C   UNL d   1      33.229  22.662 -16.404  0.00  0.00     0.123 A 
ATOM      9  C   UNL d   1      33.241  23.485 -16.454  0.00  0.00     0.029 A 
ATOM     10  C   UNL d   1      32.906  23.702 -17.176  0.00  0.00     0.032 A 
ENDBRANCH   4   6
ENDBRANCH   1   3
BRANCH   1  11
ATOM     11  N   UNL d   1      32.334  21.908 -20.105  0.00  0.00    -0.215 NA
BRANCH  11  12
ATOM     12  C   UNL d   1      32.537  21.855 -20.902  0.00  0.00     0.112 A 
ATOM     13  C   UNL d   1      32.622  21.107 -21.264  0.00  0.00     0.156 A 
ATOM     14  N   UNL d   1      32.826  21.054 -22.061  0.00  0.00    -0.231 NA
ATOM     15 CL   UNL d   1      32.501  20.416 -20.815  0.00  0.00    -0.060 Cl
ATOM     16  C   UNL d   1      32.945  21.741 -22.502  0.00  0.00     0.100 A 
ATOM     17  C   UNL d   1      32.860  22.482 -22.144  0.00  0.00     0.022 A 
ATOM     18  C   UNL d   1      32.656  22.542 -21.343  0.00  0.00     0.023 A 
ENDBRANCH  11  12
ENDBRANCH   1  11
TORSDOF 4
ENDMDL
