MODEL 1
REMARK VINA RESULT:      18.3      0.000      0.000
REMARK  4 active torsions:
REMARK  status: ('A' for Active; 'I' for Inactive)
REMARK    1  A    between atoms: N_7  and  C_3 
REMARK       I    between atoms: C_8  and  N_7 
REMARK    2  A    between atoms: C_14  and  C_8 
REMARK    3  A    between atoms: C_15  and  C_14 
REMARK    4  A    between atoms: C_16  and  C_14 
ROOT
ATOM      1  C   UNL d   1      60.481  49.613  50.506  0.00  0.00     0.343 A 
ATOM      2  N   UNL d   1      59.770  49.646  50.107  0.00  0.00    -0.241 N 
ATOM      3  C   UNL d   1      59.063  49.674  50.524  0.00  0.00     0.159 A 
ATOM      4  N   UNL d   1      60.491  49.607  51.330  0.00  0.00    -0.224 N 
ATOM      5  C   UNL d   1      59.073  49.668  51.348  0.00  0.00     0.099 A 
ATOM      6  C   UNL d   1      59.790  49.635  51.764  0.00  0.00     0.271 A 
ATOM      7  O   UNL d   1      61.191  49.586  50.086  0.00  0.00    -0.245 OA
ATOM      8  O   UNL d   1      59.799  49.629  52.579  0.00  0.00    -0.266 OA
ATOM      9  C   UNL d   1      59.760  49.652  49.283  0.00  0.00     0.105 C 
ATOM     10  C   UNL d   1      61.211  49.574  51.733  0.00  0.00     0.107 C 
ENDROOT
BRANCH   3  11
ATOM     11  N   UNL d   1      58.343  49.707  50.121  0.00  0.00    -0.190 NA
ATOM     12  C   UNL d   1      57.642  49.542  50.517  0.00  0.00     0.280 C 
ATOM     13  O   UNL d   1      57.657  49.342  51.316  0.00  0.00    -0.265 OA
BRANCH  12  14
ATOM     14  C   UNL d   1      56.926  49.576  50.114  0.00  0.00     0.058 C 
BRANCH  14  15
ATOM     15  C   UNL d   1      56.905  49.487  49.286  0.00  0.00     0.005 C 
ATOM     16  C   UNL d   1      56.175  49.478  48.894  0.00  0.00     0.000 C 
ENDBRANCH  14  15
BRANCH  14  17
ATOM     17  C   UNL d   1      56.242  49.694  50.509  0.00  0.00     0.005 C 
ATOM     18  C   UNL d   1      56.053  49.254  51.186  0.00  0.00     0.000 C 
ENDBRANCH  14  17
ENDBRANCH  12  14
ENDBRANCH   3  11
TORSDOF 4
ENDMDL
