MODEL 1
REMARK VINA RESULT:      -3.3      0.000      0.000
REMARK  7 active torsions:
REMARK  status: ('A' for Active; 'I' for Inactive)
REMARK    1  A    between atoms: C_2  and  C_8 
REMARK    2  A    between atoms: O_17  and  C_2 
REMARK    3  A    between atoms: C_15  and  C_3 
REMARK    4  A    between atoms: C_5  and  C_16 
REMARK       I    between atoms: N_9  and  C_5 
REMARK    5  A    between atoms: C_14  and  N_9 
REMARK    6  A    between atoms: C_16  and  C_15 
REMARK    7  A    between atoms: C_21  and  O_17 
ROOT
ATOM      1  C   UNL d   1      57.668   0.253  31.068  0.00  0.00     0.064 A 
ATOM      2  C   UNL d   1      57.571   0.334  30.244  0.00  0.00     0.007 A 
ATOM      3  C   UNL d   1      58.429   0.317  31.395  0.00  0.00     0.007 A 
ATOM      4  C   UNL d   1      58.973   0.535  30.101  0.00  0.00     0.085 A 
ATOM      5  C   UNL d   1      58.224   0.473  29.769  0.00  0.00     0.019 A 
ATOM      6  C   UNL d   1      59.072   0.457  30.905  0.00  0.00     0.019 A 
ENDROOT
BRANCH   4   7
ATOM      7  N   UNL d   1      59.632   0.677  29.613  0.00  0.00    -0.208 NA
ATOM      8  C   UNL d   1      59.942   0.065  29.157  0.00  0.00     0.279 C 
ATOM      9  O   UNL d   1      60.592   0.200  28.673  0.00  0.00    -0.265 OA
BRANCH   8  10
ATOM     10  C   UNL d   1      59.603  -0.688  29.179  0.00  0.00     0.065 C 
BRANCH  10  11
ATOM     11  C   UNL d   1      59.877  -1.279  28.682  0.00  0.00     0.030 C 
BRANCH  11  12
ATOM     12  C   UNL d   1      59.635  -2.062  28.792  0.00  0.00     0.100 A 
ATOM     13  O   UNL d   1      58.951  -2.419  28.493  0.00  0.00    -0.307 OA
ATOM     14  C   UNL d   1      58.932  -3.198  28.738  0.00  0.00     0.100 A 
ATOM     15  C   UNL d   1      59.609  -3.335  29.197  0.00  0.00     0.027 A 
ATOM     16  C   UNL d   1      58.350  -3.748  28.565  0.00  0.00     0.027 C 
ATOM     17  C   UNL d   1      60.043  -2.634  29.230  0.00  0.00     0.027 A 
ENDBRANCH  11  12
ENDBRANCH  10  11
ENDBRANCH   8  10
ENDBRANCH   4   7
BRANCH   1  18
ATOM     18  C   UNL d   1      57.018   0.114  31.546  0.00  0.00     0.300 C 
ATOM     19  O   UNL d   1      56.407   0.682  31.589  0.00  0.00    -0.259 OA
BRANCH  18  20
ATOM     20  O   UNL d   1      56.958  -0.586  31.988  0.00  0.00    -0.271 OA
BRANCH  20  21
ATOM     21  C   UNL d   1      56.281  -0.710  32.456  0.00  0.00     0.126 C 
ATOM     22  C   UNL d   1      56.043  -1.488  32.621  0.00  0.00     0.029 C 
ENDBRANCH  20  21
ENDBRANCH  18  20
ENDBRANCH   1  18
TORSDOF 7
ENDMDL
MODEL 2
REMARK VINA RESULT:      -2.6      1.297      4.251
REMARK  7 active torsions:
REMARK  status: ('A' for Active; 'I' for Inactive)
REMARK    1  A    between atoms: C_2  and  C_8 
REMARK    2  A    between atoms: O_17  and  C_2 
REMARK    3  A    between atoms: C_15  and  C_3 
REMARK    4  A    between atoms: C_5  and  C_16 
REMARK       I    between atoms: N_9  and  C_5 
REMARK    5  A    between atoms: C_14  and  N_9 
REMARK    6  A    between atoms: C_16  and  C_15 
REMARK    7  A    between atoms: C_21  and  O_17 
ROOT
ATOM      1  C   UNL d   1      60.009  -2.215  29.057  0.00  0.00     0.064 A 
ATOM      2  C   UNL d   1      59.265  -2.365  28.713  0.00  0.00     0.007 A 
ATOM      3  C   UNL d   1      60.242  -1.430  29.195  0.00  0.00     0.007 A 
ATOM      4  C   UNL d   1      59.013  -0.964  28.657  0.00  0.00     0.085 A 
ATOM      5  C   UNL d   1      58.774  -1.738  28.516  0.00  0.00     0.019 A 
ATOM      6  C   UNL d   1      59.740  -0.815  28.992  0.00  0.00     0.019 A 
ENDROOT
BRANCH   4   7
ATOM      7  N   UNL d   1      58.511  -0.333  28.455  0.00  0.00    -0.208 NA
ATOM      8  C   UNL d   1      58.089   0.058  29.044  0.00  0.00     0.279 C 
ATOM      9  O   UNL d   1      57.591   0.682  28.851  0.00  0.00    -0.265 OA
BRANCH   8  10
ATOM     10  C   UNL d   1      58.160  -0.173  29.834  0.00  0.00     0.065 C 
BRANCH  10  11
ATOM     11  C   UNL d   1      57.951   0.343  30.436  0.00  0.00     0.030 C 
BRANCH  11  12
ATOM     12  C   UNL d   1      57.583   0.058  31.119  0.00  0.00     0.100 A 
ATOM     13  O   UNL d   1      57.030  -0.556  31.169  0.00  0.00    -0.307 OA
ATOM     14  C   UNL d   1      56.813  -0.651  31.951  0.00  0.00     0.100 A 
ATOM     15  C   UNL d   1      57.231  -0.093  32.399  0.00  0.00     0.027 A 
ATOM     16  C   UNL d   1      56.278  -1.199  32.243  0.00  0.00     0.027 C 
ATOM     17  C   UNL d   1      57.706   0.345  31.886  0.00  0.00     0.027 A 
ENDBRANCH  11  12
ENDBRANCH  10  11
ENDBRANCH   8  10
ENDBRANCH   4   7
BRANCH   1  18
ATOM     18  C   UNL d   1      60.502  -2.839  29.254  0.00  0.00     0.300 C 
ATOM     19  O   UNL d   1      61.062  -2.745  29.867  0.00  0.00    -0.259 OA
BRANCH  18  20
ATOM     20  O   UNL d   1      60.452  -3.564  28.853  0.00  0.00    -0.271 OA
BRANCH  20  21
ATOM     21  C   UNL d   1      60.981  -4.174  29.056  0.00  0.00     0.126 C 
ATOM     22  C   UNL d   1      60.992  -4.865  28.597  0.00  0.00     0.029 C 
ENDBRANCH  20  21
ENDBRANCH  18  20
ENDBRANCH   1  18
TORSDOF 7
ENDMDL
MODEL 3
REMARK VINA RESULT:      -0.8      1.008      1.364
REMARK  7 active torsions:
REMARK  status: ('A' for Active; 'I' for Inactive)
REMARK    1  A    between atoms: C_2  and  C_8 
REMARK    2  A    between atoms: O_17  and  C_2 
REMARK    3  A    between atoms: C_15  and  C_3 
REMARK    4  A    between atoms: C_5  and  C_16 
REMARK       I    between atoms: N_9  and  C_5 
REMARK    5  A    between atoms: C_14  and  N_9 
REMARK    6  A    between atoms: C_16  and  C_15 
REMARK    7  A    between atoms: C_21  and  O_17 
ROOT
ATOM      1  C   UNL d   1      57.104  -0.586  31.406  0.00  0.00     0.064 A 
ATOM      2  C   UNL d   1      57.051  -0.936  30.651  0.00  0.00     0.007 A 
ATOM      3  C   UNL d   1      57.612   0.062  31.518  0.00  0.00     0.007 A 
ATOM      4  C   UNL d   1      57.997   0.004  30.152  0.00  0.00     0.085 A 
ATOM      5  C   UNL d   1      57.497  -0.638  30.032  0.00  0.00     0.019 A 
ATOM      6  C   UNL d   1      58.052   0.348  30.887  0.00  0.00     0.019 A 
ENDROOT
BRANCH   4   7
ATOM      7  N   UNL d   1      58.447   0.302  29.519  0.00  0.00    -0.208 NA
ATOM      8  C   UNL d   1      59.055  -0.154  29.200  0.00  0.00     0.279 C 
ATOM      9  O   UNL d   1      59.503   0.135  28.575  0.00  0.00    -0.265 OA
BRANCH   8  10
ATOM     10  C   UNL d   1      59.220  -0.904  29.503  0.00  0.00     0.065 C 
BRANCH  10  11
ATOM     11  C   UNL d   1      59.963  -1.235  29.404  0.00  0.00     0.030 C 
BRANCH  11  12
ATOM     12  C   UNL d   1      60.049  -2.055  29.348  0.00  0.00     0.100 A 
ATOM     13  O   UNL d   1      60.737  -2.495  29.487  0.00  0.00    -0.307 OA
ATOM     14  C   UNL d   1      60.571  -3.286  29.367  0.00  0.00     0.100 A 
ATOM     15  C   UNL d   1      59.773  -3.348  29.150  0.00  0.00     0.027 A 
ATOM     16  C   UNL d   1      61.097  -3.909  29.447  0.00  0.00     0.027 C 
ATOM     17  C   UNL d   1      59.451  -2.588  29.138  0.00  0.00     0.027 A 
ENDBRANCH  11  12
ENDBRANCH  10  11
ENDBRANCH   8  10
ENDBRANCH   4   7
BRANCH   1  18
ATOM     18  C   UNL d   1      56.659  -0.881  32.027  0.00  0.00     0.300 C 
ATOM     19  O   UNL d   1      56.489  -1.698  32.061  0.00  0.00    -0.259 OA
BRANCH  18  20
ATOM     20  O   UNL d   1      56.376  -0.379  32.623  0.00  0.00    -0.271 OA
BRANCH  20  21
ATOM     21  C   UNL d   1      55.884  -0.694  33.216  0.00  0.00     0.126 C 
ATOM     22  C   UNL d   1      55.414  -0.178  33.665  0.00  0.00     0.029 C 
ENDBRANCH  20  21
ENDBRANCH  18  20
ENDBRANCH   1  18
TORSDOF 7
ENDMDL
