MODEL 1
REMARK VINA RESULT:      -4.0      0.000      0.000
REMARK  3 active torsions:
REMARK  status: ('A' for Active; 'I' for Inactive)
REMARK    1  A    between atoms: N_2  and  C_12 
REMARK    2  A    between atoms: N_10  and  C_6 
REMARK       I    between atoms: C_11  and  N_10 
REMARK    3  A    between atoms: C_12  and  C_11 
ROOT
ATOM      1  C   UNL d   1      55.981  -1.035  32.555  0.00  0.00     0.283 A 
ATOM      2  N   UNL d   1      55.556  -0.913  33.276  0.00  0.00    -0.169 NA
ATOM      3  C   UNL d   1      56.622  -0.468  32.593  0.00  0.00     0.080 A 
ATOM      4  C   UNL d   1      55.922  -0.330  33.689  0.00  0.00     0.282 A 
ATOM      5  C   UNL d   1      57.229  -0.311  32.060  0.00  0.00     0.089 A 
ATOM      6  C   UNL d   1      56.550  -0.057  33.303  0.00  0.00     0.064 A 
ATOM      7  O   UNL d   1      55.849  -1.575  31.910  0.00  0.00    -0.265 OA
ATOM      8  O   UNL d   1      55.647  -0.062  34.440  0.00  0.00    -0.265 OA
ATOM      9  C   UNL d   1      57.784   0.284  32.249  0.00  0.00     0.019 A 
ATOM     10  C   UNL d   1      57.109   0.533  33.479  0.00  0.00     0.005 A 
ATOM     11  C   UNL d   1      57.696   0.682  32.959  0.00  0.00     0.002 A 
ENDROOT
BRANCH   5  12
ATOM     12  N   UNL d   1      57.308  -0.752  31.297  0.00  0.00    -0.207 NA
ATOM     13  C   UNL d   1      57.779  -0.397  30.712  0.00  0.00     0.297 C 
ATOM     14  O   UNL d   1      58.152   0.310  30.816  0.00  0.00    -0.264 OA
BRANCH  13  15
ATOM     15  C   UNL d   1      57.849  -0.813  30.003  0.00  0.00     0.148 C 
BRANCH  15  16
ATOM     16  N   UNL d   1      58.363  -0.519  29.437  0.00  0.00    -0.236 N 
ATOM     17  C   UNL d   1      58.293   0.144  28.933  0.00  0.00     0.267 A 
ATOM     18  C   UNL d   1      58.994   0.170  28.470  0.00  0.00     0.066 A 
ATOM     19  O   UNL d   1      57.644   0.682  28.896  0.00  0.00    -0.267 OA
ATOM     20  C   UNL d   1      59.464  -0.459  28.695  0.00  0.00     0.066 A 
ATOM     21  C   UNL d   1      59.070  -0.893  29.301  0.00  0.00     0.267 A 
ATOM     22  O   UNL d   1      59.324  -1.580  29.711  0.00  0.00    -0.267 OA
ENDBRANCH  15  16
ENDBRANCH  13  15
ENDBRANCH   5  12
TORSDOF 3
ENDMDL
MODEL 2
REMARK VINA RESULT:      -2.5      1.260      4.259
REMARK  3 active torsions:
REMARK  status: ('A' for Active; 'I' for Inactive)
REMARK    1  A    between atoms: N_2  and  C_12 
REMARK    2  A    between atoms: N_10  and  C_6 
REMARK       I    between atoms: C_11  and  N_10 
REMARK    3  A    between atoms: C_12  and  C_11 
ROOT
ATOM      1  C   UNL d   1      58.355  -1.369  29.688  0.00  0.00     0.283 A 
ATOM      2  N   UNL d   1      59.062  -1.538  29.256  0.00  0.00    -0.169 NA
ATOM      3  C   UNL d   1      58.539  -0.648  30.114  0.00  0.00     0.080 A 
ATOM      4  C   UNL d   1      59.601  -0.966  29.420  0.00  0.00     0.282 A 
ATOM      5  C   UNL d   1      58.081  -0.202  30.631  0.00  0.00     0.089 A 
ATOM      6  C   UNL d   1      59.311  -0.436  29.923  0.00  0.00     0.064 A 
ATOM      7  O   UNL d   1      57.611  -1.779  29.728  0.00  0.00    -0.265 OA
ATOM      8  O   UNL d   1      60.375  -0.958  29.084  0.00  0.00    -0.265 OA
ATOM      9  C   UNL d   1      58.413   0.486  30.970  0.00  0.00     0.019 A 
ATOM     10  C   UNL d   1      59.630   0.252  30.266  0.00  0.00     0.005 A 
ATOM     11  C   UNL d   1      59.182   0.682  30.767  0.00  0.00     0.002 A 
ENDROOT
BRANCH   5  12
ATOM     12  N   UNL d   1      57.251  -0.430  30.838  0.00  0.00    -0.207 NA
ATOM     13  C   UNL d   1      56.965  -0.160  31.570  0.00  0.00     0.297 C 
ATOM     14  O   UNL d   1      57.405   0.286  32.077  0.00  0.00    -0.264 OA
BRANCH  13  15
ATOM     15  C   UNL d   1      56.191  -0.375  31.757  0.00  0.00     0.148 C 
BRANCH  15  16
ATOM     16  N   UNL d   1      56.027  -0.571  32.535  0.00  0.00    -0.236 N 
ATOM     17  C   UNL d   1      56.227  -1.252  32.977  0.00  0.00     0.267 A 
ATOM     18  C   UNL d   1      55.908  -1.143  33.746  0.00  0.00     0.066 A 
ATOM     19  O   UNL d   1      56.665  -1.919  32.703  0.00  0.00    -0.267 OA
ATOM     20  C   UNL d   1      55.530  -0.419  33.758  0.00  0.00     0.066 A 
ATOM     21  C   UNL d   1      55.603  -0.059  32.999  0.00  0.00     0.267 A 
ATOM     22  O   UNL d   1      55.311   0.682  32.735  0.00  0.00    -0.267 OA
ENDBRANCH  15  16
ENDBRANCH  13  15
ENDBRANCH   5  12
TORSDOF 3
ENDMDL
