MODEL 1
REMARK VINA RESULT:      15.6      0.000      0.000
REMARK  3 active torsions:
REMARK  status: ('A' for Active; 'I' for Inactive)
REMARK    1  A    between atoms: N_7  and  S_1 
REMARK    2  A    between atoms: C_3  and  C_8 
REMARK    3  A    between atoms: C_13  and  N_7 
ROOT
ATOM      1  C   UNL d   1      45.607 -14.578  44.466  0.00  0.00     0.018 A 
ATOM      2  C   UNL d   1      44.983 -14.995  44.790  0.00  0.00     0.003 A 
ATOM      3  C   UNL d   1      46.321 -14.961  44.300  0.00  0.00     0.003 A 
ATOM      4  C   UNL d   1      45.758 -16.185  44.791  0.00  0.00     0.093 A 
ATOM      5  C   UNL d   1      45.055 -15.799  44.953  0.00  0.00     0.020 A 
ATOM      6  C   UNL d   1      46.396 -15.762  44.462  0.00  0.00     0.020 A 
ENDROOT
BRANCH   1   7
ATOM      7  C   UNL d   1      45.536 -13.772  44.302  0.00  0.00     0.088 A 
ATOM      8  N   UNL d   1      45.335 -13.444  43.574  0.00  0.00    -0.239 NA
ATOM      9  C   UNL d   1      45.327 -12.629  43.655  0.00  0.00     0.111 A 
ATOM     10  C   UNL d   1      45.152 -12.081  43.053  0.00  0.00     0.028 C 
ATOM     11  S   UNL d   1      45.523 -12.446  44.436  0.00  0.00    -0.066 SA
ATOM     12  C   UNL d   1      45.653 -13.158  44.839  0.00  0.00     0.056 A 
ENDBRANCH   1   7
BRANCH   4  13
ATOM     13  N   UNL d   1      45.839 -16.992  44.953  0.00  0.00    -0.162 NA
BRANCH  13  14
ATOM     14  S   UNL d   1      45.924 -17.500  44.306  0.00  0.00     0.266 S 
ATOM     15  O   UNL d   1      45.437 -16.969  43.814  0.00  0.00    -0.203 OA
ATOM     16  O   UNL d   1      46.496 -18.081  44.955  0.00  0.00    -0.203 OA
ATOM     17  C   UNL d   1      46.142 -18.288  43.553  0.00  0.00     0.165 C 
ENDBRANCH  13  14
ENDBRANCH   4  13
TORSDOF 3
ENDMDL
MODEL 2
REMARK VINA RESULT:      18.0      7.702      8.391
REMARK  3 active torsions:
REMARK  status: ('A' for Active; 'I' for Inactive)
REMARK    1  A    between atoms: N_7  and  S_1 
REMARK    2  A    between atoms: C_3  and  C_8 
REMARK    3  A    between atoms: C_13  and  N_7 
ROOT
ATOM      1  C   UNL d   1      43.537 -15.586  36.500  0.00  0.00     0.018 A 
ATOM      2  C   UNL d   1      43.885 -14.853  36.609  0.00  0.00     0.003 A 
ATOM      3  C   UNL d   1      44.006 -16.264  36.448  0.00  0.00     0.003 A 
ATOM      4  C   UNL d   1      45.174 -15.450  36.619  0.00  0.00     0.093 A 
ATOM      5  C   UNL d   1      44.703 -14.783  36.668  0.00  0.00     0.020 A 
ATOM      6  C   UNL d   1      44.822 -16.197  36.508  0.00  0.00     0.020 A 
ENDROOT
BRANCH   1   7
ATOM      7  C   UNL d   1      42.718 -15.658  36.440  0.00  0.00     0.088 A 
ATOM      8  N   UNL d   1      42.295 -16.365  36.431  0.00  0.00    -0.239 NA
ATOM      9  C   UNL d   1      41.499 -16.185  36.364  0.00  0.00     0.111 A 
ATOM     10  C   UNL d   1      40.875 -16.736  36.335  0.00  0.00     0.028 C 
ATOM     11  S   UNL d   1      41.422 -15.363  36.331  0.00  0.00    -0.066 SA
ATOM     12  C   UNL d   1      42.181 -15.035  36.378  0.00  0.00     0.056 A 
ENDBRANCH   1   7
BRANCH   4  13
ATOM     13  N   UNL d   1      45.996 -15.387  36.678  0.00  0.00    -0.162 NA
BRANCH  13  14
ATOM     14  S   UNL d   1      46.297 -14.754  37.116  0.00  0.00     0.266 S 
ATOM     15  O   UNL d   1      46.531 -14.346  36.381  0.00  0.00    -0.203 OA
ATOM     16  O   UNL d   1      45.990 -15.301  37.947  0.00  0.00    -0.203 OA
ATOM     17  C   UNL d   1      46.647 -14.000  37.854  0.00  0.00     0.165 C 
ENDBRANCH  13  14
ENDBRANCH   4  13
TORSDOF 3
ENDMDL
MODEL 3
REMARK VINA RESULT:      18.4      1.644      4.000
REMARK  3 active torsions:
REMARK  status: ('A' for Active; 'I' for Inactive)
REMARK    1  A    between atoms: N_7  and  S_1 
REMARK    2  A    between atoms: C_3  and  C_8 
REMARK    3  A    between atoms: C_13  and  N_7 
ROOT
ATOM      1  C   UNL d   1      45.732 -16.065  44.516  0.00  0.00     0.018 A 
ATOM      2  C   UNL d   1      46.285 -15.485  44.351  0.00  0.00     0.003 A 
ATOM      3  C   UNL d   1      44.991 -15.858  44.818  0.00  0.00     0.003 A 
ATOM      4  C   UNL d   1      45.380 -14.479  44.782  0.00  0.00     0.093 A 
ATOM      5  C   UNL d   1      46.111 -14.691  44.483  0.00  0.00     0.020 A 
ATOM      6  C   UNL d   1      44.815 -15.067  44.951  0.00  0.00     0.020 A 
ENDROOT
BRANCH   1   7
ATOM      7  C   UNL d   1      45.904 -16.861  44.385  0.00  0.00     0.088 A 
ATOM      8  N   UNL d   1      46.105 -17.198  43.660  0.00  0.00    -0.239 NA
ATOM      9  C   UNL d   1      46.230 -17.999  43.778  0.00  0.00     0.111 A 
ATOM     10  C   UNL d   1      46.444 -18.550  43.191  0.00  0.00     0.028 C 
ATOM     11  S   UNL d   1      46.107 -18.165  44.577  0.00  0.00    -0.066 SA
ATOM     12  C   UNL d   1      45.904 -17.456  44.955  0.00  0.00     0.056 A 
ENDBRANCH   1   7
BRANCH   4  13
ATOM     13  N   UNL d   1      45.199 -13.684  44.917  0.00  0.00    -0.162 NA
BRANCH  13  14
ATOM     14  S   UNL d   1      45.233 -13.172  44.269  0.00  0.00     0.266 S 
ATOM     15  O   UNL d   1      44.559 -13.583  43.899  0.00  0.00    -0.203 OA
ATOM     16  O   UNL d   1      46.032 -12.733  44.773  0.00  0.00    -0.203 OA
ATOM     17  C   UNL d   1      45.423 -12.404  43.487  0.00  0.00     0.165 C 
ENDBRANCH  13  14
ENDBRANCH   4  13
TORSDOF 3
ENDMDL
