MODEL 1
REMARK VINA RESULT:      -4.6      0.000      0.000
REMARK  5 active torsions:
REMARK  status: ('A' for Active; 'I' for Inactive)
REMARK    1  A    between atoms: N_2  and  S_1 
REMARK    2  A    between atoms: C_9  and  S_1 
REMARK    3  A    between atoms: C_8  and  N_2 
REMARK       I    between atoms: C_14  and  N_2 
REMARK    4  A    between atoms: C_17  and  C_3 
REMARK    5  A    between atoms: N_6  and  C_5 
ROOT
ATOM      1  N   UNL d   1      58.223  -0.011  29.866  0.00  0.00    -0.198 N 
ATOM      2  C   UNL d   1      57.757   0.320  29.255  0.00  0.00     0.274 C 
ATOM      3  O   UNL d   1      58.023   0.289  28.466  0.00  0.00    -0.266 OA
ATOM      4  C   UNL d   1      57.028   0.681  29.416  0.00  0.00     0.067 C 
ENDROOT
BRANCH   1   5
ATOM      5  S   UNL d   1      57.933   0.031  30.660  0.00  0.00     0.274 S 
ATOM      6  O   UNL d   1      57.432  -0.597  30.495  0.00  0.00    -0.200 OA
ATOM      7  O   UNL d   1      58.454   0.682  30.822  0.00  0.00    -0.200 OA
BRANCH   5   8
ATOM      8  C   UNL d   1      57.638   0.057  31.427  0.00  0.00     0.106 A 
ATOM      9  C   UNL d   1      57.080  -0.465  31.672  0.00  0.00     0.037 A 
ATOM     10  C   UNL d   1      56.766  -0.461  32.440  0.00  0.00     0.138 A 
ATOM     11  C   UNL d   1      57.078   0.153  32.986  0.00  0.00     0.080 A 
ATOM     12  C   UNL d   1      57.652   0.681  32.717  0.00  0.00     0.014 A 
ATOM     13 CL   UNL d   1      56.807   0.214  33.772  0.00  0.00    -0.081 Cl
ATOM     14  C   UNL d   1      57.922   0.628  31.951  0.00  0.00     0.014 A 
BRANCH  10  15
ATOM     15  N   UNL d   1      56.188  -1.006  32.684  0.00  0.00    -0.113 N 
ATOM     16  O   UNL d   1      56.012  -1.632  32.160  0.00  0.00    -0.532 OA
ATOM     17  O   UNL d   1      55.802  -0.952  33.390  0.00  0.00    -0.532 OA
ENDBRANCH  10  15
ENDBRANCH   5   8
ENDBRANCH   1   5
BRANCH   1  18
ATOM     18  C   UNL d   1      58.943  -0.366  29.694  0.00  0.00     0.078 A 
ATOM     19  C   UNL d   1      58.956  -1.126  29.485  0.00  0.00     0.021 A 
ATOM     20  C   UNL d   1      59.672  -1.515  29.304  0.00  0.00     0.029 A 
ATOM     21  C   UNL d   1      59.835  -2.276  29.079  0.00  0.00     0.064 A 
ATOM     22  C   UNL d   1      60.385  -1.107  29.342  0.00  0.00     0.100 A 
ATOM     23  C   UNL d   1      60.641  -2.350  28.975  0.00  0.00     0.103 A 
ATOM     24  C   UNL d   1      61.074  -3.013  28.749  0.00  0.00     0.027 C 
ATOM     25  O   UNL d   1      60.981  -1.621  29.139  0.00  0.00    -0.307 OA
ATOM     26  C   UNL d   1      60.401  -0.299  29.561  0.00  0.00     0.026 A 
ATOM     27  C   UNL d   1      59.694   0.064  29.734  0.00  0.00     0.020 A 
BRANCH  21  28
ATOM     28  C   UNL d   1      59.277  -2.891  28.969  0.00  0.00     0.198 C 
ATOM     29  O   UNL d   1      58.503  -2.818  29.215  0.00  0.00    -0.286 OA
ATOM     30  C   UNL d   1      59.541  -3.603  28.590  0.00  0.00     0.045 C 
ENDBRANCH  21  28
ENDBRANCH   1  18
TORSDOF 5
ENDMDL
