MODEL 1
REMARK VINA RESULT:      38.6      0.000      0.000
REMARK  4 active torsions:
REMARK  status: ('A' for Active; 'I' for Inactive)
REMARK    1  A    between atoms: S_10  and  C_1 
REMARK    2  A    between atoms: N_3  and  C_2 
REMARK    3  A    between atoms: S_4  and  C_9 
REMARK    4  A    between atoms: C_8  and  S_10 
ROOT
ATOM      1  C   UNL d   1      14.362  12.463  -1.691  0.00  0.00     0.133 A 
ATOM      2  C   UNL d   1      14.019  12.092  -2.351  0.00  0.00     0.035 A 
ATOM      3  C   UNL d   1      14.379  13.288  -1.645  0.00  0.00     0.053 A 
ATOM      4  C   UNL d   1      13.693  12.549  -2.961  0.00  0.00     0.086 A 
ATOM      5  C   UNL d   1      14.055  13.742  -2.253  0.00  0.00     0.009 A 
ATOM      6  C   UNL d   1      13.712  13.376  -2.911  0.00  0.00     0.012 A 
ENDROOT
BRANCH   3   7
ATOM      7  S   UNL d   1      14.720  13.658  -0.990  0.00  0.00    -0.060 SA
BRANCH   7   8
ATOM      8  C   UNL d   1      14.886  14.468  -1.012  0.00  0.00     0.141 A 
ATOM      9  N   UNL d   1      14.733  14.977  -1.642  0.00  0.00    -0.232 NA
ATOM     10  C   UNL d   1      14.988  15.733  -1.425  0.00  0.00     0.088 A 
ATOM     11  C   UNL d   1      14.978  16.451  -1.821  0.00  0.00     0.020 A 
ATOM     12  C   UNL d   1      15.298  15.689  -0.664  0.00  0.00     0.049 A 
ATOM     13  C   UNL d   1      15.277  17.126  -1.457  0.00  0.00     0.002 A 
ATOM     14  C   UNL d   1      15.587  17.080  -0.695  0.00  0.00     0.001 A 
ATOM     15  C   UNL d   1      15.596  16.361  -0.300  0.00  0.00     0.008 A 
ATOM     16  S   UNL d   1      15.235  14.904  -0.406  0.00  0.00    -0.060 SA
ENDBRANCH   7   8
ENDBRANCH   3   7
BRANCH   1  17
ATOM     17  N   UNL d   1      14.688  12.006  -1.079  0.00  0.00    -0.113 N 
ATOM     18  O   UNL d   1      14.218  11.780  -0.438  0.00  0.00    -0.532 OA
ATOM     19  O   UNL d   1      15.483  11.779  -1.112  0.00  0.00    -0.532 OA
ENDBRANCH   1  17
BRANCH   4  20
ATOM     20  S   UNL d   1      13.352  12.182  -3.617  0.00  0.00     0.191 S 
ATOM     21  O   UNL d   1      13.008  11.812  -4.271  0.00  0.00    -0.222 OA
ATOM     22  O   UNL d   1      12.830  11.780  -3.124  0.00  0.00    -0.222 OA
ATOM     23  C   UNL d   1      13.878  12.586  -4.117  0.00  0.00     0.145 C 
ENDBRANCH   4  20
TORSDOF 4
ENDMDL
