MODEL 1
REMARK VINA RESULT:      14.9      0.000      0.000
REMARK  2 active torsions:
REMARK  status: ('A' for Active; 'I' for Inactive)
REMARK    1  A    between atoms: C_4  and  C_2 
REMARK    2  A    between atoms: C_8  and  C_3 
ROOT
ATOM      1  S   UNL d   1     -52.635  24.459  33.872  0.00  0.00    -0.081 SA
ATOM      2  C   UNL d   1     -51.872  24.490  33.556  0.00  0.00     0.031 A 
ATOM      3  C   UNL d   1     -52.905  23.667  33.822  0.00  0.00     0.094 A 
ATOM      4  C   UNL d   1     -51.662  23.717  33.307  0.00  0.00     0.007 A 
ATOM      5  C   UNL d   1     -52.304  23.215  33.475  0.00  0.00     0.013 A 
ENDROOT
BRANCH   2   6
ATOM      6  C   UNL d   1     -51.399  25.155  33.493  0.00  0.00     0.025 A 
ATOM      7  C   UNL d   1     -51.741  25.904  33.435  0.00  0.00     0.005 A 
ATOM      8  C   UNL d   1     -51.268  26.569  33.373  0.00  0.00     0.038 A 
ATOM      9  C   UNL d   1     -51.607  27.313  33.315  0.00  0.00     0.003 C 
ATOM     10  C   UNL d   1     -50.444  26.489  33.368  0.00  0.00     0.184 A 
ATOM     11  N   UNL d   1     -50.102  25.734  33.427  0.00  0.00    -0.224 NA
ATOM     12  N   UNL d   1     -49.967  27.156  33.306  0.00  0.00    -0.127 N 
ATOM     13  C   UNL d   1     -50.589  25.076  33.489  0.00  0.00     0.101 A 
ENDBRANCH   2   6
BRANCH   3  14
ATOM     14  C   UNL d   1     -53.639  23.399  34.077  0.00  0.00     0.217 C 
ATOM     15  O   UNL d   1     -54.257  23.319  33.525  0.00  0.00    -0.643 OA
ATOM     16  O   UNL d   1     -53.772  23.211  34.854  0.00  0.00    -0.643 OA
ENDBRANCH   3  14
TORSDOF 2
ENDMDL
