MODEL 1
REMARK VINA RESULT:      -7.1      0.000      0.000
REMARK  5 active torsions:
REMARK  status: ('A' for Active; 'I' for Inactive)
REMARK    1  A    between atoms: S_3  and  C_10 
REMARK    2  A    between atoms: N_11  and  S_3 
REMARK    3  A    between atoms: C_12  and  C_4 
REMARK    4  A    between atoms: C_22  and  N_11 
REMARK    5  A    between atoms: C_23  and  N_11 
ROOT
ATOM      1  C   UNL d   1     -46.869  12.643  22.733  0.00  0.00     0.104 A 
ATOM      2  C   UNL d   1     -48.478  12.560  23.073  0.00  0.00     0.036 A 
ATOM      3  C   UNL d   1     -47.426  12.670  22.112  0.00  0.00     0.013 A 
ATOM      4  C   UNL d   1     -47.117  12.575  23.512  0.00  0.00     0.013 A 
ATOM      5  C   UNL d   1     -48.228  12.629  22.286  0.00  0.00     0.004 A 
ATOM      6  C   UNL d   1     -47.922  12.534  23.682  0.00  0.00     0.004 A 
ENDROOT
BRANCH   2   7
ATOM      7  C   UNL d   1     -49.283  12.518  23.247  0.00  0.00     0.171 A 
ATOM      8  N   UNL d   1     -49.797  13.162  23.339  0.00  0.00    -0.269 N 
ATOM      9  C   UNL d   1     -50.542  12.869  23.507  0.00  0.00     0.201 A 
ATOM     10  C   UNL d   1     -49.836  13.981  23.325  0.00  0.00     0.073 A 
ATOM     11  N   UNL d   1     -50.505  12.045  23.522  0.00  0.00    -0.121 NA
ATOM     12  S   UNL d   1     -51.063  13.508  23.602  0.00  0.00    -0.047 SA
ATOM     13  N   UNL d   1     -49.721  11.827  23.360  0.00  0.00    -0.128 NA
ATOM     14  C   UNL d   1     -50.626  14.203  23.489  0.00  0.00     0.049 A 
ATOM     15  C   UNL d   1     -50.836  14.996  23.512  0.00  0.00     0.008 A 
ATOM     16  C   UNL d   1     -50.262  15.578  23.373  0.00  0.00     0.001 A 
ATOM     17  C   UNL d   1     -49.484  15.367  23.211  0.00  0.00     0.002 A 
ATOM     18  C   UNL d   1     -49.277  14.563  23.189  0.00  0.00     0.017 A 
ATOM     19  C   UNL d   1     -48.492  14.351  23.026  0.00  0.00     0.002 C 
ENDBRANCH   2   7
BRANCH   1  20
ATOM     20  S   UNL d   1     -46.056  12.685  22.562  0.00  0.00     0.271 S 
ATOM     21  O   UNL d   1     -45.880  12.506  23.355  0.00  0.00    -0.200 OA
ATOM     22  O   UNL d   1     -46.233  12.861  21.779  0.00  0.00    -0.200 OA
BRANCH  20  23
ATOM     23  N   UNL d   1     -45.249  12.726  22.396  0.00  0.00    -0.229 N 
BRANCH  23  24
ATOM     24  C   UNL d   1     -44.735  12.128  22.675  0.00  0.00     0.092 C 
ATOM     25  C   UNL d   1     -43.990  12.036  22.340  0.00  0.00     0.021 C 
ENDBRANCH  23  24
BRANCH  23  26
ATOM     26  C   UNL d   1     -44.948  13.355  21.955  0.00  0.00     0.092 C 
ATOM     27  C   UNL d   1     -44.178  13.312  21.653  0.00  0.00     0.021 C 
ENDBRANCH  23  26
ENDBRANCH  20  23
ENDBRANCH   1  20
TORSDOF 5
ENDMDL
MODEL 2
REMARK VINA RESULT:      -6.4      1.449      5.007
REMARK  5 active torsions:
REMARK  status: ('A' for Active; 'I' for Inactive)
REMARK    1  A    between atoms: S_3  and  C_10 
REMARK    2  A    between atoms: N_11  and  S_3 
REMARK    3  A    between atoms: C_12  and  C_4 
REMARK    4  A    between atoms: C_22  and  N_11 
REMARK    5  A    between atoms: C_23  and  N_11 
ROOT
ATOM      1  C   UNL d   1     -47.952  13.583  22.762  0.00  0.00     0.104 A 
ATOM      2  C   UNL d   1     -46.366  13.250  22.470  0.00  0.00     0.036 A 
ATOM      3  C   UNL d   1     -47.732  13.199  22.054  0.00  0.00     0.013 A 
ATOM      4  C   UNL d   1     -47.383  13.796  23.313  0.00  0.00     0.013 A 
ATOM      5  C   UNL d   1     -46.939  13.035  21.913  0.00  0.00     0.004 A 
ATOM      6  C   UNL d   1     -46.591  13.630  23.167  0.00  0.00     0.004 A 
ENDROOT
BRANCH   2   7
ATOM      7  C   UNL d   1     -45.571  13.085  22.327  0.00  0.00     0.171 A 
ATOM      8  N   UNL d   1     -45.162  12.405  22.566  0.00  0.00    -0.269 N 
ATOM      9  C   UNL d   1     -44.388  12.470  22.309  0.00  0.00     0.201 A 
ATOM     10  C   UNL d   1     -45.246  11.692  22.963  0.00  0.00     0.073 A 
ATOM     11  N   UNL d   1     -44.302  13.187  21.910  0.00  0.00    -0.121 NA
ATOM     12  S   UNL d   1     -43.973  11.792  22.544  0.00  0.00    -0.047 SA
ATOM     13  N   UNL d   1     -45.039  13.569  21.921  0.00  0.00    -0.128 NA
ATOM     14  C   UNL d   1     -44.504  11.304  22.952  0.00  0.00     0.049 A 
ATOM     15  C   UNL d   1     -44.416  10.571  23.310  0.00  0.00     0.008 A 
ATOM     16  C   UNL d   1     -45.065  10.214  23.684  0.00  0.00     0.001 A 
ATOM     17  C   UNL d   1     -45.796  10.589  23.698  0.00  0.00     0.002 A 
ATOM     18  C   UNL d   1     -45.880  11.332  23.334  0.00  0.00     0.017 A 
ATOM     19  C   UNL d   1     -46.618  11.710  23.348  0.00  0.00     0.002 C 
ENDBRANCH   2   7
BRANCH   1  20
ATOM     20  S   UNL d   1     -48.753  13.751  22.909  0.00  0.00     0.271 S 
ATOM     21  O   UNL d   1     -48.786  13.118  23.449  0.00  0.00    -0.200 OA
ATOM     22  O   UNL d   1     -48.717  14.375  22.376  0.00  0.00    -0.200 OA
BRANCH  20  23
ATOM     23  N   UNL d   1     -49.548  13.915  23.058  0.00  0.00    -0.229 N 
BRANCH  23  24
ATOM     24  C   UNL d   1     -49.839  14.692  22.960  0.00  0.00     0.092 C 
ATOM     25  C   UNL d   1     -50.316  15.030  23.538  0.00  0.00     0.021 C 
ENDBRANCH  23  24
BRANCH  23  26
ATOM     26  C   UNL d   1     -50.055  13.313  23.305  0.00  0.00     0.092 C 
ATOM     27  C   UNL d   1     -50.792  13.222  22.937  0.00  0.00     0.021 C 
ENDBRANCH  23  26
ENDBRANCH  20  23
ENDBRANCH   1  20
TORSDOF 5
ENDMDL
MODEL 3
REMARK VINA RESULT:      -6.3      8.981     10.155
REMARK  5 active torsions:
REMARK  status: ('A' for Active; 'I' for Inactive)
REMARK    1  A    between atoms: S_3  and  C_10 
REMARK    2  A    between atoms: N_11  and  S_3 
REMARK    3  A    between atoms: C_12  and  C_4 
REMARK    4  A    between atoms: C_22  and  N_11 
REMARK    5  A    between atoms: C_23  and  N_11 
ROOT
ATOM      1  C   UNL d   1     -39.356  15.179  20.967  0.00  0.00     0.104 A 
ATOM      2  C   UNL d   1     -39.935  15.355  19.436  0.00  0.00     0.036 A 
ATOM      3  C   UNL d   1     -39.042  15.773  20.471  0.00  0.00     0.013 A 
ATOM      4  C   UNL d   1     -39.950  14.682  20.697  0.00  0.00     0.013 A 
ATOM      5  C   UNL d   1     -39.335  15.857  19.708  0.00  0.00     0.004 A 
ATOM      6  C   UNL d   1     -40.239  14.770  19.932  0.00  0.00     0.004 A 
ENDROOT
BRANCH   2   7
ATOM      7  C   UNL d   1     -40.227  15.441  18.670  0.00  0.00     0.171 A 
ATOM      8  N   UNL d   1     -39.940  15.060  17.992  0.00  0.00    -0.269 N 
ATOM      9  C   UNL d   1     -40.391  15.304  17.354  0.00  0.00     0.201 A 
ATOM     10  C   UNL d   1     -39.374  14.531  17.724  0.00  0.00     0.073 A 
ATOM     11  N   UNL d   1     -40.961  15.836  17.622  0.00  0.00    -0.121 NA
ATOM     12  S   UNL d   1     -40.109  14.927  16.671  0.00  0.00    -0.047 SA
ATOM     13  N   UNL d   1     -40.859  15.921  18.441  0.00  0.00    -0.128 NA
ATOM     14  C   UNL d   1     -39.475  14.444  16.897  0.00  0.00     0.049 A 
ATOM     15  C   UNL d   1     -38.983  13.944  16.471  0.00  0.00     0.008 A 
ATOM     16  C   UNL d   1     -38.384  13.524  16.861  0.00  0.00     0.001 A 
ATOM     17  C   UNL d   1     -38.279  13.605  17.673  0.00  0.00     0.002 A 
ATOM     18  C   UNL d   1     -38.780  14.112  18.100  0.00  0.00     0.017 A 
ATOM     19  C   UNL d   1     -38.673  14.193  18.919  0.00  0.00     0.002 C 
ENDBRANCH   2   7
BRANCH   1  20
ATOM     20  S   UNL d   1     -39.063  15.089  21.741  0.00  0.00     0.271 S 
ATOM     21  O   UNL d   1     -39.766  14.702  21.961  0.00  0.00    -0.200 OA
ATOM     22  O   UNL d   1     -38.371  15.472  21.520  0.00  0.00    -0.200 OA
BRANCH  20  23
ATOM     23  N   UNL d   1     -38.776  14.999  22.509  0.00  0.00    -0.229 N 
BRANCH  23  24
ATOM     24  C   UNL d   1     -39.063  15.489  23.122  0.00  0.00     0.092 C 
ATOM     25  C   UNL d   1     -38.542  15.808  23.673  0.00  0.00     0.021 C 
ENDBRANCH  23  24
BRANCH  23  26
ATOM     26  C   UNL d   1     -38.207  14.424  22.673  0.00  0.00     0.092 C 
ATOM     27  C   UNL d   1     -38.313  13.917  23.320  0.00  0.00     0.021 C 
ENDBRANCH  23  26
ENDBRANCH  20  23
ENDBRANCH   1  20
TORSDOF 5
ENDMDL
MODEL 4
REMARK VINA RESULT:      -5.6      1.493      4.644
REMARK  5 active torsions:
REMARK  status: ('A' for Active; 'I' for Inactive)
REMARK    1  A    between atoms: S_3  and  C_10 
REMARK    2  A    between atoms: N_11  and  S_3 
REMARK    3  A    between atoms: C_12  and  C_4 
REMARK    4  A    between atoms: C_22  and  N_11 
REMARK    5  A    between atoms: C_23  and  N_11 
ROOT
ATOM      1  C   UNL d   1     -48.531  13.292  22.867  0.00  0.00     0.104 A 
ATOM      2  C   UNL d   1     -47.285  12.250  23.136  0.00  0.00     0.036 A 
ATOM      3  C   UNL d   1     -48.363  12.694  22.309  0.00  0.00     0.013 A 
ATOM      4  C   UNL d   1     -48.081  13.365  23.548  0.00  0.00     0.013 A 
ATOM      5  C   UNL d   1     -47.740  12.177  22.448  0.00  0.00     0.004 A 
ATOM      6  C   UNL d   1     -47.457  12.844  23.682  0.00  0.00     0.004 A 
ENDROOT
BRANCH   2   7
ATOM      7  C   UNL d   1     -46.660  11.730  23.274  0.00  0.00     0.171 A 
ATOM      8  N   UNL d   1     -45.879  11.824  23.013  0.00  0.00    -0.269 N 
ATOM      9  C   UNL d   1     -45.446  11.182  23.273  0.00  0.00     0.201 A 
ATOM     10  C   UNL d   1     -45.382  12.321  22.591  0.00  0.00     0.073 A 
ATOM     11  N   UNL d   1     -45.945  10.681  23.698  0.00  0.00    -0.121 NA
ATOM     12  S   UNL d   1     -44.662  11.269  23.015  0.00  0.00    -0.047 SA
ATOM     13  N   UNL d   1     -46.701  11.023  23.698  0.00  0.00    -0.128 NA
ATOM     14  C   UNL d   1     -44.618  11.978  22.590  0.00  0.00     0.049 A 
ATOM     15  C   UNL d   1     -43.997  12.353  22.207  0.00  0.00     0.008 A 
ATOM     16  C   UNL d   1     -44.127  13.075  21.820  0.00  0.00     0.001 A 
ATOM     17  C   UNL d   1     -44.875  13.418  21.817  0.00  0.00     0.002 A 
ATOM     18  C   UNL d   1     -45.500  13.034  22.207  0.00  0.00     0.017 A 
ATOM     19  C   UNL d   1     -46.254  13.380  22.204  0.00  0.00     0.002 C 
ENDBRANCH   2   7
BRANCH   1  20
ATOM     20  S   UNL d   1     -49.161  13.819  22.731  0.00  0.00     0.271 S 
ATOM     21  O   UNL d   1     -48.662  14.295  22.266  0.00  0.00    -0.200 OA
ATOM     22  O   UNL d   1     -49.651  13.346  23.190  0.00  0.00    -0.200 OA
BRANCH  20  23
ATOM     23  N   UNL d   1     -49.783  14.343  22.594  0.00  0.00    -0.229 N 
BRANCH  23  24
ATOM     24  C   UNL d   1     -49.692  15.155  22.774  0.00  0.00     0.092 C 
ATOM     25  C   UNL d   1     -50.316  15.576  23.104  0.00  0.00     0.021 C 
ENDBRANCH  23  24
BRANCH  23  26
ATOM     26  C   UNL d   1     -50.495  14.068  22.280  0.00  0.00     0.092 C 
ATOM     27  C   UNL d   1     -50.825  14.448  21.622  0.00  0.00     0.021 C 
ENDBRANCH  23  26
ENDBRANCH  20  23
ENDBRANCH   1  20
TORSDOF 5
ENDMDL
MODEL 5
REMARK VINA RESULT:      -5.1      9.293      9.970
REMARK  5 active torsions:
REMARK  status: ('A' for Active; 'I' for Inactive)
REMARK    1  A    between atoms: S_3  and  C_10 
REMARK    2  A    between atoms: N_11  and  S_3 
REMARK    3  A    between atoms: C_12  and  C_4 
REMARK    4  A    between atoms: C_22  and  N_11 
REMARK    5  A    between atoms: C_23  and  N_11 
ROOT
ATOM      1  C   UNL d   1     -39.956  14.764  18.231  0.00  0.00     0.104 A 
ATOM      2  C   UNL d   1     -39.132  14.155  19.520  0.00  0.00     0.036 A 
ATOM      3  C   UNL d   1     -39.234  15.113  18.463  0.00  0.00     0.013 A 
ATOM      4  C   UNL d   1     -40.259  14.121  18.639  0.00  0.00     0.013 A 
ATOM      5  C   UNL d   1     -38.827  14.805  19.107  0.00  0.00     0.004 A 
ATOM      6  C   UNL d   1     -39.847  13.816  19.283  0.00  0.00     0.004 A 
ENDROOT
BRANCH   2   7
ATOM      7  C   UNL d   1     -38.723  13.847  20.165  0.00  0.00     0.171 A 
ATOM      8  N   UNL d   1     -38.723  14.154  20.935  0.00  0.00    -0.269 N 
ATOM      9  C   UNL d   1     -38.245  13.678  21.398  0.00  0.00     0.201 A 
ATOM     10  C   UNL d   1     -39.024  14.756  21.404  0.00  0.00     0.073 A 
ATOM     11  N   UNL d   1     -37.941  13.072  20.928  0.00  0.00    -0.121 NA
ATOM     12  S   UNL d   1     -38.240  13.979  22.171  0.00  0.00    -0.047 SA
ATOM     13  N   UNL d   1     -38.239  13.178  20.161  0.00  0.00    -0.128 NA
ATOM     14  C   UNL d   1     -38.724  14.651  22.179  0.00  0.00     0.049 A 
ATOM     15  C   UNL d   1     -38.931  15.174  22.776  0.00  0.00     0.008 A 
ATOM     16  C   UNL d   1     -39.438  15.809  22.611  0.00  0.00     0.001 A 
ATOM     17  C   UNL d   1     -39.736  15.918  21.852  0.00  0.00     0.002 A 
ATOM     18  C   UNL d   1     -39.524  15.385  21.251  0.00  0.00     0.017 A 
ATOM     19  C   UNL d   1     -39.825  15.495  20.486  0.00  0.00     0.002 C 
ENDBRANCH   2   7
BRANCH   1  20
ATOM     20  S   UNL d   1     -40.373  15.072  17.579  0.00  0.00     0.271 S 
ATOM     21  O   UNL d   1     -40.860  14.398  17.573  0.00  0.00    -0.200 OA
ATOM     22  O   UNL d   1     -39.890  15.736  17.588  0.00  0.00    -0.200 OA
BRANCH  20  23
ATOM     23  N   UNL d   1     -40.788  15.374  16.933  0.00  0.00    -0.229 N 
BRANCH  23  24
ATOM     24  C   UNL d   1     -41.467  15.845  17.057  0.00  0.00     0.092 C 
ATOM     25  C   UNL d   1     -42.031  15.919  16.464  0.00  0.00     0.021 C 
ENDBRANCH  23  24
BRANCH  23  26
ATOM     26  C   UNL d   1     -40.534  15.211  16.165  0.00  0.00     0.092 C 
ATOM     27  C   UNL d   1     -40.461  15.830  15.619  0.00  0.00     0.021 C 
ENDBRANCH  23  26
ENDBRANCH  20  23
ENDBRANCH   1  20
TORSDOF 5
ENDMDL
MODEL 6
REMARK VINA RESULT:      -4.9      1.551      1.922
REMARK  5 active torsions:
REMARK  status: ('A' for Active; 'I' for Inactive)
REMARK    1  A    between atoms: S_3  and  C_10 
REMARK    2  A    between atoms: N_11  and  S_3 
REMARK    3  A    between atoms: C_12  and  C_4 
REMARK    4  A    between atoms: C_22  and  N_11 
REMARK    5  A    between atoms: C_23  and  N_11 
ROOT
ATOM      1  C   UNL d   1     -47.852  11.951  22.794  0.00  0.00     0.104 A 
ATOM      2  C   UNL d   1     -49.143  12.729  22.132  0.00  0.00     0.036 A 
ATOM      3  C   UNL d   1     -47.732  12.507  22.184  0.00  0.00     0.013 A 
ATOM      4  C   UNL d   1     -48.608  11.789  23.067  0.00  0.00     0.013 A 
ATOM      5  C   UNL d   1     -48.380  12.893  21.856  0.00  0.00     0.004 A 
ATOM      6  C   UNL d   1     -49.254  12.178  22.736  0.00  0.00     0.004 A 
ENDROOT
BRANCH   2   7
ATOM      7  C   UNL d   1     -49.792  13.116  21.803  0.00  0.00     0.171 A 
ATOM      8  N   UNL d   1     -50.105  13.843  22.050  0.00  0.00    -0.269 N 
ATOM      9  C   UNL d   1     -50.744  14.020  21.572  0.00  0.00     0.201 A 
ATOM     10  C   UNL d   1     -50.011  14.448  22.595  0.00  0.00     0.073 A 
ATOM     11  N   UNL d   1     -50.840  13.412  21.023  0.00  0.00    -0.121 NA
ATOM     12  S   UNL d   1     -51.063  14.747  21.814  0.00  0.00    -0.047 SA
ATOM     13  N   UNL d   1     -50.247  12.849  21.167  0.00  0.00    -0.128 NA
ATOM     14  C   UNL d   1     -50.609  15.017  22.452  0.00  0.00     0.049 A 
ATOM     15  C   UNL d   1     -50.656  15.693  22.915  0.00  0.00     0.008 A 
ATOM     16  C   UNL d   1     -50.110  15.812  23.527  0.00  0.00     0.001 A 
ATOM     17  C   UNL d   1     -49.520  15.257  23.674  0.00  0.00     0.002 A 
ATOM     18  C   UNL d   1     -49.477  14.575  23.202  0.00  0.00     0.017 A 
ATOM     19  C   UNL d   1     -48.882  14.016  23.350  0.00  0.00     0.002 C 
ENDBRANCH   2   7
BRANCH   1  20
ATOM     20  S   UNL d   1     -47.200  11.558  23.130  0.00  0.00     0.271 S 
ATOM     21  O   UNL d   1     -47.273  10.953  22.563  0.00  0.00    -0.200 OA
ATOM     22  O   UNL d   1     -47.129  12.157  23.688  0.00  0.00    -0.200 OA
BRANCH  20  23
ATOM     23  N   UNL d   1     -46.553  11.165  23.459  0.00  0.00    -0.229 N 
BRANCH  23  24
ATOM     24  C   UNL d   1     -45.825  11.565  23.552  0.00  0.00     0.092 C 
ATOM     25  C   UNL d   1     -45.117  11.153  23.483  0.00  0.00     0.021 C 
ENDBRANCH  23  24
BRANCH  23  26
ATOM     26  C   UNL d   1     -46.625  10.379  23.698  0.00  0.00     0.092 C 
ATOM     27  C   UNL d   1     -45.960   9.885  23.683  0.00  0.00     0.021 C 
ENDBRANCH  23  26
ENDBRANCH  20  23
ENDBRANCH   1  20
TORSDOF 5
ENDMDL
MODEL 7
REMARK VINA RESULT:      -4.9      8.357     10.022
REMARK  5 active torsions:
REMARK  status: ('A' for Active; 'I' for Inactive)
REMARK    1  A    between atoms: S_3  and  C_10 
REMARK    2  A    between atoms: N_11  and  S_3 
REMARK    3  A    between atoms: C_12  and  C_4 
REMARK    4  A    between atoms: C_22  and  N_11 
REMARK    5  A    between atoms: C_23  and  N_11 
ROOT
ATOM      1  C   UNL d   1     -39.322  15.027  17.695  0.00  0.00     0.104 A 
ATOM      2  C   UNL d   1     -40.143  15.350  19.085  0.00  0.00     0.036 A 
ATOM      3  C   UNL d   1     -39.836  14.453  18.016  0.00  0.00     0.013 A 
ATOM      4  C   UNL d   1     -39.222  15.751  18.067  0.00  0.00     0.013 A 
ATOM      5  C   UNL d   1     -40.243  14.619  18.710  0.00  0.00     0.004 A 
ATOM      6  C   UNL d   1     -39.633  15.912  18.762  0.00  0.00     0.004 A 
ENDROOT
BRANCH   2   7
ATOM      7  C   UNL d   1     -40.552  15.515  19.782  0.00  0.00     0.171 A 
ATOM      8  N   UNL d   1     -40.278  15.384  20.553  0.00  0.00    -0.269 N 
ATOM      9  C   UNL d   1     -40.860  15.626  21.074  0.00  0.00     0.201 A 
ATOM     10  C   UNL d   1     -39.641  15.102  20.986  0.00  0.00     0.073 A 
ATOM     11  N   UNL d   1     -41.501  15.910  20.640  0.00  0.00    -0.121 NA
ATOM     12  S   UNL d   1     -40.592  15.498  21.848  0.00  0.00    -0.047 SA
ATOM     13  N   UNL d   1     -41.309  15.841  19.835  0.00  0.00    -0.128 NA
ATOM     14  C   UNL d   1     -39.833  15.171  21.798  0.00  0.00     0.049 A 
ATOM     15  C   UNL d   1     -39.297  14.930  22.371  0.00  0.00     0.008 A 
ATOM     16  C   UNL d   1     -38.564  14.617  22.144  0.00  0.00     0.001 A 
ATOM     17  C   UNL d   1     -38.369  14.546  21.348  0.00  0.00     0.002 A 
ATOM     18  C   UNL d   1     -38.915  14.792  20.772  0.00  0.00     0.017 A 
ATOM     19  C   UNL d   1     -38.718  14.720  19.969  0.00  0.00     0.002 C 
ENDBRANCH   2   7
BRANCH   1  20
ATOM     20  S   UNL d   1     -38.907  14.864  16.993  0.00  0.00     0.271 S 
ATOM     21  O   UNL d   1     -38.251  14.613  17.438  0.00  0.00    -0.200 OA
ATOM     22  O   UNL d   1     -39.556  15.112  16.555  0.00  0.00    -0.200 OA
BRANCH  20  23
ATOM     23  N   UNL d   1     -38.492  14.702  16.298  0.00  0.00    -0.229 N 
BRANCH  23  24
ATOM     24  C   UNL d   1     -37.985  14.038  16.260  0.00  0.00     0.092 C 
ATOM     25  C   UNL d   1     -38.145  13.427  15.735  0.00  0.00     0.021 C 
ENDBRANCH  23  24
BRANCH  23  26
ATOM     26  C   UNL d   1     -38.577  15.193  15.641  0.00  0.00     0.092 C 
ATOM     27  C   UNL d   1     -38.023  15.153  15.026  0.00  0.00     0.021 C 
ENDBRANCH  23  26
ENDBRANCH  20  23
ENDBRANCH   1  20
TORSDOF 5
ENDMDL
MODEL 8
REMARK VINA RESULT:      -4.7      7.484     10.809
REMARK  5 active torsions:
REMARK  status: ('A' for Active; 'I' for Inactive)
REMARK    1  A    between atoms: S_3  and  C_10 
REMARK    2  A    between atoms: N_11  and  S_3 
REMARK    3  A    between atoms: C_12  and  C_4 
REMARK    4  A    between atoms: C_22  and  N_11 
REMARK    5  A    between atoms: C_23  and  N_11 
ROOT
ATOM      1  C   UNL d   1     -40.281  15.287  19.108  0.00  0.00     0.104 A 
ATOM      2  C   UNL d   1     -39.664  15.288  17.582  0.00  0.00     0.036 A 
ATOM      3  C   UNL d   1     -40.711  14.931  18.488  0.00  0.00     0.013 A 
ATOM      4  C   UNL d   1     -39.554  15.637  18.965  0.00  0.00     0.013 A 
ATOM      5  C   UNL d   1     -40.398  14.934  17.728  0.00  0.00     0.004 A 
ATOM      6  C   UNL d   1     -39.245  15.638  18.201  0.00  0.00     0.004 A 
ENDROOT
BRANCH   2   7
ATOM      7  C   UNL d   1     -39.351  15.290  16.819  0.00  0.00     0.171 A 
ATOM      8  N   UNL d   1     -38.940  14.668  16.458  0.00  0.00    -0.269 N 
ATOM      9  C   UNL d   1     -38.731  14.907  15.704  0.00  0.00     0.201 A 
ATOM     10  C   UNL d   1     -38.665  13.904  16.575  0.00  0.00     0.073 A 
ATOM     11  N   UNL d   1     -39.006  15.675  15.584  0.00  0.00    -0.121 NA
ATOM     12  S   UNL d   1     -38.318  14.289  15.335  0.00  0.00    -0.047 SA
ATOM     13  N   UNL d   1     -39.393  15.913  16.279  0.00  0.00    -0.128 NA
ATOM     14  C   UNL d   1     -38.275  13.662  15.876  0.00  0.00     0.049 A 
ATOM     15  C   UNL d   1     -37.940  12.915  15.827  0.00  0.00     0.008 A 
ATOM     16  C   UNL d   1     -37.987  12.399  16.475  0.00  0.00     0.001 A 
ATOM     17  C   UNL d   1     -38.369  12.630  17.166  0.00  0.00     0.002 A 
ATOM     18  C   UNL d   1     -38.707  13.388  17.209  0.00  0.00     0.017 A 
ATOM     19  C   UNL d   1     -39.092  13.621  17.906  0.00  0.00     0.002 C 
ENDBRANCH   2   7
BRANCH   1  20
ATOM     20  S   UNL d   1     -40.593  15.287  19.880  0.00  0.00     0.271 S 
ATOM     21  O   UNL d   1     -41.184  14.752  19.641  0.00  0.00    -0.200 OA
ATOM     22  O   UNL d   1     -40.009  15.815  20.113  0.00  0.00    -0.200 OA
BRANCH  20  23
ATOM     23  N   UNL d   1     -40.905  15.284  20.644  0.00  0.00    -0.229 N 
BRANCH  23  24
ATOM     24  C   UNL d   1     -40.726  14.656  21.166  0.00  0.00     0.092 C 
ATOM     25  C   UNL d   1     -40.440  14.815  21.919  0.00  0.00     0.021 C 
ENDBRANCH  23  24
BRANCH  23  26
ATOM     26  C   UNL d   1     -41.394  15.901  20.894  0.00  0.00     0.092 C 
ATOM     27  C   UNL d   1     -42.097  15.728  21.296  0.00  0.00     0.021 C 
ENDBRANCH  23  26
ENDBRANCH  20  23
ENDBRANCH   1  20
TORSDOF 5
ENDMDL
MODEL 9
REMARK VINA RESULT:      -4.3      9.273     10.199
REMARK  5 active torsions:
REMARK  status: ('A' for Active; 'I' for Inactive)
REMARK    1  A    between atoms: S_3  and  C_10 
REMARK    2  A    between atoms: N_11  and  S_3 
REMARK    3  A    between atoms: C_12  and  C_4 
REMARK    4  A    between atoms: C_22  and  N_11 
REMARK    5  A    between atoms: C_23  and  N_11 
ROOT
ATOM      1  C   UNL d   1     -38.957  14.589  19.210  0.00  0.00     0.104 A 
ATOM      2  C   UNL d   1     -39.124  15.007  20.793  0.00  0.00     0.036 A 
ATOM      3  C   UNL d   1     -38.319  14.946  19.614  0.00  0.00     0.013 A 
ATOM      4  C   UNL d   1     -39.666  14.446  19.595  0.00  0.00     0.013 A 
ATOM      5  C   UNL d   1     -38.408  15.152  20.404  0.00  0.00     0.004 A 
ATOM      6  C   UNL d   1     -39.750  14.655  20.387  0.00  0.00     0.004 A 
ENDROOT
BRANCH   2   7
ATOM      7  C   UNL d   1     -39.212  15.215  21.586  0.00  0.00     0.171 A 
ATOM      8  N   UNL d   1     -38.974  14.763  22.239  0.00  0.00    -0.269 N 
ATOM      9  C   UNL d   1     -39.166  15.177  22.918  0.00  0.00     0.201 A 
ATOM     10  C   UNL d   1     -38.619  14.056  22.456  0.00  0.00     0.073 A 
ATOM     11  N   UNL d   1     -39.524  15.888  22.701  0.00  0.00    -0.121 NA
ATOM     12  S   UNL d   1     -38.932  14.730  23.576  0.00  0.00    -0.047 SA
ATOM     13  N   UNL d   1     -39.552  15.911  21.872  0.00  0.00    -0.128 NA
ATOM     14  C   UNL d   1     -38.590  14.031  23.293  0.00  0.00     0.049 A 
ATOM     15  C   UNL d   1     -38.261  13.384  23.675  0.00  0.00     0.008 A 
ATOM     16  C   UNL d   1     -37.957  12.753  23.230  0.00  0.00     0.001 A 
ATOM     17  C   UNL d   1     -37.982  12.771  22.408  0.00  0.00     0.002 A 
ATOM     18  C   UNL d   1     -38.316  13.429  22.027  0.00  0.00     0.017 A 
ATOM     19  C   UNL d   1     -38.342  13.447  21.197  0.00  0.00     0.002 C 
ENDBRANCH   2   7
BRANCH   1  20
ATOM     20  S   UNL d   1     -38.873  14.378  18.409  0.00  0.00     0.271 S 
ATOM     21  O   UNL d   1     -39.613  14.719  18.241  0.00  0.00    -0.200 OA
ATOM     22  O   UNL d   1     -38.143  14.043  18.578  0.00  0.00    -0.200 OA
BRANCH  20  23
ATOM     23  N   UNL d   1     -38.793  14.170  17.615  0.00  0.00    -0.229 N 
BRANCH  23  24
ATOM     24  C   UNL d   1     -38.502  13.414  17.408  0.00  0.00     0.092 C 
ATOM     25  C   UNL d   1     -38.678  13.092  16.673  0.00  0.00     0.021 C 
ENDBRANCH  23  24
BRANCH  23  26
ATOM     26  C   UNL d   1     -39.000  14.708  17.023  0.00  0.00     0.092 C 
ATOM     27  C   UNL d   1     -38.418  15.197  16.694  0.00  0.00     0.021 C 
ENDBRANCH  23  26
ENDBRANCH  20  23
ENDBRANCH   1  20
TORSDOF 5
ENDMDL
