MODEL 1
REMARK VINA RESULT:      -5.7      0.000      0.000
REMARK  3 active torsions:
REMARK  status: ('A' for Active; 'I' for Inactive)
REMARK    1  A    between atoms: C_10  and  C_4 
REMARK    2  A    between atoms: C_11  and  C_7 
REMARK    3  A    between atoms: C_12  and  C_10 
ROOT
ATOM      1  N   UNL d   1      57.764  -0.590  30.433  0.00  0.00    -0.186 N 
ATOM      2  N   UNL d   1      58.153  -1.292  30.197  0.00  0.00    -0.162 NA
ATOM      3  C   UNL d   1      57.834   0.093  29.960  0.00  0.00     0.217 A 
ATOM      4  C   UNL d   1      57.293  -0.406  31.074  0.00  0.00     0.187 A 
ATOM      5  N   UNL d   1      57.065   0.381  31.012  0.00  0.00    -0.127 NA
ATOM      6  N   UNL d   1      57.397   0.682  30.331  0.00  0.00    -0.120 NA
ATOM      7  C   UNL d   1      58.598  -1.307  29.507  0.00  0.00     0.108 A 
ATOM      8  S   UNL d   1      58.284   0.057  29.273  0.00  0.00    -0.045 SA
ATOM      9  C   UNL d   1      58.669  -0.625  29.033  0.00  0.00     0.059 A 
ENDROOT
BRANCH   4  10
ATOM     10  C   UNL d   1      57.072  -0.901  31.683  0.00  0.00     0.041 C 
BRANCH  10  11
ATOM     11  C   UNL d   1      56.651  -0.604  32.309  0.00  0.00     0.003 A 
ATOM     12  C   UNL d   1      56.992  -0.059  32.822  0.00  0.00     0.000 A 
ATOM     13  C   UNL d   1      56.572   0.249  33.462  0.00  0.00     0.000 A 
ATOM     14  C   UNL d   1      55.804   0.006  33.584  0.00  0.00     0.000 A 
ATOM     15  C   UNL d   1      55.461  -0.538  33.075  0.00  0.00     0.000 A 
ATOM     16  C   UNL d   1      55.873  -0.844  32.443  0.00  0.00     0.000 A 
ENDBRANCH  10  11
ENDBRANCH   4  10
BRANCH   7  17
ATOM     17  C   UNL d   1      58.980  -2.008  29.280  0.00  0.00     0.020 A 
ATOM     18  C   UNL d   1      58.541  -2.636  28.961  0.00  0.00     0.002 A 
ATOM     19  C   UNL d   1      58.914  -3.344  28.730  0.00  0.00     0.000 A 
ATOM     20  C   UNL d   1      59.742  -3.417  28.824  0.00  0.00     0.000 A 
ATOM     21  C   UNL d   1      60.178  -2.802  29.138  0.00  0.00     0.000 A 
ATOM     22  C   UNL d   1      59.802  -2.090  29.370  0.00  0.00     0.002 A 
ENDBRANCH   7  17
TORSDOF 3
ENDMDL
MODEL 2
REMARK VINA RESULT:      -4.3      1.348      4.577
REMARK  3 active torsions:
REMARK  status: ('A' for Active; 'I' for Inactive)
REMARK    1  A    between atoms: C_10  and  C_4 
REMARK    2  A    between atoms: C_11  and  C_7 
REMARK    3  A    between atoms: C_12  and  C_10 
ROOT
ATOM      1  N   UNL d   1      58.037   0.237  31.562  0.00  0.00    -0.186 N 
ATOM      2  N   UNL d   1      57.283   0.050  31.874  0.00  0.00    -0.162 NA
ATOM      3  C   UNL d   1      58.617   0.558  32.068  0.00  0.00     0.217 A 
ATOM      4  C   UNL d   1      58.359   0.172  30.816  0.00  0.00     0.187 A 
ATOM      5  N   UNL d   1      59.133   0.446  30.841  0.00  0.00    -0.127 NA
ATOM      6  N   UNL d   1      59.287   0.681  31.607  0.00  0.00    -0.120 NA
ATOM      7  C   UNL d   1      57.118   0.182  32.667  0.00  0.00     0.108 A 
ATOM      8  S   UNL d   1      58.432   0.682  32.858  0.00  0.00    -0.045 SA
ATOM      9  C   UNL d   1      57.697   0.502  33.174  0.00  0.00     0.059 A 
ENDROOT
BRANCH   4  10
ATOM     10  C   UNL d   1      57.996  -0.113  30.143  0.00  0.00     0.041 C 
BRANCH  10  11
ATOM     11  C   UNL d   1      58.431  -0.524  29.596  0.00  0.00     0.003 A 
ATOM     12  C   UNL d   1      58.866  -0.127  29.022  0.00  0.00     0.000 A 
ATOM     13  C   UNL d   1      59.311  -0.535  28.461  0.00  0.00     0.000 A 
ATOM     14  C   UNL d   1      59.318  -1.350  28.479  0.00  0.00     0.000 A 
ATOM     15  C   UNL d   1      58.885  -1.750  29.051  0.00  0.00     0.000 A 
ATOM     16  C   UNL d   1      58.445  -1.349  29.605  0.00  0.00     0.000 A 
ENDBRANCH  10  11
ENDBRANCH   4  10
BRANCH   7  17
ATOM     17  C   UNL d   1      56.367  -0.007  32.967  0.00  0.00     0.020 A 
ATOM     18  C   UNL d   1      55.867   0.595  33.242  0.00  0.00     0.002 A 
ATOM     19  C   UNL d   1      55.112   0.418  33.545  0.00  0.00     0.000 A 
ATOM     20  C   UNL d   1      54.860  -0.380  33.571  0.00  0.00     0.000 A 
ATOM     21  C   UNL d   1      55.350  -0.976  33.301  0.00  0.00     0.000 A 
ATOM     22  C   UNL d   1      56.109  -0.796  32.997  0.00  0.00     0.002 A 
ENDBRANCH   7  17
TORSDOF 3
ENDMDL
MODEL 3
REMARK VINA RESULT:      -3.6      2.175      4.868
REMARK  3 active torsions:
REMARK  status: ('A' for Active; 'I' for Inactive)
REMARK    1  A    between atoms: C_10  and  C_4 
REMARK    2  A    between atoms: C_11  and  C_7 
REMARK    3  A    between atoms: C_12  and  C_10 
ROOT
ATOM      1  N   UNL d   1      56.774  -0.604  31.841  0.00  0.00    -0.186 N 
ATOM      2  N   UNL d   1      56.466  -0.188  32.499  0.00  0.00    -0.162 NA
ATOM      3  C   UNL d   1      56.637  -1.424  31.780  0.00  0.00     0.217 A 
ATOM      4  C   UNL d   1      57.213  -0.371  31.195  0.00  0.00     0.187 A 
ATOM      5  N   UNL d   1      57.356  -1.030  30.726  0.00  0.00    -0.127 NA
ATOM      6  N   UNL d   1      57.003  -1.671  31.086  0.00  0.00    -0.120 NA
ATOM      7  C   UNL d   1      56.034  -0.583  33.075  0.00  0.00     0.108 A 
ATOM      8  S   UNL d   1      56.204  -1.801  32.367  0.00  0.00    -0.045 SA
ATOM      9  C   UNL d   1      55.897  -1.403  33.014  0.00  0.00     0.059 A 
ENDROOT
BRANCH   4  10
ATOM     10  C   UNL d   1      57.477   0.381  31.021  0.00  0.00     0.041 C 
BRANCH  10  11
ATOM     11  C   UNL d   1      58.174   0.479  30.619  0.00  0.00     0.003 A 
ATOM     12  C   UNL d   1      58.188   0.475  29.797  0.00  0.00     0.000 A 
ATOM     13  C   UNL d   1      58.892   0.574  29.379  0.00  0.00     0.000 A 
ATOM     14  C   UNL d   1      59.586   0.677  29.793  0.00  0.00     0.000 A 
ATOM     15  C   UNL d   1      59.576   0.682  30.614  0.00  0.00     0.000 A 
ATOM     16  C   UNL d   1      58.883   0.585  31.028  0.00  0.00     0.000 A 
ENDBRANCH  10  11
ENDBRANCH   4  10
BRANCH   7  17
ATOM     17  C   UNL d   1      55.733  -0.162  33.724  0.00  0.00     0.020 A 
ATOM     18  C   UNL d   1      54.914  -0.046  33.799  0.00  0.00     0.002 A 
ATOM     19  C   UNL d   1      54.600   0.374  34.445  0.00  0.00     0.000 A 
ATOM     20  C   UNL d   1      55.122   0.682  35.023  0.00  0.00     0.000 A 
ATOM     21  C   UNL d   1      55.928   0.570  34.953  0.00  0.00     0.000 A 
ATOM     22  C   UNL d   1      56.242   0.147  34.302  0.00  0.00     0.002 A 
ENDBRANCH   7  17
TORSDOF 3
ENDMDL
MODEL 4
REMARK VINA RESULT:      -3.2      8.704      9.204
REMARK  3 active torsions:
REMARK  status: ('A' for Active; 'I' for Inactive)
REMARK    1  A    between atoms: C_10  and  C_4 
REMARK    2  A    between atoms: C_11  and  C_7 
REMARK    3  A    between atoms: C_12  and  C_10 
ROOT
ATOM      1  N   UNL d   1      59.784  -9.676  32.908  0.00  0.00    -0.186 N 
ATOM      2  N   UNL d   1      59.106  -9.694  32.418  0.00  0.00    -0.162 NA
ATOM      3  C   UNL d   1      60.538  -9.729  32.558  0.00  0.00     0.217 A 
ATOM      4  C   UNL d   1      59.883  -9.614  33.716  0.00  0.00     0.187 A 
ATOM      5  N   UNL d   1      60.687  -9.627  33.881  0.00  0.00    -0.127 NA
ATOM      6  N   UNL d   1      61.084  -9.697  33.172  0.00  0.00    -0.120 NA
ATOM      7  C   UNL d   1      59.183  -9.763  31.604  0.00  0.00     0.108 A 
ATOM      8  S   UNL d   1      60.595  -9.797  31.741  0.00  0.00    -0.045 SA
ATOM      9  C   UNL d   1      59.938  -9.815  31.253  0.00  0.00     0.059 A 
ENDROOT
BRANCH   4  10
ATOM     10  C   UNL d   1      59.300  -9.550  34.282  0.00  0.00     0.041 C 
BRANCH  10  11
ATOM     11  C   UNL d   1      59.431  -9.103  34.945  0.00  0.00     0.003 A 
ATOM     12  C   UNL d   1      59.716  -9.449  35.634  0.00  0.00     0.000 A 
ATOM     13  C   UNL d   1      59.854  -9.002  36.314  0.00  0.00     0.000 A 
ATOM     14  C   UNL d   1      59.702  -8.201  36.297  0.00  0.00     0.000 A 
ATOM     15  C   UNL d   1      59.418  -7.852  35.611  0.00  0.00     0.000 A 
ATOM     16  C   UNL d   1      59.282  -8.291  34.940  0.00  0.00     0.000 A 
ENDBRANCH  10  11
ENDBRANCH   4  10
BRANCH   7  17
ATOM     17  C   UNL d   1      58.505  -9.780  31.126  0.00  0.00     0.020 A 
ATOM     18  C   UNL d   1      57.752  -9.800  31.475  0.00  0.00     0.002 A 
ATOM     19  C   UNL d   1      57.064  -9.817  31.006  0.00  0.00     0.000 A 
ATOM     20  C   UNL d   1      57.140  -9.814  30.173  0.00  0.00     0.000 A 
ATOM     21  C   UNL d   1      57.879  -9.794  29.825  0.00  0.00     0.000 A 
ATOM     22  C   UNL d   1      58.569  -9.776  30.298  0.00  0.00     0.002 A 
ENDBRANCH   7  17
TORSDOF 3
ENDMDL
MODEL 5
REMARK VINA RESULT:      -3.2      1.613      2.323
REMARK  3 active torsions:
REMARK  status: ('A' for Active; 'I' for Inactive)
REMARK    1  A    between atoms: C_10  and  C_4 
REMARK    2  A    between atoms: C_11  and  C_7 
REMARK    3  A    between atoms: C_12  and  C_10 
ROOT
ATOM      1  N   UNL d   1      57.792   0.351  32.033  0.00  0.00    -0.186 N 
ATOM      2  N   UNL d   1      57.916   0.211  31.218  0.00  0.00    -0.162 NA
ATOM      3  C   UNL d   1      58.434   0.590  32.507  0.00  0.00     0.217 A 
ATOM      4  C   UNL d   1      57.130   0.303  32.509  0.00  0.00     0.187 A 
ATOM      5  N   UNL d   1      57.345   0.507  33.275  0.00  0.00    -0.127 NA
ATOM      6  N   UNL d   1      58.142   0.682  33.270  0.00  0.00    -0.120 NA
ATOM      7  C   UNL d   1      58.663   0.309  30.889  0.00  0.00     0.108 A 
ATOM      8  S   UNL d   1      59.173   0.682  32.160  0.00  0.00    -0.045 SA
ATOM      9  C   UNL d   1      59.306   0.548  31.362  0.00  0.00     0.059 A 
ENDROOT
BRANCH   4  10
ATOM     10  C   UNL d   1      56.375   0.090  32.286  0.00  0.00     0.041 C 
BRANCH  10  11
ATOM     11  C   UNL d   1      55.815  -0.056  32.853  0.00  0.00     0.003 A 
ATOM     12  C   UNL d   1      55.342   0.551  33.141  0.00  0.00     0.000 A 
ATOM     13  C   UNL d   1      54.769   0.412  33.718  0.00  0.00     0.000 A 
ATOM     14  C   UNL d   1      54.674  -0.344  34.007  0.00  0.00     0.000 A 
ATOM     15  C   UNL d   1      55.145  -0.953  33.722  0.00  0.00     0.000 A 
ATOM     16  C   UNL d   1      55.711  -0.818  33.153  0.00  0.00     0.000 A 
ENDBRANCH  10  11
ENDBRANCH   4  10
BRANCH   7  17
ATOM     17  C   UNL d   1      58.777   0.168  30.079  0.00  0.00     0.020 A 
ATOM     18  C   UNL d   1      59.274  -0.448  29.831  0.00  0.00     0.002 A 
ATOM     19  C   UNL d   1      59.396  -0.599  29.021  0.00  0.00     0.000 A 
ATOM     20  C   UNL d   1      59.009  -0.119  28.455  0.00  0.00     0.000 A 
ATOM     21  C   UNL d   1      58.519   0.488  28.695  0.00  0.00     0.000 A 
ATOM     22  C   UNL d   1      58.397   0.639  29.510  0.00  0.00     0.002 A 
ENDBRANCH   7  17
TORSDOF 3
ENDMDL
MODEL 6
REMARK VINA RESULT:      -3.1      1.436      2.095
REMARK  3 active torsions:
REMARK  status: ('A' for Active; 'I' for Inactive)
REMARK    1  A    between atoms: C_10  and  C_4 
REMARK    2  A    between atoms: C_11  and  C_7 
REMARK    3  A    between atoms: C_12  and  C_10 
ROOT
ATOM      1  N   UNL d   1      59.601  -0.545  29.755  0.00  0.00    -0.186 N 
ATOM      2  N   UNL d   1      59.652  -1.344  29.512  0.00  0.00    -0.162 NA
ATOM      3  C   UNL d   1      60.303  -0.111  29.870  0.00  0.00     0.217 A 
ATOM      4  C   UNL d   1      58.969  -0.055  29.919  0.00  0.00     0.187 A 
ATOM      5  N   UNL d   1      59.261   0.682  30.136  0.00  0.00    -0.127 NA
ATOM      6  N   UNL d   1      60.076   0.644  30.105  0.00  0.00    -0.120 NA
ATOM      7  C   UNL d   1      60.384  -1.694  29.388  0.00  0.00     0.108 A 
ATOM      8  S   UNL d   1      61.025  -0.479  29.741  0.00  0.00    -0.045 SA
ATOM      9  C   UNL d   1      61.086  -1.261  29.503  0.00  0.00     0.059 A 
ENDROOT
BRANCH   4  10
ATOM     10  C   UNL d   1      58.176  -0.241  29.881  0.00  0.00     0.041 C 
BRANCH  10  11
ATOM     11  C   UNL d   1      57.713  -0.160  30.542  0.00  0.00     0.003 A 
ATOM     12  C   UNL d   1      57.517   0.586  30.827  0.00  0.00     0.000 A 
ATOM     13  C   UNL d   1      57.046   0.679  31.498  0.00  0.00     0.000 A 
ATOM     14  C   UNL d   1      56.773   0.015  31.884  0.00  0.00     0.000 A 
ATOM     15  C   UNL d   1      56.967  -0.731  31.602  0.00  0.00     0.000 A 
ATOM     16  C   UNL d   1      57.431  -0.825  30.941  0.00  0.00     0.000 A 
ENDBRANCH  10  11
ENDBRANCH   4  10
BRANCH   7  17
ATOM     17  C   UNL d   1      60.424  -2.487  29.146  0.00  0.00     0.020 A 
ATOM     18  C   UNL d   1      61.079  -2.952  29.355  0.00  0.00     0.002 A 
ATOM     19  C   UNL d   1      61.131  -3.749  29.119  0.00  0.00     0.000 A 
ATOM     20  C   UNL d   1      60.511  -4.079  28.664  0.00  0.00     0.000 A 
ATOM     21  C   UNL d   1      59.864  -3.626  28.456  0.00  0.00     0.000 A 
ATOM     22  C   UNL d   1      59.813  -2.825  28.695  0.00  0.00     0.002 A 
ENDBRANCH   7  17
TORSDOF 3
ENDMDL
