MODEL 1
REMARK VINA RESULT:      86.4      0.000      0.000
REMARK  5 active torsions:
REMARK  status: ('A' for Active; 'I' for Inactive)
REMARK    1  A    between atoms: C_8  and  C_1 
REMARK    2  A    between atoms: C_6  and  O_10 
REMARK       I    between atoms: N_7  and  C_6 
REMARK    3  A    between atoms: C_15  and  C_8 
REMARK    4  A    between atoms: O_10  and  C_12 
REMARK    5  A    between atoms: C_27  and  C_18 
ROOT
ATOM      1  C   UNL d   1      60.208  49.018  50.755  0.00  0.00     0.139 A 
ATOM      2  C   UNL d   1      61.233  48.181  50.528  0.00  0.00     0.064 A 
ATOM      3  C   UNL d   1      61.020  48.974  50.614  0.00  0.00     0.220 A 
ATOM      4  C   UNL d   1      60.554  47.726  50.615  0.00  0.00     0.105 A 
ATOM      5  O   UNL d   1      59.910  48.240  50.757  0.00  0.00    -0.304 OA
ATOM      6  C   UNL d   1      60.597  46.909  50.556  0.00  0.00     0.050 A 
ATOM      7  C   UNL d   1      61.959  47.822  50.381  0.00  0.00     0.007 A 
ATOM      8  C   UNL d   1      61.315  46.554  50.411  0.00  0.00     0.107 A 
ATOM      9  O   UNL d   1      61.534  49.630  50.568  0.00  0.00    -0.284 OA
ATOM     10  C   UNL d   1      61.998  47.001  50.323  0.00  0.00     0.025 A 
ENDROOT
BRANCH   1  11
ATOM     11  C   UNL d   1      59.763  49.704  50.874  0.00  0.00     0.028 C 
BRANCH  11  12
ATOM     12  C   UNL d   1      58.954  49.703  50.717  0.00  0.00     0.002 A 
ATOM     13  C   UNL d   1      58.686  49.704  49.939  0.00  0.00     0.000 A 
ATOM     14  C   UNL d   1      57.876  49.703  49.770  0.00  0.00     0.000 A 
ATOM     15  C   UNL d   1      57.333  49.700  50.396  0.00  0.00     0.000 A 
ATOM     16  C   UNL d   1      57.602  49.699  51.181  0.00  0.00     0.000 A 
ATOM     17  C   UNL d   1      58.415  49.700  51.338  0.00  0.00     0.000 A 
BRANCH  15  18
ATOM     18  C   UNL d   1      56.521  49.699  50.236  0.00  0.00     0.000 C 
ATOM     19  C   UNL d   1      56.158  49.020  49.949  0.00  0.00     0.000 C 
ENDBRANCH  15  18
ENDBRANCH  11  12
ENDBRANCH   1  11
BRANCH   8  20
ATOM     20  O   UNL d   1      61.362  45.729  50.351  0.00  0.00    -0.259 OA
BRANCH  20  21
ATOM     21  C   UNL d   1      61.642  45.370  49.655  0.00  0.00     0.378 C 
ATOM     22  N   UNL d   1      61.791  44.564  49.635  0.00  0.00    -0.247 N 
ATOM     23  C   UNL d   1      61.663  44.098  50.316  0.00  0.00     0.112 A 
ATOM     24  C   UNL d   1      62.066  44.205  48.953  0.00  0.00     0.112 A 
ATOM     25  C   UNL d   1      61.812  43.286  50.304  0.00  0.00     0.142 A 
ATOM     26  O   UNL d   1      62.092  42.933  49.601  0.00  0.00    -0.300 OA
ATOM     27  C   UNL d   1      62.218  43.392  48.930  0.00  0.00     0.142 A 
ATOM     28  O   UNL d   1      61.768  45.829  48.984  0.00  0.00    -0.237 OA
ENDBRANCH  20  21
ENDBRANCH   8  20
TORSDOF 5
ENDMDL
MODEL 2
REMARK VINA RESULT:      87.8      0.989      1.329
REMARK  5 active torsions:
REMARK  status: ('A' for Active; 'I' for Inactive)
REMARK    1  A    between atoms: C_8  and  C_1 
REMARK    2  A    between atoms: C_6  and  O_10 
REMARK       I    between atoms: N_7  and  C_6 
REMARK    3  A    between atoms: C_15  and  C_8 
REMARK    4  A    between atoms: O_10  and  C_12 
REMARK    5  A    between atoms: C_27  and  C_18 
ROOT
ATOM      1  C   UNL d   1      59.969  49.052  50.887  0.00  0.00     0.139 A 
ATOM      2  C   UNL d   1      60.940  48.272  50.385  0.00  0.00     0.064 A 
ATOM      3  C   UNL d   1      60.635  49.039  50.400  0.00  0.00     0.220 A 
ATOM      4  C   UNL d   1      60.466  47.802  50.863  0.00  0.00     0.105 A 
ATOM      5  O   UNL d   1      59.857  48.280  51.180  0.00  0.00    -0.304 OA
ATOM      6  C   UNL d   1      60.637  47.005  50.955  0.00  0.00     0.050 A 
ATOM      7  C   UNL d   1      61.589  47.949  49.995  0.00  0.00     0.007 A 
ATOM      8  C   UNL d   1      61.278  46.685  50.570  0.00  0.00     0.107 A 
ATOM      9  O   UNL d   1      60.942  49.700  49.992  0.00  0.00    -0.284 OA
ATOM     10  C   UNL d   1      61.758  47.148  50.090  0.00  0.00     0.025 A 
ENDROOT
BRANCH   1  11
ATOM     11  C   UNL d   1      59.493  49.705  51.058  0.00  0.00     0.028 C 
BRANCH  11  12
ATOM     12  C   UNL d   1      58.698  49.705  50.840  0.00  0.00     0.002 A 
ATOM     13  C   UNL d   1      58.114  49.705  51.418  0.00  0.00     0.000 A 
ATOM     14  C   UNL d   1      57.312  49.704  51.211  0.00  0.00     0.000 A 
ATOM     15  C   UNL d   1      57.103  49.704  50.408  0.00  0.00     0.000 A 
ATOM     16  C   UNL d   1      57.693  49.704  49.824  0.00  0.00     0.000 A 
ATOM     17  C   UNL d   1      58.491  49.704  50.045  0.00  0.00     0.000 A 
BRANCH  15  18
ATOM     18  C   UNL d   1      56.305  49.703  50.192  0.00  0.00     0.000 C 
ATOM     19  C   UNL d   1      56.073  49.399  49.464  0.00  0.00     0.000 C 
ENDBRANCH  15  18
ENDBRANCH  11  12
ENDBRANCH   1  11
BRANCH   8  20
ATOM     20  O   UNL d   1      61.455  45.880  50.660  0.00  0.00    -0.259 OA
BRANCH  20  21
ATOM     21  C   UNL d   1      60.915  45.367  51.030  0.00  0.00     0.378 C 
ATOM     22  N   UNL d   1      61.139  44.603  51.227  0.00  0.00    -0.247 N 
ATOM     23  C   UNL d   1      61.912  44.337  51.058  0.00  0.00     0.112 A 
ATOM     24  C   UNL d   1      60.613  44.092  51.591  0.00  0.00     0.112 A 
ATOM     25  C   UNL d   1      62.144  43.569  51.254  0.00  0.00     0.142 A 
ATOM     26  O   UNL d   1      61.596  43.059  51.625  0.00  0.00    -0.300 OA
ATOM     27  C   UNL d   1      60.835  43.321  51.791  0.00  0.00     0.142 A 
ATOM     28  O   UNL d   1      60.154  45.629  51.196  0.00  0.00    -0.237 OA
ENDBRANCH  20  21
ENDBRANCH   8  20
TORSDOF 5
ENDMDL
