MODEL 1
REMARK VINA RESULT:      -2.9      0.000      0.000
REMARK  2 active torsions:
REMARK  status: ('A' for Active; 'I' for Inactive)
REMARK    1  A    between atoms: CA_2  and  C_1 
REMARK    2  A    between atoms: C_3  and  CA_2 
ROOT
ATOM      1  C   UNL d   1      32.554  22.656 -21.466  0.00  0.00     0.053 A 
ATOM      2  C   UNL d   1      32.081  23.315 -21.649  0.00  0.00     0.142 A 
ATOM      3  F   UNL d   1      31.516  23.577 -21.109  0.00  0.00    -0.204 F 
ATOM      4  C   UNL d   1      33.125  22.392 -22.012  0.00  0.00     0.004 A 
ATOM      5  C   UNL d   1      32.183  23.702 -22.373  0.00  0.00     0.030 A 
ATOM      6  C   UNL d   1      33.219  22.788 -22.736  0.00  0.00     0.000 A 
ATOM      7  C   UNL d   1      32.748  23.440 -22.914  0.00  0.00     0.002 A 
ENDROOT
BRANCH   1   8
ATOM      8  CA  UNL d   1      32.458  22.267 -20.747  0.00  0.00     0.169 C 
ATOM      9  N   UNL d   1      32.546  22.677 -20.037  0.00  0.00    -0.142 N 
BRANCH   8  10
ATOM     10  C   UNL d   1      32.272  21.463 -20.742  0.00  0.00     0.231 C 
ATOM     11  O   UNL d   1      31.492  21.212 -20.819  0.00  0.00    -0.643 OA
ATOM     12  OXT UNL d   1      32.874  20.903 -20.658  0.00  0.00    -0.643 OA
ENDBRANCH   8  10
ENDBRANCH   1   8
TORSDOF 2
ENDMDL
MODEL 2
REMARK VINA RESULT:      -2.8      1.311      2.037
REMARK  2 active torsions:
REMARK  status: ('A' for Active; 'I' for Inactive)
REMARK    1  A    between atoms: CA_2  and  C_1 
REMARK    2  A    between atoms: C_3  and  CA_2 
ROOT
ATOM      1  C   UNL d   1      32.694  22.477 -20.458  0.00  0.00     0.053 A 
ATOM      2  C   UNL d   1      32.318  23.218 -20.437  0.00  0.00     0.142 A 
ATOM      3  F   UNL d   1      31.861  23.463 -21.078  0.00  0.00    -0.204 F 
ATOM      4  C   UNL d   1      33.156  22.229 -19.811  0.00  0.00     0.004 A 
ATOM      5  C   UNL d   1      32.407  23.702 -19.773  0.00  0.00     0.030 A 
ATOM      6  C   UNL d   1      33.239  22.724 -19.148  0.00  0.00     0.000 A 
ATOM      7  C   UNL d   1      32.865  23.457 -19.132  0.00  0.00     0.002 A 
ENDROOT
BRANCH   1   8
ATOM      8  CA  UNL d   1      32.610  21.989 -21.116  0.00  0.00     0.169 C 
ATOM      9  N   UNL d   1      32.815  22.265 -21.866  0.00  0.00    -0.142 N 
BRANCH   8  10
ATOM     10  C   UNL d   1      32.319  21.223 -21.020  0.00  0.00     0.231 C 
ATOM     11  O   UNL d   1      32.829  20.578 -21.018  0.00  0.00    -0.643 OA
ATOM     12  OXT UNL d   1      31.507  21.102 -20.925  0.00  0.00    -0.643 OA
ENDBRANCH   8  10
ENDBRANCH   1   8
TORSDOF 2
ENDMDL
MODEL 3
REMARK VINA RESULT:      -2.5      6.608      7.137
REMARK  2 active torsions:
REMARK  status: ('A' for Active; 'I' for Inactive)
REMARK    1  A    between atoms: CA_2  and  C_1 
REMARK    2  A    between atoms: C_3  and  CA_2 
ROOT
ATOM      1  C   UNL d   1      30.153  16.775 -24.338  0.00  0.00     0.053 A 
ATOM      2  C   UNL d   1      30.389  16.171 -23.819  0.00  0.00     0.142 A 
ATOM      3  F   UNL d   1      29.861  15.567 -23.626  0.00  0.00    -0.204 F 
ATOM      4  C   UNL d   1      30.685  17.385 -24.533  0.00  0.00     0.004 A 
ATOM      5  C   UNL d   1      31.152  16.181 -23.500  0.00  0.00     0.030 A 
ATOM      6  C   UNL d   1      31.450  17.386 -24.207  0.00  0.00     0.000 A 
ATOM      7  C   UNL d   1      31.679  16.785 -23.693  0.00  0.00     0.002 A 
ENDROOT
BRANCH   1   8
ATOM      8  CA  UNL d   1      29.394  16.771 -24.659  0.00  0.00     0.169 C 
ATOM      9  N   UNL d   1      29.132  16.122 -25.095  0.00  0.00    -0.142 N 
BRANCH   8  10
ATOM     10  C   UNL d   1      28.899  17.420 -24.541  0.00  0.00     0.231 C 
ATOM     11  O   UNL d   1      28.419  17.465 -23.875  0.00  0.00    -0.643 OA
ATOM     12  OXT UNL d   1      28.884  18.031 -25.097  0.00  0.00    -0.643 OA
ENDBRANCH   8  10
ENDBRANCH   1   8
TORSDOF 2
ENDMDL
MODEL 4
REMARK VINA RESULT:      -2.5      6.913      7.351
REMARK  2 active torsions:
REMARK  status: ('A' for Active; 'I' for Inactive)
REMARK    1  A    between atoms: CA_2  and  C_1 
REMARK    2  A    between atoms: C_3  and  CA_2 
ROOT
ATOM      1  C   UNL d   1      29.889  16.236 -23.948  0.00  0.00     0.053 A 
ATOM      2  C   UNL d   1      29.439  16.851 -24.278  0.00  0.00     0.142 A 
ATOM      3  F   UNL d   1      29.781  17.358 -24.832  0.00  0.00    -0.204 F 
ATOM      4  C   UNL d   1      29.543  15.724 -23.388  0.00  0.00     0.004 A 
ATOM      5  C   UNL d   1      28.651  16.950 -24.047  0.00  0.00     0.030 A 
ATOM      6  C   UNL d   1      28.751  15.833 -23.164  0.00  0.00     0.000 A 
ATOM      7  C   UNL d   1      28.309  16.444 -23.493  0.00  0.00     0.002 A 
ENDROOT
BRANCH   1   8
ATOM      8  CA  UNL d   1      30.674  16.132 -24.173  0.00  0.00     0.169 C 
ATOM      9  N   UNL d   1      30.865  16.004 -24.965  0.00  0.00    -0.142 N 
BRANCH   8  10
ATOM     10  C   UNL d   1      31.268  16.156 -23.601  0.00  0.00     0.231 C 
ATOM     11  O   UNL d   1      31.612  16.872 -23.385  0.00  0.00    -0.643 OA
ATOM     12  OXT UNL d   1      31.520  15.457 -23.242  0.00  0.00    -0.643 OA
ENDBRANCH   8  10
ENDBRANCH   1   8
TORSDOF 2
ENDMDL
MODEL 5
REMARK VINA RESULT:      -2.4      6.745      7.462
REMARK  2 active torsions:
REMARK  status: ('A' for Active; 'I' for Inactive)
REMARK    1  A    between atoms: CA_2  and  C_1 
REMARK    2  A    between atoms: C_3  and  CA_2 
ROOT
ATOM      1  C   UNL d   1      30.071  16.228 -23.944  0.00  0.00     0.053 A 
ATOM      2  C   UNL d   1      30.237  15.717 -23.310  0.00  0.00     0.142 A 
ATOM      3  F   UNL d   1      31.013  15.473 -23.173  0.00  0.00    -0.204 F 
ATOM      4  C   UNL d   1      29.287  16.475 -24.082  0.00  0.00     0.004 A 
ATOM      5  C   UNL d   1      29.621  15.458 -22.822  0.00  0.00     0.030 A 
ATOM      6  C   UNL d   1      28.676  16.208 -23.586  0.00  0.00     0.000 A 
ATOM      7  C   UNL d   1      28.845  15.702 -22.960  0.00  0.00     0.002 A 
ENDROOT
BRANCH   1   8
ATOM      8  CA  UNL d   1      30.679  16.490 -24.433  0.00  0.00     0.169 C 
ATOM      9  N   UNL d   1      31.129  15.949 -24.862  0.00  0.00    -0.142 N 
BRANCH   8  10
ATOM     10  C   UNL d   1      30.835  17.298 -24.491  0.00  0.00     0.231 C 
ATOM     11  O   UNL d   1      31.359  17.662 -23.972  0.00  0.00    -0.643 OA
ATOM     12  OXT UNL d   1      30.462  17.747 -25.076  0.00  0.00    -0.643 OA
ENDBRANCH   8  10
ENDBRANCH   1   8
TORSDOF 2
ENDMDL
MODEL 6
REMARK VINA RESULT:      -2.3      5.598      6.164
REMARK  2 active torsions:
REMARK  status: ('A' for Active; 'I' for Inactive)
REMARK    1  A    between atoms: CA_2  and  C_1 
REMARK    2  A    between atoms: C_3  and  CA_2 
ROOT
ATOM      1  C   UNL d   1      31.643  17.175 -24.005  0.00  0.00     0.053 A 
ATOM      2  C   UNL d   1      30.984  17.434 -24.440  0.00  0.00     0.142 A 
ATOM      3  F   UNL d   1      31.040  18.115 -24.903  0.00  0.00    -0.204 F 
ATOM      4  C   UNL d   1      31.586  16.488 -23.538  0.00  0.00     0.004 A 
ATOM      5  C   UNL d   1      30.277  17.006 -24.404  0.00  0.00     0.030 A 
ATOM      6  C   UNL d   1      30.871  16.065 -23.509  0.00  0.00     0.000 A 
ATOM      7  C   UNL d   1      30.221  16.326 -23.942  0.00  0.00     0.002 A 
ENDROOT
BRANCH   1   8
ATOM      8  CA  UNL d   1      32.349  17.596 -24.036  0.00  0.00     0.169 C 
ATOM      9  N   UNL d   1      32.723  17.729 -24.759  0.00  0.00    -0.142 N 
BRANCH   8  10
ATOM     10  C   UNL d   1      32.681  17.886 -23.338  0.00  0.00     0.231 C 
ATOM     11  O   UNL d   1      32.462  18.622 -23.044  0.00  0.00    -0.643 OA
ATOM     12  OXT UNL d   1      33.239  17.432 -22.931  0.00  0.00    -0.643 OA
ENDBRANCH   8  10
ENDBRANCH   1   8
TORSDOF 2
ENDMDL
MODEL 7
REMARK VINA RESULT:      -2.2      5.963      6.409
REMARK  2 active torsions:
REMARK  status: ('A' for Active; 'I' for Inactive)
REMARK    1  A    between atoms: CA_2  and  C_1 
REMARK    2  A    between atoms: C_3  and  CA_2 
ROOT
ATOM      1  C   UNL d   1      31.556  16.949 -24.036  0.00  0.00     0.053 A 
ATOM      2  C   UNL d   1      31.557  17.688 -24.414  0.00  0.00     0.142 A 
ATOM      3  F   UNL d   1      31.006  17.846 -25.008  0.00  0.00    -0.204 F 
ATOM      4  C   UNL d   1      32.112  16.789 -23.437  0.00  0.00     0.004 A 
ATOM      5  C   UNL d   1      32.113  18.259 -24.193  0.00  0.00     0.030 A 
ATOM      6  C   UNL d   1      32.666  17.370 -23.222  0.00  0.00     0.000 A 
ATOM      7  C   UNL d   1      32.664  18.101 -23.599  0.00  0.00     0.002 A 
ENDROOT
BRANCH   1   8
ATOM      8  CA  UNL d   1      31.006  16.376 -24.252  0.00  0.00     0.169 C 
ATOM      9  N   UNL d   1      30.987  16.088 -25.025  0.00  0.00    -0.142 N 
BRANCH   8  10
ATOM     10  C   UNL d   1      30.473  16.091 -23.690  0.00  0.00     0.231 C 
ATOM     11  O   UNL d   1      30.674  15.457 -23.205  0.00  0.00    -0.643 OA
ATOM     12  OXT UNL d   1      29.730  16.444 -23.613  0.00  0.00    -0.643 OA
ENDBRANCH   8  10
ENDBRANCH   1   8
TORSDOF 2
ENDMDL
