MODEL 1
REMARK VINA RESULT:      -5.9      0.000      0.000
REMARK  2 active torsions:
REMARK  status: ('A' for Active; 'I' for Inactive)
REMARK    1  A    between atoms: C_6  and  C_1 
REMARK    2  A    between atoms: C_8  and  C_5 
ROOT
ATOM      1  C   UNL d   1     -47.255  11.785  23.545  0.00  0.00     0.169 A 
ATOM      2  C   UNL d   1     -47.882  12.266  23.291  0.00  0.00     0.048 A 
ATOM      3  N   UNL d   1     -48.360  11.045  23.509  0.00  0.00    -0.148 NA
ATOM      4  N   UNL d   1     -47.553  11.024  23.681  0.00  0.00    -0.142 NA
ATOM      5  C   UNL d   1     -48.553  11.814  23.270  0.00  0.00     0.105 A 
ENDROOT
BRANCH   1   6
ATOM      6  C   UNL d   1     -46.471  12.019  23.646  0.00  0.00     0.231 C 
ATOM      7  O   UNL d   1     -45.871  11.454  23.697  0.00  0.00    -0.643 OA
ATOM      8  O   UNL d   1     -46.286  12.824  23.697  0.00  0.00    -0.643 OA
ENDBRANCH   1   6
BRANCH   5   9
ATOM      9  C   UNL d   1     -49.305  12.079  23.046  0.00  0.00     0.019 C 
ATOM     10  C   UNL d   1     -49.840  12.322  23.613  0.00  0.00     0.002 C 
ATOM     11  C   UNL d   1     -49.510  12.096  22.251  0.00  0.00     0.002 C 
ENDBRANCH   5   9
TORSDOF 2
ENDMDL
MODEL 2
REMARK VINA RESULT:      -5.9      1.829      2.619
REMARK  2 active torsions:
REMARK  status: ('A' for Active; 'I' for Inactive)
REMARK    1  A    between atoms: C_6  and  C_1 
REMARK    2  A    between atoms: C_8  and  C_5 
ROOT
ATOM      1  C   UNL d   1     -47.788  11.899  23.190  0.00  0.00     0.169 A 
ATOM      2  C   UNL d   1     -47.633  12.626  22.818  0.00  0.00     0.048 A 
ATOM      3  N   UNL d   1     -46.619  12.353  23.634  0.00  0.00    -0.148 NA
ATOM      4  N   UNL d   1     -47.156  11.730  23.698  0.00  0.00    -0.142 NA
ATOM      5  C   UNL d   1     -46.922  12.900  23.089  0.00  0.00     0.105 A 
ENDROOT
BRANCH   1   6
ATOM      6  C   UNL d   1     -48.453  11.425  23.077  0.00  0.00     0.231 C 
ATOM      7  O   UNL d   1     -48.979  11.291  23.698  0.00  0.00    -0.643 OA
ATOM      8  O   UNL d   1     -48.592  11.084  22.336  0.00  0.00    -0.643 OA
ENDBRANCH   1   6
BRANCH   5   9
ATOM      9  C   UNL d   1     -46.560  13.608  22.860  0.00  0.00     0.019 C 
ATOM     10  C   UNL d   1     -45.800  13.602  22.558  0.00  0.00     0.002 C 
ATOM     11  C   UNL d   1     -46.967  14.317  22.937  0.00  0.00     0.002 C 
ENDBRANCH   5   9
TORSDOF 2
ENDMDL
MODEL 3
REMARK VINA RESULT:      -5.8      2.121      2.622
REMARK  2 active torsions:
REMARK  status: ('A' for Active; 'I' for Inactive)
REMARK    1  A    between atoms: C_6  and  C_1 
REMARK    2  A    between atoms: C_8  and  C_5 
ROOT
ATOM      1  C   UNL d   1     -46.706  13.598  23.188  0.00  0.00     0.169 A 
ATOM      2  C   UNL d   1     -47.163  12.907  23.240  0.00  0.00     0.048 A 
ATOM      3  N   UNL d   1     -45.924  12.614  23.621  0.00  0.00    -0.148 NA
ATOM      4  N   UNL d   1     -45.934  13.415  23.425  0.00  0.00    -0.142 NA
ATOM      5  C   UNL d   1     -46.686  12.309  23.504  0.00  0.00     0.105 A 
ENDROOT
BRANCH   1   6
ATOM      6  C   UNL d   1     -46.970  14.340  22.943  0.00  0.00     0.231 C 
ATOM      7  O   UNL d   1     -47.768  14.538  23.003  0.00  0.00    -0.643 OA
ATOM      8  O   UNL d   1     -46.430  14.886  22.635  0.00  0.00    -0.643 OA
ENDBRANCH   1   6
BRANCH   5   9
ATOM      9  C   UNL d   1     -46.921  11.526  23.634  0.00  0.00     0.019 C 
ATOM     10  C   UNL d   1     -47.715  11.341  23.698  0.00  0.00     0.002 C 
ATOM     11  C   UNL d   1     -46.354  10.936  23.698  0.00  0.00     0.002 C 
ENDBRANCH   5   9
TORSDOF 2
ENDMDL
MODEL 4
REMARK VINA RESULT:      -5.8      1.187      1.543
REMARK  2 active torsions:
REMARK  status: ('A' for Active; 'I' for Inactive)
REMARK    1  A    between atoms: C_6  and  C_1 
REMARK    2  A    between atoms: C_8  and  C_5 
ROOT
ATOM      1  C   UNL d   1     -46.730  13.026  23.134  0.00  0.00     0.169 A 
ATOM      2  C   UNL d   1     -47.503  12.915  22.850  0.00  0.00     0.048 A 
ATOM      3  N   UNL d   1     -47.227  11.926  23.694  0.00  0.00    -0.148 NA
ATOM      4  N   UNL d   1     -46.559  12.410  23.660  0.00  0.00    -0.142 NA
ATOM      5  C   UNL d   1     -47.803  12.246  23.192  0.00  0.00     0.105 A 
ENDROOT
BRANCH   1   6
ATOM      6  C   UNL d   1     -46.219  13.640  22.931  0.00  0.00     0.231 C 
ATOM      7  O   UNL d   1     -45.440  13.479  22.713  0.00  0.00    -0.643 OA
ATOM      8  O   UNL d   1     -46.491  14.422  22.946  0.00  0.00    -0.643 OA
ENDBRANCH   1   6
BRANCH   5   9
ATOM      9  C   UNL d   1     -48.559  11.936  23.060  0.00  0.00     0.019 C 
ATOM     10  C   UNL d   1     -48.813  11.782  22.298  0.00  0.00     0.002 C 
ATOM     11  C   UNL d   1     -49.053  11.782  23.698  0.00  0.00     0.002 C 
ENDBRANCH   5   9
TORSDOF 2
ENDMDL
MODEL 5
REMARK VINA RESULT:      -5.8      2.143      2.333
REMARK  2 active torsions:
REMARK  status: ('A' for Active; 'I' for Inactive)
REMARK    1  A    between atoms: C_6  and  C_1 
REMARK    2  A    between atoms: C_8  and  C_5 
ROOT
ATOM      1  C   UNL d   1     -46.932  13.408  22.746  0.00  0.00     0.169 A 
ATOM      2  C   UNL d   1     -47.351  14.083  22.988  0.00  0.00     0.048 A 
ATOM      3  N   UNL d   1     -48.120  13.398  22.147  0.00  0.00    -0.148 NA
ATOM      4  N   UNL d   1     -47.411  12.982  22.222  0.00  0.00    -0.142 NA
ATOM      5  C   UNL d   1     -48.073  14.076  22.622  0.00  0.00     0.105 A 
ENDROOT
BRANCH   1   6
ATOM      6  C   UNL d   1     -46.172  13.195  22.984  0.00  0.00     0.231 C 
ATOM      7  O   UNL d   1     -45.516  13.436  22.546  0.00  0.00    -0.643 OA
ATOM      8  O   UNL d   1     -46.068  12.737  23.665  0.00  0.00    -0.643 OA
ENDBRANCH   1   6
BRANCH   5   9
ATOM      9  C   UNL d   1     -48.663  14.649  22.710  0.00  0.00     0.019 C 
ATOM     10  C   UNL d   1     -48.603  15.364  22.318  0.00  0.00     0.002 C 
ATOM     11  C   UNL d   1     -49.310  14.497  23.194  0.00  0.00     0.002 C 
ENDBRANCH   5   9
TORSDOF 2
ENDMDL
