MODEL 1
REMARK VINA RESULT:      -3.5      0.000      0.000
REMARK  2 active torsions:
REMARK  status: ('A' for Active; 'I' for Inactive)
REMARK    1  A    between atoms: N_11  and  C_4 
REMARK    2  A    between atoms: C_16  and  N_12 
ROOT
ATOM      1  N   UNL d   1      58.253  -1.064  30.244  0.00  0.00    -0.195 N 
ATOM      2  C   UNL d   1      58.777  -1.237  29.651  0.00  0.00     0.168 A 
ATOM      3  C   UNL d   1      58.827  -1.977  29.356  0.00  0.00     0.073 A 
ATOM      4  C   UNL d   1      58.217  -0.318  30.528  0.00  0.00     0.153 A 
ATOM      5  N   UNL d   1      57.825  -2.369  30.248  0.00  0.00    -0.143 NA
ATOM      6  C   UNL d   1      58.349  -2.543  29.656  0.00  0.00     0.185 A 
ATOM      7  N   UNL d   1      59.251  -0.661  29.358  0.00  0.00    -0.227 NA
ATOM      8  C   UNL d   1      59.345  -2.149  28.770  0.00  0.00     0.007 A 
ATOM      9  N   UNL d   1      58.388  -3.297  29.367  0.00  0.00    -0.225 NA
ATOM     10  C   UNL d   1      58.685   0.255  30.240  0.00  0.00     0.057 A 
ATOM     11  C   UNL d   1      59.394  -2.889  28.474  0.00  0.00     0.019 A 
ATOM     12  C   UNL d   1      59.209   0.081  29.647  0.00  0.00     0.086 A 
ATOM     13  C   UNL d   1      58.912  -3.471  28.774  0.00  0.00     0.083 A 
ATOM     14  C   UNL d   1      59.821  -1.569  28.476  0.00  0.00     0.000 C 
ATOM     15  C   UNL d   1      59.700   0.682  29.344  0.00  0.00     0.021 C 
ATOM     16  C   UNL d   1      58.956  -4.209  28.484  0.00  0.00     0.021 C 
ENDROOT
BRANCH   4  17
ATOM     17  N   UNL d   1      57.674  -0.148  31.139  0.00  0.00    -0.286 N 
ATOM     18  C   UNL d   1      57.220   0.545  31.146  0.00  0.00     0.101 A 
ATOM     19  C   UNL d   1      56.691   0.681  31.768  0.00  0.00     0.100 A 
ATOM     20  N   UNL d   1      56.611   0.130  32.385  0.00  0.00    -0.301 N 
ATOM     21  C   UNL d   1      57.069  -0.577  32.385  0.00  0.00     0.100 A 
ATOM     22  C   UNL d   1      57.597  -0.710  31.761  0.00  0.00     0.101 A 
BRANCH  20  23
ATOM     23  C   UNL d   1      56.081   0.270  33.005  0.00  0.00     0.064 A 
ATOM     24  C   UNL d   1      56.357   0.529  33.740  0.00  0.00     0.016 A 
ATOM     25  C   UNL d   1      57.164   0.650  33.861  0.00  0.00     0.002 C 
ATOM     26  C   UNL d   1      55.819   0.672  34.371  0.00  0.00     0.001 A 
ATOM     27  C   UNL d   1      54.997   0.551  34.254  0.00  0.00     0.000 A 
ATOM     28  C   UNL d   1      54.722   0.288  33.505  0.00  0.00     0.002 A 
ATOM     29  C   UNL d   1      55.262   0.149  32.887  0.00  0.00     0.018 A 
ENDBRANCH  20  23
ENDBRANCH   4  17
TORSDOF 2
ENDMDL
