MODEL 1
REMARK VINA RESULT:      46.6      0.000      0.000
REMARK  3 active torsions:
REMARK  status: ('A' for Active; 'I' for Inactive)
REMARK    1  A    between atoms: C_7  and  C_1 
REMARK    2  A    between atoms: O_20  and  C_12 
REMARK    3  A    between atoms: O_22  and  C_16 
ROOT
ATOM      1  C   UNL d   1      14.133  13.079  -2.575  0.00  0.00     0.062 A 
ATOM      2  C   UNL d   1      13.963  13.469  -3.292  0.00  0.00     0.202 A 
ATOM      3  C   UNL d   1      13.664  13.048  -3.938  0.00  0.00     0.101 A 
ATOM      4  C   UNL d   1      13.998  12.255  -2.510  0.00  0.00     0.103 A 
ATOM      5  C   UNL d   1      13.530  12.224  -3.869  0.00  0.00     0.109 A 
ATOM      6  O   UNL d   1      13.695  11.829  -3.163  0.00  0.00    -0.307 OA
ATOM      7  C   UNL d   1      13.497  13.434  -4.644  0.00  0.00     0.204 A 
ATOM      8  C   UNL d   1      13.230  11.802  -4.515  0.00  0.00     0.067 A 
ATOM      9  C   UNL d   1      13.199  13.013  -5.285  0.00  0.00     0.084 A 
ATOM     10  O   UNL d   1      14.096  14.281  -3.357  0.00  0.00    -0.286 OA
ATOM     11  C   UNL d   1      13.067  12.201  -5.221  0.00  0.00     0.201 A 
ATOM     12  O   UNL d   1      13.630  14.246  -4.708  0.00  0.00    -0.286 OA
ATOM     13  C   UNL d   1      14.164  11.872  -1.805  0.00  0.00     0.027 C 
ATOM     14  O   UNL d   1      12.768  11.779  -5.862  0.00  0.00    -0.286 OA
ENDROOT
BRANCH   1  15
ATOM     15  C   UNL d   1      14.429  13.500  -1.938  0.00  0.00     0.007 A 
ATOM     16  C   UNL d   1      15.081  13.212  -1.527  0.00  0.00     0.026 A 
ATOM     17  C   UNL d   1      15.382  13.634  -0.886  0.00  0.00     0.116 A 
ATOM     18  C   UNL d   1      15.026  14.351  -0.655  0.00  0.00     0.116 A 
ATOM     19  C   UNL d   1      14.372  14.631  -1.075  0.00  0.00     0.026 A 
ATOM     20  C   UNL d   1      14.072  14.210  -1.715  0.00  0.00     0.002 A 
BRANCH  17  21
ATOM     21  O   UNL d   1      16.037  13.345  -0.472  0.00  0.00    -0.326 OA
ATOM     22  C   UNL d   1      15.964  12.661  -0.016  0.00  0.00     0.181 C 
ENDBRANCH  17  21
BRANCH  18  23
ATOM     23  O   UNL d   1      15.326  14.772  -0.014  0.00  0.00    -0.326 OA
ATOM     24  C   UNL d   1      15.407  15.593  -0.060  0.00  0.00     0.181 C 
ENDBRANCH  18  23
ENDBRANCH   1  15
TORSDOF 3
ENDMDL
MODEL 2
REMARK VINA RESULT:      48.4      0.970      4.252
REMARK  3 active torsions:
REMARK  status: ('A' for Active; 'I' for Inactive)
REMARK    1  A    between atoms: C_7  and  C_1 
REMARK    2  A    between atoms: O_20  and  C_12 
REMARK    3  A    between atoms: O_22  and  C_16 
ROOT
ATOM      1  C   UNL d   1      14.314  13.689  -2.068  0.00  0.00     0.062 A 
ATOM      2  C   UNL d   1      14.414  14.504  -2.218  0.00  0.00     0.202 A 
ATOM      3  C   UNL d   1      14.797  14.988  -1.667  0.00  0.00     0.101 A 
ATOM      4  C   UNL d   1      14.603  13.361  -1.354  0.00  0.00     0.103 A 
ATOM      5  C   UNL d   1      15.085  14.656  -0.955  0.00  0.00     0.109 A 
ATOM      6  O   UNL d   1      14.991  13.851  -0.797  0.00  0.00    -0.307 OA
ATOM      7  C   UNL d   1      14.894  15.790  -1.817  0.00  0.00     0.204 A 
ATOM      8  C   UNL d   1      15.468  15.140  -0.403  0.00  0.00     0.067 A 
ATOM      9  C   UNL d   1      15.275  16.269  -1.267  0.00  0.00     0.084 A 
ATOM     10  O   UNL d   1      14.128  14.827  -2.922  0.00  0.00    -0.286 OA
ATOM     11  C   UNL d   1      15.561  15.946  -0.564  0.00  0.00     0.201 A 
ATOM     12  O   UNL d   1      14.609  16.113  -2.521  0.00  0.00    -0.286 OA
ATOM     13  C   UNL d   1      14.505  12.562  -1.207  0.00  0.00     0.027 C 
ATOM     14  O   UNL d   1      15.942  16.425  -0.014  0.00  0.00    -0.286 OA
ENDROOT
BRANCH   1  15
ATOM     15  C   UNL d   1      13.934  13.214  -2.617  0.00  0.00     0.007 A 
ATOM     16  C   UNL d   1      13.556  13.558  -3.261  0.00  0.00     0.026 A 
ATOM     17  C   UNL d   1      13.173  13.082  -3.814  0.00  0.00     0.116 A 
ATOM     18  C   UNL d   1      13.169  12.255  -3.721  0.00  0.00     0.116 A 
ATOM     19  C   UNL d   1      13.552  11.920  -3.070  0.00  0.00     0.026 A 
ATOM     20  C   UNL d   1      13.934  12.395  -2.517  0.00  0.00     0.002 A 
BRANCH  17  21
ATOM     21  O   UNL d   1      12.793  13.427  -4.463  0.00  0.00    -0.326 OA
ATOM     22  C   UNL d   1      12.942  14.215  -4.653  0.00  0.00     0.181 C 
ENDBRANCH  17  21
BRANCH  18  23
ATOM     23  O   UNL d   1      12.786  11.780  -4.274  0.00  0.00    -0.326 OA
ATOM     24  C   UNL d   1      12.968  11.850  -5.077  0.00  0.00     0.181 C 
ENDBRANCH  18  23
ENDBRANCH   1  15
TORSDOF 3
ENDMDL
MODEL 3
REMARK VINA RESULT:      49.4      1.328      4.333
REMARK  3 active torsions:
REMARK  status: ('A' for Active; 'I' for Inactive)
REMARK    1  A    between atoms: C_7  and  C_1 
REMARK    2  A    between atoms: O_20  and  C_12 
REMARK    3  A    between atoms: O_22  and  C_16 
ROOT
ATOM      1  C   UNL d   1      14.135  14.656  -2.908  0.00  0.00     0.062 A 
ATOM      2  C   UNL d   1      14.346  14.667  -2.101  0.00  0.00     0.202 A 
ATOM      3  C   UNL d   1      14.684  15.344  -1.767  0.00  0.00     0.101 A 
ATOM      4  C   UNL d   1      14.267  15.333  -3.381  0.00  0.00     0.103 A 
ATOM      5  C   UNL d   1      14.815  16.020  -2.242  0.00  0.00     0.109 A 
ATOM      6  O   UNL d   1      14.609  16.017  -3.042  0.00  0.00    -0.307 OA
ATOM      7  C   UNL d   1      14.891  15.354  -0.971  0.00  0.00     0.204 A 
ATOM      8  C   UNL d   1      15.153  16.697  -1.908  0.00  0.00     0.067 A 
ATOM      9  C   UNL d   1      15.228  16.028  -0.641  0.00  0.00     0.084 A 
ATOM     10  O   UNL d   1      14.215  13.999  -1.635  0.00  0.00    -0.286 OA
ATOM     11  C   UNL d   1      15.358  16.697  -1.107  0.00  0.00     0.201 A 
ATOM     12  O   UNL d   1      14.761  14.686  -0.505  0.00  0.00    -0.286 OA
ATOM     13  C   UNL d   1      14.060  15.321  -4.173  0.00  0.00     0.027 C 
ATOM     14  O   UNL d   1      15.695  17.371  -0.776  0.00  0.00    -0.286 OA
ENDROOT
BRANCH   1  15
ATOM     15  C   UNL d   1      13.800  13.983  -3.235  0.00  0.00     0.007 A 
ATOM     16  C   UNL d   1      13.959  13.246  -2.903  0.00  0.00     0.026 A 
ATOM     17  C   UNL d   1      13.623  12.569  -3.230  0.00  0.00     0.116 A 
ATOM     18  C   UNL d   1      13.124  12.629  -3.895  0.00  0.00     0.116 A 
ATOM     19  C   UNL d   1      12.972  13.374  -4.220  0.00  0.00     0.026 A 
ATOM     20  C   UNL d   1      13.307  14.050  -3.893  0.00  0.00     0.002 A 
BRANCH  17  21
ATOM     21  O   UNL d   1      13.781  11.828  -2.898  0.00  0.00    -0.326 OA
ATOM     22  C   UNL d   1      14.193  11.779  -2.185  0.00  0.00     0.181 C 
ENDBRANCH  17  21
BRANCH  18  23
ATOM     23  O   UNL d   1      12.789  11.951  -4.221  0.00  0.00    -0.326 OA
ATOM     24  C   UNL d   1      12.900  11.779  -5.022  0.00  0.00     0.181 C 
ENDBRANCH  18  23
ENDBRANCH   1  15
TORSDOF 3
ENDMDL
