MODEL 1
REMARK VINA RESULT:      -6.2      0.000      0.000
REMARK  1 active torsions:
REMARK  status: ('A' for Active; 'I' for Inactive)
REMARK    1  A    between atoms: C_7  and  C_2 
ROOT
ATOM      1  C   UNL d   1     -41.619-122.490 -53.745  0.00  0.00     0.070 A 
ATOM      2  C   UNL d   1     -41.726-122.713 -54.511  0.00  0.00     0.170 A 
ATOM      3  C   UNL d   1     -41.495-123.160 -53.275  0.00  0.00     0.108 A 
ATOM      4  N   UNL d   1     -41.671-123.554 -54.544  0.00  0.00    -0.142 NA
ATOM      5  N   UNL d   1     -41.527-123.817 -53.772  0.00  0.00    -0.148 NA
ATOM      6  C   UNL d   1     -41.370-123.068 -52.461  0.00  0.00     0.042 A 
ATOM      7  C   UNL d   1     -41.619-121.738 -53.407  0.00  0.00     0.126 A 
ATOM      8  O   UNL d   1     -41.494-121.646 -52.594  0.00  0.00    -0.305 OA
ATOM      9  C   UNL d   1     -41.370-122.316 -52.123  0.00  0.00     0.102 A 
ATOM     10  C   UNL d   1     -41.245-123.738 -51.990  0.00  0.00     0.004 A 
ATOM     11  C   UNL d   1     -41.245-122.223 -51.309  0.00  0.00     0.025 A 
ATOM     12  C   UNL d   1     -41.123-123.641 -51.187  0.00  0.00     0.000 A 
ATOM     13  C   UNL d   1     -41.123-122.889 -50.848  0.00  0.00     0.002 A 
ENDROOT
BRANCH   2  14
ATOM     14  C   UNL d   1     -41.862-122.187 -55.117  0.00  0.00     0.231 C 
ATOM     15  O   UNL d   1     -41.239-121.904 -55.562  0.00  0.00    -0.643 OA
ATOM     16  O   UNL d   1     -42.632-121.939 -55.285  0.00  0.00    -0.643 OA
ENDBRANCH   2  14
TORSDOF 1
ENDMDL
MODEL 2
REMARK VINA RESULT:      -5.0      1.206      3.020
REMARK  1 active torsions:
REMARK  status: ('A' for Active; 'I' for Inactive)
REMARK    1  A    between atoms: C_7  and  C_2 
ROOT
ATOM      1  C   UNL d   1     -41.625-122.545 -52.214  0.00  0.00     0.070 A 
ATOM      2  C   UNL d   1     -41.570-122.824 -51.462  0.00  0.00     0.170 A 
ATOM      3  C   UNL d   1     -41.428-123.146 -52.750  0.00  0.00     0.108 A 
ATOM      4  N   UNL d   1     -41.330-123.632 -51.504  0.00  0.00    -0.142 NA
ATOM      5  N   UNL d   1     -41.246-123.817 -52.307  0.00  0.00    -0.148 NA
ATOM      6  C   UNL d   1     -41.445-122.987 -53.563  0.00  0.00     0.042 A 
ATOM      7  C   UNL d   1     -41.836-121.796 -52.488  0.00  0.00     0.126 A 
ATOM      8  O   UNL d   1     -41.853-121.637 -53.301  0.00  0.00    -0.305 OA
ATOM      9  C   UNL d   1     -41.656-122.237 -53.836  0.00  0.00     0.102 A 
ATOM     10  C   UNL d   1     -41.248-123.587 -54.098  0.00  0.00     0.004 A 
ATOM     11  C   UNL d   1     -41.673-122.079 -54.649  0.00  0.00     0.025 A 
ATOM     12  C   UNL d   1     -41.267-123.425 -54.900  0.00  0.00     0.000 A 
ATOM     13  C   UNL d   1     -41.478-122.676 -55.174  0.00  0.00     0.002 A 
ENDROOT
BRANCH   2  14
ATOM     14  C   UNL d   1     -41.727-122.374 -50.803  0.00  0.00     0.231 C 
ATOM     15  O   UNL d   1     -41.123-121.975 -50.424  0.00  0.00    -0.643 OA
ATOM     16  O   UNL d   1     -42.499-122.318 -50.514  0.00  0.00    -0.643 OA
ENDBRANCH   2  14
TORSDOF 1
ENDMDL
MODEL 3
REMARK VINA RESULT:      -4.7      2.522      3.633
REMARK  1 active torsions:
REMARK  status: ('A' for Active; 'I' for Inactive)
REMARK    1  A    between atoms: C_7  and  C_2 
ROOT
ATOM      1  C   UNL d   1     -41.917-122.652 -50.413  0.00  0.00     0.070 A 
ATOM      2  C   UNL d   1     -42.128-122.243 -51.073  0.00  0.00     0.170 A 
ATOM      3  C   UNL d   1     -42.546-122.652 -49.873  0.00  0.00     0.108 A 
ATOM      4  N   UNL d   1     -42.917-121.966 -50.964  0.00  0.00    -0.142 NA
ATOM      5  N   UNL d   1     -43.162-122.227 -50.217  0.00  0.00    -0.148 NA
ATOM      6  C   UNL d   1     -42.458-123.042 -49.148  0.00  0.00     0.042 A 
ATOM      7  C   UNL d   1     -41.211-123.037 -50.230  0.00  0.00     0.126 A 
ATOM      8  O   UNL d   1     -41.123-123.427 -49.505  0.00  0.00    -0.305 OA
ATOM      9  C   UNL d   1     -41.751-123.427 -48.965  0.00  0.00     0.102 A 
ATOM     10  C   UNL d   1     -43.086-123.042 -48.608  0.00  0.00     0.004 A 
ATOM     11  C   UNL d   1     -41.663-123.817 -48.239  0.00  0.00     0.025 A 
ATOM     12  C   UNL d   1     -42.994-123.429 -47.892  0.00  0.00     0.000 A 
ATOM     13  C   UNL d   1     -42.287-123.814 -47.709  0.00  0.00     0.002 A 
ENDROOT
BRANCH   2  14
ATOM     14  C   UNL d   1     -41.635-122.138 -51.713  0.00  0.00     0.231 C 
ATOM     15  O   UNL d   1     -41.634-122.680 -52.324  0.00  0.00    -0.643 OA
ATOM     16  O   UNL d   1     -41.133-121.482 -51.745  0.00  0.00    -0.643 OA
ENDBRANCH   2  14
TORSDOF 1
ENDMDL
