MODEL 1
REMARK VINA RESULT:      -8.9      0.000      0.000
REMARK  5 active torsions:
REMARK  status: ('A' for Active; 'I' for Inactive)
REMARK    1  A    between atoms: C_8  and  C_1 
REMARK    2  A    between atoms: C_10  and  C_2 
REMARK    3  A    between atoms: N_6  and  C_9 
REMARK    4  A    between atoms: O_19  and  C_8 
REMARK    5  A    between atoms: C_21  and  O_19 
ROOT
ATOM      1  C   UNL d   1      53.489  33.563  54.055  0.00  0.00     0.099 A 
ATOM      2  C   UNL d   1      53.921  32.922  54.344  0.00  0.00     0.093 A 
ATOM      3  C   UNL d   1      53.667  34.337  54.299  0.00  0.00     0.093 A 
ATOM      4  N   UNL d   1      54.539  33.061  54.887  0.00  0.00    -0.191 NA
ATOM      5  C   UNL d   1      54.716  33.835  55.130  0.00  0.00     0.369 A 
ATOM      6  N   UNL d   1      54.276  34.472  54.832  0.00  0.00    -0.191 NA
ATOM      7  O   UNL d   1      55.328  33.968  55.666  0.00  0.00    -0.242 OA
ATOM      8  C   UNL d   1      53.229  34.968  54.002  0.00  0.00     0.021 C 
ENDROOT
BRANCH   2   9
ATOM      9  C   UNL d   1      53.748  32.151  54.105  0.00  0.00     0.018 A 
ATOM     10  C   UNL d   1      53.321  31.663  54.609  0.00  0.00     0.003 A 
ATOM     11  C   UNL d   1      53.145  30.895  54.380  0.00  0.00     0.024 A 
ATOM     12  C   UNL d   1      53.396  30.608  53.640  0.00  0.00     0.127 A 
ATOM     13  C   UNL d   1      53.827  31.105  53.135  0.00  0.00     0.024 A 
ATOM     14  C   UNL d   1      54.002  31.876  53.370  0.00  0.00     0.003 A 
BRANCH  12  15
ATOM     15  N   UNL d   1      53.221  29.837  53.405  0.00  0.00    -0.114 N 
ATOM     16  O   UNL d   1      53.310  29.212  53.939  0.00  0.00    -0.532 OA
ATOM     17  O   UNL d   1      52.958  29.688  52.637  0.00  0.00    -0.532 OA
ENDBRANCH  12  15
ENDBRANCH   2   9
BRANCH   1  18
ATOM     18  C   UNL d   1      52.878  33.434  53.520  0.00  0.00     0.303 C 
ATOM     19  O   UNL d   1      53.047  33.296  52.724  0.00  0.00    -0.259 OA
BRANCH  18  20
ATOM     20  O   UNL d   1      52.092  33.443  53.775  0.00  0.00    -0.271 OA
BRANCH  20  21
ATOM     21  C   UNL d   1      51.488  33.632  53.245  0.00  0.00     0.126 C 
ATOM     22  C   UNL d   1      50.709  33.497  53.454  0.00  0.00     0.029 C 
ENDBRANCH  20  21
ENDBRANCH  18  20
ENDBRANCH   1  18
TORSDOF 5
ENDMDL
MODEL 2
REMARK VINA RESULT:      -8.9      1.702      3.316
REMARK  5 active torsions:
REMARK  status: ('A' for Active; 'I' for Inactive)
REMARK    1  A    between atoms: C_8  and  C_1 
REMARK    2  A    between atoms: C_10  and  C_2 
REMARK    3  A    between atoms: N_6  and  C_9 
REMARK    4  A    between atoms: O_19  and  C_8 
REMARK    5  A    between atoms: C_21  and  O_19 
ROOT
ATOM      1  C   UNL d   1      53.255  33.086  53.777  0.00  0.00     0.099 A 
ATOM      2  C   UNL d   1      52.785  33.753  53.903  0.00  0.00     0.093 A 
ATOM      3  C   UNL d   1      53.935  32.955  54.236  0.00  0.00     0.093 A 
ATOM      4  N   UNL d   1      53.003  34.295  54.498  0.00  0.00    -0.191 NA
ATOM      5  C   UNL d   1      53.682  34.164  54.956  0.00  0.00     0.369 A 
ATOM      6  N   UNL d   1      54.147  33.491  54.821  0.00  0.00    -0.191 NA
ATOM      7  O   UNL d   1      53.894  34.703  55.543  0.00  0.00    -0.242 OA
ATOM      8  C   UNL d   1      54.395  32.286  54.100  0.00  0.00     0.021 C 
ENDROOT
BRANCH   2   9
ATOM      9  C   UNL d   1      52.109  33.888  53.450  0.00  0.00     0.018 A 
ATOM     10  C   UNL d   1      52.177  34.297  52.741  0.00  0.00     0.003 A 
ATOM     11  C   UNL d   1      51.510  34.435  52.284  0.00  0.00     0.024 A 
ATOM     12  C   UNL d   1      50.764  34.164  52.534  0.00  0.00     0.127 A 
ATOM     13  C   UNL d   1      50.700  33.751  53.251  0.00  0.00     0.024 A 
ATOM     14  C   UNL d   1      51.373  33.614  53.707  0.00  0.00     0.003 A 
BRANCH  12  15
ATOM     15  N   UNL d   1      50.091  34.301  52.078  0.00  0.00    -0.114 N 
ATOM     16  O   UNL d   1      50.105  34.153  51.266  0.00  0.00    -0.532 OA
ATOM     17  O   UNL d   1      49.402  34.586  52.434  0.00  0.00    -0.532 OA
ENDBRANCH  12  15
ENDBRANCH   2   9
BRANCH   1  18
ATOM     18  C   UNL d   1      53.047  32.546  53.192  0.00  0.00     0.303 C 
ATOM     19  O   UNL d   1      53.182  32.725  52.398  0.00  0.00    -0.259 OA
BRANCH  18  20
ATOM     20  O   UNL d   1      52.703  31.824  53.395  0.00  0.00    -0.271 OA
BRANCH  20  21
ATOM     21  C   UNL d   1      52.798  31.168  52.902  0.00  0.00     0.126 C 
ATOM     22  C   UNL d   1      52.455  30.454  53.107  0.00  0.00     0.029 C 
ENDBRANCH  20  21
ENDBRANCH  18  20
ENDBRANCH   1  18
TORSDOF 5
ENDMDL
MODEL 3
REMARK VINA RESULT:      -8.7      1.750      3.689
REMARK  5 active torsions:
REMARK  status: ('A' for Active; 'I' for Inactive)
REMARK    1  A    between atoms: C_8  and  C_1 
REMARK    2  A    between atoms: C_10  and  C_2 
REMARK    3  A    between atoms: N_6  and  C_9 
REMARK    4  A    between atoms: O_19  and  C_8 
REMARK    5  A    between atoms: C_21  and  O_19 
ROOT
ATOM      1  C   UNL d   1      53.134  32.899  53.410  0.00  0.00     0.099 A 
ATOM      2  C   UNL d   1      52.432  32.626  53.071  0.00  0.00     0.093 A 
ATOM      3  C   UNL d   1      53.770  32.381  53.540  0.00  0.00     0.093 A 
ATOM      4  N   UNL d   1      52.370  31.821  52.860  0.00  0.00    -0.191 NA
ATOM      5  C   UNL d   1      53.006  31.304  52.991  0.00  0.00     0.369 A 
ATOM      6  N   UNL d   1      53.706  31.590  53.332  0.00  0.00    -0.191 NA
ATOM      7  O   UNL d   1      52.941  30.510  52.781  0.00  0.00    -0.242 OA
ATOM      8  C   UNL d   1      54.464  32.666  53.879  0.00  0.00     0.021 C 
ENDROOT
BRANCH   2   9
ATOM      9  C   UNL d   1      51.797  33.136  52.940  0.00  0.00     0.018 A 
ATOM     10  C   UNL d   1      51.161  33.124  53.458  0.00  0.00     0.003 A 
ATOM     11  C   UNL d   1      50.525  33.628  53.336  0.00  0.00     0.024 A 
ATOM     12  C   UNL d   1      50.521  34.151  52.689  0.00  0.00     0.127 A 
ATOM     13  C   UNL d   1      51.166  34.160  52.167  0.00  0.00     0.024 A 
ATOM     14  C   UNL d   1      51.803  33.652  52.295  0.00  0.00     0.003 A 
BRANCH  12  15
ATOM     15  N   UNL d   1      49.884  34.660  52.562  0.00  0.00    -0.114 N 
ATOM     16  O   UNL d   1      49.711  35.251  53.112  0.00  0.00    -0.532 OA
ATOM     17  O   UNL d   1      49.419  34.578  51.884  0.00  0.00    -0.532 OA
ENDBRANCH  12  15
ENDBRANCH   2   9
BRANCH   1  18
ATOM     18  C   UNL d   1      53.203  33.691  53.620  0.00  0.00     0.303 C 
ATOM     19  O   UNL d   1      53.385  34.257  53.048  0.00  0.00    -0.259 OA
BRANCH  18  20
ATOM     20  O   UNL d   1      53.091  33.925  54.404  0.00  0.00    -0.271 OA
BRANCH  20  21
ATOM     21  C   UNL d   1      53.437  34.622  54.681  0.00  0.00     0.126 C 
ATOM     22  C   UNL d   1      53.229  34.913  55.416  0.00  0.00     0.029 C 
ENDBRANCH  20  21
ENDBRANCH  18  20
ENDBRANCH   1  18
TORSDOF 5
ENDMDL
MODEL 4
REMARK VINA RESULT:      -8.7      1.018      3.311
REMARK  5 active torsions:
REMARK  status: ('A' for Active; 'I' for Inactive)
REMARK    1  A    between atoms: C_8  and  C_1 
REMARK    2  A    between atoms: C_10  and  C_2 
REMARK    3  A    between atoms: N_6  and  C_9 
REMARK    4  A    between atoms: O_19  and  C_8 
REMARK    5  A    between atoms: C_21  and  O_19 
ROOT
ATOM      1  C   UNL d   1      52.955  31.453  53.325  0.00  0.00     0.099 A 
ATOM      2  C   UNL d   1      53.567  31.395  53.876  0.00  0.00     0.093 A 
ATOM      3  C   UNL d   1      52.587  30.771  53.028  0.00  0.00     0.093 A 
ATOM      4  N   UNL d   1      53.811  30.639  54.131  0.00  0.00    -0.191 NA
ATOM      5  C   UNL d   1      53.443  29.958  53.833  0.00  0.00     0.369 A 
ATOM      6  N   UNL d   1      52.829  30.029  53.280  0.00  0.00    -0.191 NA
ATOM      7  O   UNL d   1      53.688  29.213  54.088  0.00  0.00    -0.242 OA
ATOM      8  C   UNL d   1      51.978  30.843  52.479  0.00  0.00     0.021 C 
ENDROOT
BRANCH   2   9
ATOM      9  C   UNL d   1      53.936  32.070  54.175  0.00  0.00     0.018 A 
ATOM     10  C   UNL d   1      53.734  32.337  54.924  0.00  0.00     0.003 A 
ATOM     11  C   UNL d   1      54.095  33.007  55.229  0.00  0.00     0.024 A 
ATOM     12  C   UNL d   1      54.666  33.418  54.784  0.00  0.00     0.127 A 
ATOM     13  C   UNL d   1      54.867  33.145  54.027  0.00  0.00     0.024 A 
ATOM     14  C   UNL d   1      54.500  32.470  53.724  0.00  0.00     0.003 A 
BRANCH  12  15
ATOM     15  N   UNL d   1      55.032  34.093  55.087  0.00  0.00    -0.114 N 
ATOM     16  O   UNL d   1      55.841  34.085  55.252  0.00  0.00    -0.532 OA
ATOM     17  O   UNL d   1      54.589  34.776  55.225  0.00  0.00    -0.532 OA
ENDBRANCH  12  15
ENDBRANCH   2   9
BRANCH   1  18
ATOM     18  C   UNL d   1      52.708  32.195  53.069  0.00  0.00     0.303 C 
ATOM     19  O   UNL d   1      53.131  32.592  52.483  0.00  0.00    -0.259 OA
BRANCH  18  20
ATOM     20  O   UNL d   1      52.035  32.546  53.396  0.00  0.00    -0.271 OA
BRANCH  20  21
ATOM     21  C   UNL d   1      51.625  33.125  52.973  0.00  0.00     0.126 C 
ATOM     22  C   UNL d   1      51.004  33.521  53.328  0.00  0.00     0.029 C 
ENDBRANCH  20  21
ENDBRANCH  18  20
ENDBRANCH   1  18
TORSDOF 5
ENDMDL
MODEL 5
REMARK VINA RESULT:      -8.3      1.446      2.428
REMARK  5 active torsions:
REMARK  status: ('A' for Active; 'I' for Inactive)
REMARK    1  A    between atoms: C_8  and  C_1 
REMARK    2  A    between atoms: C_10  and  C_2 
REMARK    3  A    between atoms: N_6  and  C_9 
REMARK    4  A    between atoms: O_19  and  C_8 
REMARK    5  A    between atoms: C_21  and  O_19 
ROOT
ATOM      1  C   UNL d   1      52.732  33.674  53.528  0.00  0.00     0.099 A 
ATOM      2  C   UNL d   1      52.465  33.106  52.992  0.00  0.00     0.093 A 
ATOM      3  C   UNL d   1      52.562  34.478  53.412  0.00  0.00     0.093 A 
ATOM      4  N   UNL d   1      52.021  33.352  52.330  0.00  0.00    -0.191 NA
ATOM      5  C   UNL d   1      51.851  34.156  52.214  0.00  0.00     0.369 A 
ATOM      6  N   UNL d   1      52.125  34.717  52.760  0.00  0.00    -0.191 NA
ATOM      7  O   UNL d   1      51.412  34.394  51.558  0.00  0.00    -0.242 OA
ATOM      8  C   UNL d   1      52.834  35.035  53.954  0.00  0.00     0.021 C 
ENDROOT
BRANCH   2   9
ATOM      9  C   UNL d   1      52.631  32.306  53.103  0.00  0.00     0.018 A 
ATOM     10  C   UNL d   1      52.074  31.829  53.473  0.00  0.00     0.003 A 
ATOM     11  C   UNL d   1      52.231  31.033  53.588  0.00  0.00     0.024 A 
ATOM     12  C   UNL d   1      52.951  30.703  53.331  0.00  0.00     0.127 A 
ATOM     13  C   UNL d   1      53.511  31.188  52.957  0.00  0.00     0.024 A 
ATOM     14  C   UNL d   1      53.349  31.989  52.844  0.00  0.00     0.003 A 
BRANCH  12  15
ATOM     15  N   UNL d   1      53.112  29.902  53.444  0.00  0.00    -0.114 N 
ATOM     16  O   UNL d   1      53.845  29.667  53.745  0.00  0.00    -0.532 OA
ATOM     17  O   UNL d   1      52.542  29.335  53.257  0.00  0.00    -0.532 OA
ENDBRANCH  12  15
ENDBRANCH   2   9
BRANCH   1  18
ATOM     18  C   UNL d   1      53.171  33.440  54.184  0.00  0.00     0.303 C 
ATOM     19  O   UNL d   1      52.791  33.111  54.839  0.00  0.00    -0.259 OA
BRANCH  18  20
ATOM     20  O   UNL d   1      53.991  33.533  54.191  0.00  0.00    -0.271 OA
BRANCH  20  21
ATOM     21  C   UNL d   1      54.396  33.571  54.910  0.00  0.00     0.126 C 
ATOM     22  C   UNL d   1      55.208  33.669  54.912  0.00  0.00     0.029 C 
ENDBRANCH  20  21
ENDBRANCH  18  20
ENDBRANCH   1  18
TORSDOF 5
ENDMDL
MODEL 6
REMARK VINA RESULT:      -6.3      1.607      3.690
REMARK  5 active torsions:
REMARK  status: ('A' for Active; 'I' for Inactive)
REMARK    1  A    between atoms: C_8  and  C_1 
REMARK    2  A    between atoms: C_10  and  C_2 
REMARK    3  A    between atoms: N_6  and  C_9 
REMARK    4  A    between atoms: O_19  and  C_8 
REMARK    5  A    between atoms: C_21  and  O_19 
ROOT
ATOM      1  C   UNL d   1      52.399  32.719  53.326  0.00  0.00     0.099 A 
ATOM      2  C   UNL d   1      53.091  33.062  53.618  0.00  0.00     0.093 A 
ATOM      3  C   UNL d   1      52.392  31.927  53.079  0.00  0.00     0.093 A 
ATOM      4  N   UNL d   1      53.784  32.601  53.662  0.00  0.00    -0.191 NA
ATOM      5  C   UNL d   1      53.777  31.809  53.415  0.00  0.00     0.369 A 
ATOM      6  N   UNL d   1      53.076  31.475  53.123  0.00  0.00    -0.191 NA
ATOM      7  O   UNL d   1      54.465  31.357  53.460  0.00  0.00    -0.242 OA
ATOM      8  C   UNL d   1      51.696  31.596  52.789  0.00  0.00     0.021 C 
ENDROOT
BRANCH   2   9
ATOM      9  C   UNL d   1      53.103  33.850  53.865  0.00  0.00     0.018 A 
ATOM     10  C   UNL d   1      52.923  34.026  54.647  0.00  0.00     0.003 A 
ATOM     11  C   UNL d   1      52.933  34.805  54.902  0.00  0.00     0.024 A 
ATOM     12  C   UNL d   1      53.123  35.419  54.373  0.00  0.00     0.127 A 
ATOM     13  C   UNL d   1      53.304  35.237  53.585  0.00  0.00     0.024 A 
ATOM     14  C   UNL d   1      53.293  34.451  53.333  0.00  0.00     0.003 A 
BRANCH  12  15
ATOM     15  N   UNL d   1      53.134  36.205  54.625  0.00  0.00    -0.114 N 
ATOM     16  O   UNL d   1      52.540  36.487  55.124  0.00  0.00    -0.532 OA
ATOM     17  O   UNL d   1      53.739  36.709  54.378  0.00  0.00    -0.532 OA
ENDBRANCH  12  15
ENDBRANCH   2   9
BRANCH   1  18
ATOM     18  C   UNL d   1      51.711  33.168  53.279  0.00  0.00     0.303 C 
ATOM     19  O   UNL d   1      51.242  33.276  53.950  0.00  0.00    -0.259 OA
BRANCH  18  20
ATOM     20  O   UNL d   1      51.485  33.511  52.563  0.00  0.00    -0.271 OA
BRANCH  20  21
ATOM     21  C   UNL d   1      50.701  33.740  52.444  0.00  0.00     0.126 C 
ATOM     22  C   UNL d   1      50.493  34.131  51.757  0.00  0.00     0.029 C 
ENDBRANCH  20  21
ENDBRANCH  18  20
ENDBRANCH   1  18
TORSDOF 5
ENDMDL
