MODEL 1
REMARK VINA RESULT:      -4.7      0.000      0.000
REMARK  10 active torsions:
REMARK  status: ('A' for Active; 'I' for Inactive)
REMARK    1  A    between atoms: C_5  and  C_1 
REMARK    2  A    between atoms: C_10  and  C_2 
REMARK    3  A    between atoms: S_11  and  C_3 
REMARK    4  A    between atoms: C_9  and  C_4 
REMARK       I    between atoms: N_8  and  C_5 
REMARK    5  A    between atoms: C_15  and  N_8 
REMARK    6  A    between atoms: C_26  and  S_11 
REMARK    7  A    between atoms: C_13  and  C_18 
REMARK    8  A    between atoms: C_16  and  C_26 
REMARK       I    between atoms: N_19  and  C_16 
REMARK    9  A    between atoms: C_29  and  N_19 
REMARK   10  A    between atoms: O_34  and  C_23 
ROOT
ATOM      1  C   UNL d   1      52.414  33.832  53.200  0.00  0.00     0.076 A 
ATOM      2  C   UNL d   1      51.129  33.318  52.944  0.00  0.00     0.045 A 
ATOM      3  C   UNL d   1      50.822  34.107  52.921  0.00  0.00     0.112 A 
ATOM      4  C   UNL d   1      51.912  33.194  53.081  0.00  0.00     0.016 A 
ATOM      5  C   UNL d   1      52.111  34.611  53.177  0.00  0.00     0.087 A 
ATOM      6  N   UNL d   1      51.311  34.735  53.037  0.00  0.00    -0.239 NA
ATOM      7  C   UNL d   1      52.606  35.265  53.295  0.00  0.00     0.021 C 
ENDROOT
BRANCH   3   8
ATOM      8  S   UNL d   1      50.005  34.288  52.780  0.00  0.00    -0.062 SA
BRANCH   8   9
ATOM      9  C   UNL d   1      49.775  35.052  52.542  0.00  0.00     0.099 C 
BRANCH   9  10
ATOM     10  C   UNL d   1      48.975  35.258  52.552  0.00  0.00     0.286 C 
ATOM     11  N   UNL d   1      48.594  35.468  51.854  0.00  0.00    -0.208 NA
ATOM     12  O   UNL d   1      48.564  35.253  53.259  0.00  0.00    -0.265 OA
BRANCH  11  13
ATOM     13  C   UNL d   1      47.792  35.673  51.876  0.00  0.00     0.085 A 
ATOM     14  C   UNL d   1      47.550  36.318  52.317  0.00  0.00     0.019 A 
ATOM     15  C   UNL d   1      46.754  36.525  52.341  0.00  0.00     0.008 A 
ATOM     16  C   UNL d   1      46.202  36.072  51.913  0.00  0.00     0.065 A 
ATOM     17  C   UNL d   1      46.444  35.427  51.472  0.00  0.00     0.008 A 
ATOM     18  C   UNL d   1      47.246  35.222  51.450  0.00  0.00     0.019 A 
BRANCH  16  19
ATOM     19  C   UNL d   1      45.390  36.274  51.931  0.00  0.00     0.211 C 
ATOM     20  O   UNL d   1      44.959  36.206  52.639  0.00  0.00    -0.644 OA
ATOM     21  O   UNL d   1      45.028  36.538  51.247  0.00  0.00    -0.644 OA
ENDBRANCH  16  19
ENDBRANCH  11  13
ENDBRANCH   9  10
ENDBRANCH   8   9
ENDBRANCH   3   8
BRANCH   2  22
ATOM     22  C   UNL d   1      50.643  32.639  52.827  0.00  0.00     0.124 C 
ATOM     23  N   UNL d   1      49.936  32.547  53.270  0.00  0.00    -0.146 N 
ENDBRANCH   2  22
BRANCH   4  24
ATOM     24  C   UNL d   1      52.209  32.430  53.104  0.00  0.00     0.030 A 
ATOM     25  S   UNL d   1      52.575  31.966  52.546  0.00  0.00    -0.086 SA
ATOM     26  C   UNL d   1      52.745  31.260  52.890  0.00  0.00     0.035 A 
ATOM     27  C   UNL d   1      52.496  31.272  53.647  0.00  0.00     0.007 A 
ATOM     28  C   UNL d   1      52.161  31.991  53.796  0.00  0.00     0.007 A 
ENDBRANCH   4  24
BRANCH   1  29
ATOM     29  C   UNL d   1      53.217  33.698  53.341  0.00  0.00     0.281 C 
ATOM     30  N   UNL d   1      53.546  33.919  54.071  0.00  0.00    -0.206 NA
ATOM     31  O   UNL d   1      53.682  33.352  52.766  0.00  0.00    -0.265 OA
BRANCH  30  32
ATOM     32  C   UNL d   1      54.348  33.783  54.207  0.00  0.00     0.107 A 
ATOM     33  C   UNL d   1      54.632  33.785  54.965  0.00  0.00     0.112 A 
ATOM     34  C   UNL d   1      55.438  33.649  55.096  0.00  0.00     0.026 A 
ATOM     35  C   UNL d   1      55.939  33.514  54.476  0.00  0.00     0.002 A 
ATOM     36  C   UNL d   1      55.655  33.510  53.700  0.00  0.00     0.002 A 
ATOM     37  C   UNL d   1      54.850  33.646  53.568  0.00  0.00     0.021 A 
BRANCH  33  38
ATOM     38  O   UNL d   1      54.121  33.923  55.598  0.00  0.00    -0.327 OA
ATOM     39  C   UNL d   1      54.383  33.821  56.373  0.00  0.00     0.181 C 
ENDBRANCH  33  38
ENDBRANCH  30  32
ENDBRANCH   1  29
TORSDOF 10
ENDMDL
MODEL 2
REMARK VINA RESULT:      -4.4      1.770      7.313
REMARK  10 active torsions:
REMARK  status: ('A' for Active; 'I' for Inactive)
REMARK    1  A    between atoms: C_5  and  C_1 
REMARK    2  A    between atoms: C_10  and  C_2 
REMARK    3  A    between atoms: S_11  and  C_3 
REMARK    4  A    between atoms: C_9  and  C_4 
REMARK       I    between atoms: N_8  and  C_5 
REMARK    5  A    between atoms: C_15  and  N_8 
REMARK    6  A    between atoms: C_26  and  S_11 
REMARK    7  A    between atoms: C_13  and  C_18 
REMARK    8  A    between atoms: C_16  and  C_26 
REMARK       I    between atoms: N_19  and  C_16 
REMARK    9  A    between atoms: C_29  and  N_19 
REMARK   10  A    between atoms: O_34  and  C_23 
ROOT
ATOM      1  C   UNL d   1      47.972  35.384  52.119  0.00  0.00     0.076 A 
ATOM      2  C   UNL d   1      48.910  35.163  53.144  0.00  0.00     0.045 A 
ATOM      3  C   UNL d   1      49.408  34.753  52.596  0.00  0.00     0.112 A 
ATOM      4  C   UNL d   1      48.207  35.469  52.901  0.00  0.00     0.016 A 
ATOM      5  C   UNL d   1      48.464  34.979  51.578  0.00  0.00     0.087 A 
ATOM      6  N   UNL d   1      49.181  34.667  51.830  0.00  0.00    -0.239 NA
ATOM      7  C   UNL d   1      48.240  34.885  50.785  0.00  0.00     0.021 C 
ENDROOT
BRANCH   3   8
ATOM      8  S   UNL d   1      50.157  34.414  52.806  0.00  0.00    -0.062 SA
BRANCH   8   9
ATOM      9  C   UNL d   1      50.537  33.877  52.297  0.00  0.00     0.099 C 
BRANCH   9  10
ATOM     10  C   UNL d   1      51.048  33.309  52.611  0.00  0.00     0.286 C 
ATOM     11  N   UNL d   1      51.856  33.353  52.466  0.00  0.00    -0.208 NA
ATOM     12  O   UNL d   1      50.745  32.700  53.066  0.00  0.00    -0.265 OA
BRANCH  11  13
ATOM     13  C   UNL d   1      52.357  32.778  52.786  0.00  0.00     0.085 A 
ATOM     14  C   UNL d   1      52.286  31.999  52.547  0.00  0.00     0.019 A 
ATOM     15  C   UNL d   1      52.783  31.425  52.862  0.00  0.00     0.008 A 
ATOM     16  C   UNL d   1      53.356  31.645  53.425  0.00  0.00     0.065 A 
ATOM     17  C   UNL d   1      53.428  32.424  53.664  0.00  0.00     0.008 A 
ATOM     18  C   UNL d   1      52.926  32.999  53.344  0.00  0.00     0.019 A 
BRANCH  16  19
ATOM     19  C   UNL d   1      53.866  31.068  53.751  0.00  0.00     0.211 C 
ATOM     20  O   UNL d   1      53.575  30.518  54.304  0.00  0.00    -0.644 OA
ATOM     21  O   UNL d   1      54.651  31.050  53.521  0.00  0.00    -0.644 OA
ENDBRANCH  16  19
ENDBRANCH  11  13
ENDBRANCH   9  10
ENDBRANCH   8   9
ENDBRANCH   3   8
BRANCH   2  22
ATOM     22  C   UNL d   1      49.119  35.270  53.955  0.00  0.00     0.124 C 
ATOM     23  N   UNL d   1      49.892  35.525  54.158  0.00  0.00    -0.146 N 
ENDBRANCH   2  22
BRANCH   4  24
ATOM     24  C   UNL d   1      47.725  35.867  53.431  0.00  0.00     0.030 A 
ATOM     25  S   UNL d   1      47.520  36.649  53.509  0.00  0.00    -0.086 SA
ATOM     26  C   UNL d   1      47.024  36.709  54.138  0.00  0.00     0.035 A 
ATOM     27  C   UNL d   1      46.914  35.986  54.454  0.00  0.00     0.007 A 
ATOM     28  C   UNL d   1      47.341  35.451  54.027  0.00  0.00     0.007 A 
ENDBRANCH   4  24
BRANCH   1  29
ATOM     29  C   UNL d   1      47.250  35.700  51.874  0.00  0.00     0.281 C 
ATOM     30  N   UNL d   1      46.620  35.189  51.691  0.00  0.00    -0.206 NA
ATOM     31  O   UNL d   1      47.156  36.509  51.812  0.00  0.00    -0.265 OA
BRANCH  30  32
ATOM     32  C   UNL d   1      45.901  35.509  51.447  0.00  0.00     0.107 A 
ATOM     33  C   UNL d   1      45.208  35.198  51.726  0.00  0.00     0.112 A 
ATOM     34  C   UNL d   1      44.489  35.523  51.478  0.00  0.00     0.026 A 
ATOM     35  C   UNL d   1      44.474  36.145  50.962  0.00  0.00     0.002 A 
ATOM     36  C   UNL d   1      45.178  36.468  50.673  0.00  0.00     0.002 A 
ATOM     37  C   UNL d   1      45.897  36.144  50.920  0.00  0.00     0.021 A 
BRANCH  33  38
ATOM     38  O   UNL d   1      45.223  34.563  52.253  0.00  0.00    -0.327 OA
ATOM     39  C   UNL d   1      44.524  34.293  52.597  0.00  0.00     0.181 C 
ENDBRANCH  33  38
ENDBRANCH  30  32
ENDBRANCH   1  29
TORSDOF 10
ENDMDL
MODEL 3
REMARK VINA RESULT:      -2.5      1.688      7.155
REMARK  10 active torsions:
REMARK  status: ('A' for Active; 'I' for Inactive)
REMARK    1  A    between atoms: C_5  and  C_1 
REMARK    2  A    between atoms: C_10  and  C_2 
REMARK    3  A    between atoms: S_11  and  C_3 
REMARK    4  A    between atoms: C_9  and  C_4 
REMARK       I    between atoms: N_8  and  C_5 
REMARK    5  A    between atoms: C_15  and  N_8 
REMARK    6  A    between atoms: C_26  and  S_11 
REMARK    7  A    between atoms: C_13  and  C_18 
REMARK    8  A    between atoms: C_16  and  C_26 
REMARK       I    between atoms: N_19  and  C_16 
REMARK    9  A    between atoms: C_29  and  N_19 
REMARK   10  A    between atoms: O_34  and  C_23 
ROOT
ATOM      1  C   UNL d   1      47.842  35.519  52.964  0.00  0.00     0.076 A 
ATOM      2  C   UNL d   1      48.778  34.999  52.051  0.00  0.00     0.045 A 
ATOM      3  C   UNL d   1      49.356  34.963  52.670  0.00  0.00     0.112 A 
ATOM      4  C   UNL d   1      48.038  35.273  52.206  0.00  0.00     0.016 A 
ATOM      5  C   UNL d   1      48.413  35.484  53.574  0.00  0.00     0.087 A 
ATOM      6  N   UNL d   1      49.168  35.203  53.413  0.00  0.00    -0.239 NA
ATOM      7  C   UNL d   1      48.229  35.729  54.344  0.00  0.00     0.021 C 
ENDROOT
BRANCH   3   8
ATOM      8  S   UNL d   1      50.148  34.682  52.555  0.00  0.00    -0.062 SA
BRANCH   8   9
ATOM      9  C   UNL d   1      50.410  33.986  52.929  0.00  0.00     0.099 C 
BRANCH   9  10
ATOM     10  C   UNL d   1      51.197  33.924  53.172  0.00  0.00     0.286 C 
ATOM     11  N   UNL d   1      51.614  33.226  53.049  0.00  0.00    -0.208 NA
ATOM     12  O   UNL d   1      51.560  34.561  53.535  0.00  0.00    -0.265 OA
BRANCH  11  13
ATOM     13  C   UNL d   1      52.402  33.176  53.296  0.00  0.00     0.085 A 
ATOM     14  C   UNL d   1      52.615  32.629  53.865  0.00  0.00     0.019 A 
ATOM     15  C   UNL d   1      53.397  32.576  54.113  0.00  0.00     0.008 A 
ATOM     16  C   UNL d   1      53.967  33.083  53.779  0.00  0.00     0.065 A 
ATOM     17  C   UNL d   1      53.754  33.630  53.209  0.00  0.00     0.008 A 
ATOM     18  C   UNL d   1      52.966  33.681  52.962  0.00  0.00     0.019 A 
BRANCH  16  19
ATOM     19  C   UNL d   1      54.765  33.037  54.024  0.00  0.00     0.211 C 
ATOM     20  O   UNL d   1      54.956  33.084  54.833  0.00  0.00    -0.644 OA
ATOM     21  O   UNL d   1      55.352  32.945  53.463  0.00  0.00    -0.644 OA
ENDBRANCH  16  19
ENDBRANCH  11  13
ENDBRANCH   9  10
ENDBRANCH   8   9
ENDBRANCH   3   8
BRANCH   2  22
ATOM     22  C   UNL d   1      48.944  34.754  51.261  0.00  0.00     0.124 C 
ATOM     23  N   UNL d   1      49.718  34.844  50.948  0.00  0.00    -0.146 N 
ENDBRANCH   2  22
BRANCH   4  24
ATOM     24  C   UNL d   1      47.479  35.307  51.607  0.00  0.00     0.030 A 
ATOM     25  S   UNL d   1      47.141  35.927  51.205  0.00  0.00    -0.086 SA
ATOM     26  C   UNL d   1      46.623  35.620  50.674  0.00  0.00     0.035 A 
ATOM     27  C   UNL d   1      46.628  34.825  50.735  0.00  0.00     0.007 A 
ATOM     28  C   UNL d   1      47.154  34.614  51.309  0.00  0.00     0.007 A 
ENDBRANCH   4  24
BRANCH   1  29
ATOM     29  C   UNL d   1      47.081  35.800  53.117  0.00  0.00     0.281 C 
ATOM     30  N   UNL d   1      46.600  35.400  53.664  0.00  0.00    -0.206 NA
ATOM     31  O   UNL d   1      46.804  36.465  52.732  0.00  0.00    -0.265 OA
BRANCH  30  32
ATOM     32  C   UNL d   1      45.840  35.684  53.814  0.00  0.00     0.107 A 
ATOM     33  C   UNL d   1      45.324  35.239  54.250  0.00  0.00     0.112 A 
ATOM     34  C   UNL d   1      44.563  35.528  54.397  0.00  0.00     0.026 A 
ATOM     35  C   UNL d   1      44.333  36.248  54.110  0.00  0.00     0.002 A 
ATOM     36  C   UNL d   1      44.856  36.708  53.663  0.00  0.00     0.002 A 
ATOM     37  C   UNL d   1      45.616  36.420  53.516  0.00  0.00     0.021 A 
BRANCH  33  38
ATOM     38  O   UNL d   1      45.558  34.504  54.544  0.00  0.00    -0.327 OA
ATOM     39  C   UNL d   1      45.004  33.903  54.648  0.00  0.00     0.181 C 
ENDBRANCH  33  38
ENDBRANCH  30  32
ENDBRANCH   1  29
TORSDOF 10
ENDMDL
