MODEL 1
REMARK VINA RESULT:      -7.0      0.000      0.000
REMARK  4 active torsions:
REMARK  status: ('A' for Active; 'I' for Inactive)
REMARK    1  A    between atoms: C_2  and  C_1 
REMARK    2  A    between atoms: C_3  and  C_4 
REMARK       I    between atoms: N_12  and  C_3 
REMARK    3  A    between atoms: C_4  and  C_5 
REMARK    4  A    between atoms: C_5  and  C_11 
ROOT
ATOM      1  C   UNL d   1     -46.635  13.023  22.765  0.00  0.00     0.071 A 
ATOM      2  C   UNL d   1     -47.348  13.003  22.351  0.00  0.00     0.004 A 
ATOM      3  C   UNL d   1     -47.950  12.494  22.594  0.00  0.00     0.000 A 
ATOM      4  C   UNL d   1     -46.523  12.532  23.425  0.00  0.00     0.004 A 
ATOM      5  C   UNL d   1     -47.125  12.023  23.668  0.00  0.00    -0.000 A 
ATOM      6  C   UNL d   1     -47.838  12.003  23.255  0.00  0.00    -0.000 A 
ENDROOT
BRANCH   3   7
ATOM      7  C   UNL d   1     -48.664  12.478  22.173  0.00  0.00     0.005 C 
BRANCH   7   8
ATOM      8  C   UNL d   1     -49.265  13.021  22.363  0.00  0.00     0.062 C 
BRANCH   8   9
ATOM      9  C   UNL d   1     -49.940  13.074  21.890  0.00  0.00     0.279 C 
ATOM     10  O   UNL d   1     -50.166  12.427  21.428  0.00  0.00    -0.265 OA
ATOM     11  N   UNL d   1     -50.387  13.769  21.879  0.00  0.00    -0.205 NA
ATOM     12  C   UNL d   1     -51.063  13.816  21.403  0.00  0.00     0.123 C 
ENDBRANCH   8   9
ENDBRANCH   7   8
ENDBRANCH   3   7
BRANCH   1  13
ATOM     13  C   UNL d   1     -46.032  13.530  22.525  0.00  0.00     0.419 C 
ATOM     14  F   UNL d   1     -45.986  14.401  22.595  0.00  0.00    -0.166 F 
ATOM     15  F   UNL d   1     -45.284  13.352  22.140  0.00  0.00    -0.166 F 
ATOM     16  F   UNL d   1     -45.484  13.999  22.307  0.00  0.00    -0.166 F 
ENDBRANCH   1  13
TORSDOF 4
ENDMDL
MODEL 2
REMARK VINA RESULT:      -7.0      2.770      3.782
REMARK  4 active torsions:
REMARK  status: ('A' for Active; 'I' for Inactive)
REMARK    1  A    between atoms: C_2  and  C_1 
REMARK    2  A    between atoms: C_3  and  C_4 
REMARK       I    between atoms: N_12  and  C_3 
REMARK    3  A    between atoms: C_4  and  C_5 
REMARK    4  A    between atoms: C_5  and  C_11 
ROOT
ATOM      1  C   UNL d   1     -49.613  12.348  22.369  0.00  0.00     0.071 A 
ATOM      2  C   UNL d   1     -48.788  12.339  22.369  0.00  0.00     0.004 A 
ATOM      3  C   UNL d   1     -48.380  12.062  23.031  0.00  0.00     0.000 A 
ATOM      4  C   UNL d   1     -50.032  12.080  23.035  0.00  0.00     0.004 A 
ATOM      5  C   UNL d   1     -49.624  11.803  23.696  0.00  0.00    -0.000 A 
ATOM      6  C   UNL d   1     -48.800  11.794  23.696  0.00  0.00    -0.000 A 
ENDROOT
BRANCH   3   7
ATOM      7  C   UNL d   1     -47.551  12.055  23.024  0.00  0.00     0.005 C 
BRANCH   7   8
ATOM      8  C   UNL d   1     -47.133  12.770  23.106  0.00  0.00     0.062 C 
BRANCH   8   9
ATOM      9  C   UNL d   1     -46.316  12.788  22.991  0.00  0.00     0.279 C 
ATOM     10  O   UNL d   1     -45.832  12.276  23.425  0.00  0.00    -0.265 OA
ATOM     11  N   UNL d   1     -45.984  13.313  22.446  0.00  0.00    -0.205 NA
ATOM     12  C   UNL d   1     -45.163  13.326  22.335  0.00  0.00     0.123 C 
ENDBRANCH   8   9
ENDBRANCH   7   8
ENDBRANCH   3   7
BRANCH   1  13
ATOM     13  C   UNL d   1     -50.023  12.624  21.711  0.00  0.00     0.419 C 
ATOM     14  F   UNL d   1     -50.359  12.169  21.043  0.00  0.00    -0.166 F 
ATOM     15  F   UNL d   1     -50.236  13.427  21.492  0.00  0.00    -0.166 F 
ATOM     16  F   UNL d   1     -50.399  12.870  21.106  0.00  0.00    -0.166 F 
ENDBRANCH   1  13
TORSDOF 4
ENDMDL
MODEL 3
REMARK VINA RESULT:      -6.9      1.999      2.312
REMARK  4 active torsions:
REMARK  status: ('A' for Active; 'I' for Inactive)
REMARK    1  A    between atoms: C_2  and  C_1 
REMARK    2  A    between atoms: C_3  and  C_4 
REMARK       I    between atoms: N_12  and  C_3 
REMARK    3  A    between atoms: C_4  and  C_5 
REMARK    4  A    between atoms: C_5  and  C_11 
ROOT
ATOM      1  C   UNL d   1     -46.844  12.551  23.259  0.00  0.00     0.071 A 
ATOM      2  C   UNL d   1     -47.600  12.861  23.147  0.00  0.00     0.004 A 
ATOM      3  C   UNL d   1     -47.691  13.649  22.918  0.00  0.00     0.000 A 
ATOM      4  C   UNL d   1     -46.175  13.030  23.141  0.00  0.00     0.004 A 
ATOM      5  C   UNL d   1     -46.266  13.817  22.912  0.00  0.00    -0.000 A 
ATOM      6  C   UNL d   1     -47.022  14.128  22.800  0.00  0.00    -0.000 A 
ENDROOT
BRANCH   3   7
ATOM      7  C   UNL d   1     -48.454  13.954  22.807  0.00  0.00     0.005 C 
BRANCH   7   8
ATOM      8  C   UNL d   1     -48.590  14.768  22.917  0.00  0.00     0.062 C 
BRANCH   8   9
ATOM      9  C   UNL d   1     -49.362  15.061  22.916  0.00  0.00     0.279 C 
ATOM     10  O   UNL d   1     -49.891  14.816  22.330  0.00  0.00    -0.265 OA
ATOM     11  N   UNL d   1     -49.603  15.597  23.498  0.00  0.00    -0.205 NA
ATOM     12  C   UNL d   1     -50.379  15.888  23.492  0.00  0.00     0.123 C 
ENDBRANCH   8   9
ENDBRANCH   7   8
ENDBRANCH   3   7
BRANCH   1  13
ATOM     13  C   UNL d   1     -46.749  11.766  23.488  0.00  0.00     0.419 C 
ATOM     14  F   UNL d   1     -46.014  11.339  23.694  0.00  0.00    -0.166 F 
ATOM     15  F   UNL d   1     -47.339  11.147  23.588  0.00  0.00    -0.166 F 
ATOM     16  F   UNL d   1     -46.657  11.048  23.697  0.00  0.00    -0.166 F 
ENDBRANCH   1  13
TORSDOF 4
ENDMDL
MODEL 4
REMARK VINA RESULT:      -6.9      2.886      3.992
REMARK  4 active torsions:
REMARK  status: ('A' for Active; 'I' for Inactive)
REMARK    1  A    between atoms: C_2  and  C_1 
REMARK    2  A    between atoms: C_3  and  C_4 
REMARK       I    between atoms: N_12  and  C_3 
REMARK    3  A    between atoms: C_4  and  C_5 
REMARK    4  A    between atoms: C_5  and  C_11 
ROOT
ATOM      1  C   UNL d   1     -49.409  13.423  22.152  0.00  0.00     0.071 A 
ATOM      2  C   UNL d   1     -48.662  13.182  22.408  0.00  0.00     0.004 A 
ATOM      3  C   UNL d   1     -48.132  13.737  22.710  0.00  0.00     0.000 A 
ATOM      4  C   UNL d   1     -49.626  14.223  22.199  0.00  0.00     0.004 A 
ATOM      5  C   UNL d   1     -49.096  14.779  22.500  0.00  0.00    -0.000 A 
ATOM      6  C   UNL d   1     -48.350  14.538  22.756  0.00  0.00    -0.000 A 
ENDROOT
BRANCH   3   7
ATOM      7  C   UNL d   1     -47.384  13.488  22.966  0.00  0.00     0.005 C 
BRANCH   7   8
ATOM      8  C   UNL d   1     -46.703  13.771  22.580  0.00  0.00     0.062 C 
BRANCH   8   9
ATOM      9  C   UNL d   1     -45.980  13.386  22.681  0.00  0.00     0.279 C 
ATOM     10  O   UNL d   1     -45.802  13.037  23.410  0.00  0.00    -0.265 OA
ATOM     11  N   UNL d   1     -45.437  13.349  22.059  0.00  0.00    -0.205 NA
ATOM     12  C   UNL d   1     -44.712  12.961  22.167  0.00  0.00     0.123 C 
ENDBRANCH   8   9
ENDBRANCH   7   8
ENDBRANCH   3   7
BRANCH   1  13
ATOM     13  C   UNL d   1     -49.940  12.871  21.851  0.00  0.00     0.419 C 
ATOM     14  F   UNL d   1     -50.571  12.432  22.267  0.00  0.00    -0.166 F 
ATOM     15  F   UNL d   1     -50.025  12.571  21.049  0.00  0.00    -0.166 F 
ATOM     16  F   UNL d   1     -50.428  12.365  21.580  0.00  0.00    -0.166 F 
ENDBRANCH   1  13
TORSDOF 4
ENDMDL
MODEL 5
REMARK VINA RESULT:      -6.7      2.714      3.863
REMARK  4 active torsions:
REMARK  status: ('A' for Active; 'I' for Inactive)
REMARK    1  A    between atoms: C_2  and  C_1 
REMARK    2  A    between atoms: C_3  and  C_4 
REMARK       I    between atoms: N_12  and  C_3 
REMARK    3  A    between atoms: C_4  and  C_5 
REMARK    4  A    between atoms: C_5  and  C_11 
ROOT
ATOM      1  C   UNL d   1     -49.159  14.467  22.645  0.00  0.00     0.071 A 
ATOM      2  C   UNL d   1     -48.443  14.135  22.885  0.00  0.00     0.004 A 
ATOM      3  C   UNL d   1     -48.105  13.524  22.445  0.00  0.00     0.000 A 
ATOM      4  C   UNL d   1     -49.540  14.187  21.961  0.00  0.00     0.004 A 
ATOM      5  C   UNL d   1     -49.202  13.576  21.522  0.00  0.00    -0.000 A 
ATOM      6  C   UNL d   1     -48.486  13.244  21.761  0.00  0.00    -0.000 A 
ENDROOT
BRANCH   3   7
ATOM      7  C   UNL d   1     -47.385  13.195  22.692  0.00  0.00     0.005 C 
BRANCH   7   8
ATOM      8  C   UNL d   1     -46.676  13.608  22.554  0.00  0.00     0.062 C 
BRANCH   8   9
ATOM      9  C   UNL d   1     -45.950  13.225  22.645  0.00  0.00     0.279 C 
ATOM     10  O   UNL d   1     -45.807  12.780  23.326  0.00  0.00    -0.265 OA
ATOM     11  N   UNL d   1     -45.371  13.287  22.059  0.00  0.00    -0.205 NA
ATOM     12  C   UNL d   1     -44.644  12.901  22.156  0.00  0.00     0.123 C 
ENDBRANCH   8   9
ENDBRANCH   7   8
ENDBRANCH   3   7
BRANCH   1  13
ATOM     13  C   UNL d   1     -49.499  15.076  23.081  0.00  0.00     0.419 C 
ATOM     14  F   UNL d   1     -50.118  15.031  23.698  0.00  0.00    -0.166 F 
ATOM     15  F   UNL d   1     -49.345  15.922  23.058  0.00  0.00    -0.166 F 
ATOM     16  F   UNL d   1     -49.814  15.630  23.484  0.00  0.00    -0.166 F 
ENDBRANCH   1  13
TORSDOF 4
ENDMDL
MODEL 6
REMARK VINA RESULT:      -6.6      2.814      3.896
REMARK  4 active torsions:
REMARK  status: ('A' for Active; 'I' for Inactive)
REMARK    1  A    between atoms: C_2  and  C_1 
REMARK    2  A    between atoms: C_3  and  C_4 
REMARK       I    between atoms: N_12  and  C_3 
REMARK    3  A    between atoms: C_4  and  C_5 
REMARK    4  A    between atoms: C_5  and  C_11 
ROOT
ATOM      1  C   UNL d   1     -47.999  13.199  22.153  0.00  0.00     0.071 A 
ATOM      2  C   UNL d   1     -47.620  12.557  22.507  0.00  0.00     0.004 A 
ATOM      3  C   UNL d   1     -47.045  12.686  23.084  0.00  0.00     0.000 A 
ATOM      4  C   UNL d   1     -47.802  13.974  22.378  0.00  0.00     0.004 A 
ATOM      5  C   UNL d   1     -47.227  14.103  22.955  0.00  0.00    -0.000 A 
ATOM      6  C   UNL d   1     -46.848  13.462  23.308  0.00  0.00    -0.000 A 
ENDROOT
BRANCH   3   7
ATOM      7  C   UNL d   1     -46.668  12.037  23.435  0.00  0.00     0.005 C 
BRANCH   7   8
ATOM      8  C   UNL d   1     -45.900  11.826  23.191  0.00  0.00     0.062 C 
BRANCH   8   9
ATOM      9  C   UNL d   1     -45.567  11.114  23.444  0.00  0.00     0.279 C 
ATOM     10  O   UNL d   1     -46.060  10.500  23.698  0.00  0.00    -0.265 OA
ATOM     11  N   UNL d   1     -44.747  11.015  23.442  0.00  0.00    -0.205 NA
ATOM     12  C   UNL d   1     -44.418  10.298  23.697  0.00  0.00     0.123 C 
ENDBRANCH   8   9
ENDBRANCH   7   8
ENDBRANCH   3   7
BRANCH   1  13
ATOM     13  C   UNL d   1     -48.573  13.073  21.577  0.00  0.00     0.419 C 
ATOM     14  F   UNL d   1     -48.475  12.992  20.712  0.00  0.00    -0.166 F 
ATOM     15  F   UNL d   1     -49.425  12.986  21.659  0.00  0.00    -0.166 F 
ATOM     16  F   UNL d   1     -49.095  12.958  21.046  0.00  0.00    -0.166 F 
ENDBRANCH   1  13
TORSDOF 4
ENDMDL
