MODEL 1
REMARK VINA RESULT:      -5.9      0.000      0.000
REMARK  4 active torsions:
REMARK  status: ('A' for Active; 'I' for Inactive)
REMARK    1  A    between atoms: S_9  and  C_1 
REMARK       I    between atoms: N_4  and  C_5 
REMARK    2  A    between atoms: C_5  and  C_13 
REMARK    3  A    between atoms: C_8  and  C_10 
REMARK    4  A    between atoms: C_13  and  S_9 
ROOT
ATOM      1  N   UNL d   1     -41.606-122.812 -53.212  0.00  0.00    -0.272 N 
ATOM      2  C   UNL d   1     -41.442-123.113 -52.505  0.00  0.00     0.271 C 
ATOM      3  C   UNL d   1     -41.957-122.162 -54.658  0.00  0.00     0.062 A 
ATOM      4  C   UNL d   1     -41.933-122.090 -53.274  0.00  0.00     0.083 A 
ATOM      5  C   UNL d   1     -41.461-123.201 -53.936  0.00  0.00     0.083 A 
ATOM      6  O   UNL d   1     -41.123-123.817 -52.453  0.00  0.00    -0.266 OA
ATOM      7  C   UNL d   1     -42.115-121.749 -53.976  0.00  0.00     0.024 A 
ATOM      8  C   UNL d   1     -41.626-122.900 -54.661  0.00  0.00     0.024 A 
ENDROOT
BRANCH   2   9
ATOM      9  C   UNL d   1     -41.595-122.709 -51.806  0.00  0.00     0.098 C 
BRANCH   9  10
ATOM     10  S   UNL d   1     -41.130-122.920 -51.133  0.00  0.00    -0.056 SA
BRANCH  10  11
ATOM     11  C   UNL d   1     -41.498-122.943 -50.408  0.00  0.00     0.141 A 
ATOM     12  N   UNL d   1     -42.211-122.606 -50.237  0.00  0.00    -0.232 NA
ATOM     13  C   UNL d   1     -42.311-122.807 -49.407  0.00  0.00     0.088 A 
ATOM     14  C   UNL d   1     -43.007-122.581 -48.908  0.00  0.00     0.020 A 
ATOM     15  C   UNL d   1     -41.672-123.245 -49.124  0.00  0.00     0.049 A 
ATOM     16  C   UNL d   1     -43.008-122.826 -48.112  0.00  0.00     0.002 A 
ATOM     17  C   UNL d   1     -42.336-123.291 -47.799  0.00  0.00     0.001 A 
ATOM     18  C   UNL d   1     -41.702-123.482 -48.304  0.00  0.00     0.008 A 
ATOM     19  S   UNL d   1     -41.173-123.327 -49.741  0.00  0.00    -0.060 SA
ENDBRANCH  10  11
ENDBRANCH   9  10
ENDBRANCH   2   9
BRANCH   3  20
ATOM     20  C   UNL d   1     -42.153-121.795 -55.414  0.00  0.00     0.297 C 
ATOM     21  O   UNL d   1     -41.779-121.108 -55.596  0.00  0.00    -0.264 OA
ATOM     22  N   UNL d   1     -42.692-122.168 -55.874  0.00  0.00    -0.102 N 
ENDBRANCH   3  20
TORSDOF 4
ENDMDL
MODEL 2
REMARK VINA RESULT:      -5.6      1.542      5.254
REMARK  4 active torsions:
REMARK  status: ('A' for Active; 'I' for Inactive)
REMARK    1  A    between atoms: S_9  and  C_1 
REMARK       I    between atoms: N_4  and  C_5 
REMARK    2  A    between atoms: C_5  and  C_13 
REMARK    3  A    between atoms: C_8  and  C_10 
REMARK    4  A    between atoms: C_13  and  S_9 
ROOT
ATOM      1  N   UNL d   1     -41.854-123.226 -50.288  0.00  0.00    -0.272 N 
ATOM      2  C   UNL d   1     -41.599-123.250 -51.032  0.00  0.00     0.271 C 
ATOM      3  C   UNL d   1     -42.396-123.150 -48.760  0.00  0.00     0.062 A 
ATOM      4  C   UNL d   1     -42.343-122.646 -50.050  0.00  0.00     0.083 A 
ATOM      5  C   UNL d   1     -41.646-123.781 -49.701  0.00  0.00     0.083 A 
ATOM      6  O   UNL d   1     -41.123-123.817 -51.256  0.00  0.00    -0.266 OA
ATOM      7  C   UNL d   1     -42.623-122.588 -49.301  0.00  0.00     0.024 A 
ATOM      8  C   UNL d   1     -41.901-123.764 -48.940  0.00  0.00     0.024 A 
ENDROOT
BRANCH   2   9
ATOM      9  C   UNL d   1     -41.819-122.690 -51.592  0.00  0.00     0.098 C 
BRANCH   9  10
ATOM     10  S   UNL d   1     -41.234-122.468 -52.160  0.00  0.00    -0.056 SA
BRANCH  10  11
ATOM     11  C   UNL d   1     -41.473-122.360 -52.929  0.00  0.00     0.141 A 
ATOM     12  N   UNL d   1     -42.052-121.850 -53.170  0.00  0.00    -0.232 NA
ATOM     13  C   UNL d   1     -42.058-121.973 -54.021  0.00  0.00     0.088 A 
ATOM     14  C   UNL d   1     -42.591-121.556 -54.592  0.00  0.00     0.020 A 
ATOM     15  C   UNL d   1     -41.498-122.535 -54.248  0.00  0.00     0.049 A 
ATOM     16  C   UNL d   1     -42.517-121.748 -55.399  0.00  0.00     0.002 A 
ATOM     17  C   UNL d   1     -41.929-122.342 -55.654  0.00  0.00     0.001 A 
ATOM     18  C   UNL d   1     -41.447-122.709 -55.082  0.00  0.00     0.008 A 
ATOM     19  S   UNL d   1     -41.140-122.771 -53.576  0.00  0.00    -0.060 SA
ENDBRANCH  10  11
ENDBRANCH   9  10
ENDBRANCH   2   9
BRANCH   3  20
ATOM     20  C   UNL d   1     -42.698-123.087 -47.954  0.00  0.00     0.297 C 
ATOM     21  O   UNL d   1     -42.779-122.348 -47.649  0.00  0.00    -0.264 OA
ATOM     22  N   UNL d   1     -42.872-123.769 -47.573  0.00  0.00    -0.102 N 
ENDBRANCH   3  20
TORSDOF 4
ENDMDL
