MODEL 1
REMARK VINA RESULT:      -2.2      0.000      0.000
REMARK  6 active torsions:
REMARK  status: ('A' for Active; 'I' for Inactive)
REMARK    1  A    between atoms: C_5  and  N_1 
REMARK    2  A    between atoms: C_2  and  C_4 
REMARK       I    between atoms: N_3  and  C_2 
REMARK    3  A    between atoms: C_7  and  N_3 
REMARK       I    between atoms: C_4  and  N_8 
REMARK    4  A    between atoms: C_10  and  C_5 
REMARK    5  A    between atoms: C_14  and  C_5 
REMARK    6  A    between atoms: N_8  and  C_10 
ROOT
ATOM      1  C   UNL d   1      31.866  17.460 -24.067  0.00  0.00     0.085 C 
ENDROOT
BRANCH   1   2
ATOM      2  N   UNL d   1      31.065  17.341 -24.294  0.00  0.00    -0.302 N 
ATOM      3  C   UNL d   1      30.658  16.667 -24.051  0.00  0.00     0.080 A 
ATOM      4  C   UNL d   1      29.874  16.555 -24.276  0.00  0.00     0.018 A 
ATOM      5  C   UNL d   1      29.464  15.876 -24.031  0.00  0.00     0.002 A 
ATOM      6  C   UNL d   1      29.498  17.116 -24.745  0.00  0.00     0.003 A 
ATOM      7  C   UNL d   1      28.677  15.757 -24.254  0.00  0.00     0.000 A 
ATOM      8  C   UNL d   1      28.300  16.327 -24.727  0.00  0.00     0.000 A 
ATOM      9  C   UNL d   1      28.710  17.006 -24.973  0.00  0.00     0.000 A 
ATOM     10  C   UNL d   1      29.905  17.791 -24.989  0.00  0.00     0.019 A 
ATOM     11  C   UNL d   1      30.689  17.904 -24.764  0.00  0.00     0.080 A 
ENDBRANCH   1   2
BRANCH   1  12
ATOM     12  C   UNL d   1      32.188  18.219 -24.070  0.00  0.00     0.120 C 
BRANCH  12  13
ATOM     13  N   UNL d   1      32.371  18.597 -23.361  0.00  0.00    -0.201 NA
ATOM     14  C   UNL d   1      32.551  19.410 -23.356  0.00  0.00     0.337 C 
ATOM     15  O   UNL d   1      32.547  19.838 -24.064  0.00  0.00    -0.260 OA
BRANCH  14  16
ATOM     16  C   UNL d   1      32.733  19.787 -22.648  0.00  0.00     0.337 C 
ATOM     17  N   UNL d   1      32.473  20.564 -22.512  0.00  0.00    -0.202 NA
ATOM     18  O   UNL d   1      33.177  19.394 -22.067  0.00  0.00    -0.260 OA
BRANCH  17  19
ATOM     19  C   UNL d   1      32.659  20.941 -21.795  0.00  0.00     0.112 A 
ATOM     20  C   UNL d   1      33.040  21.673 -21.805  0.00  0.00     0.160 A 
ATOM     21  C   UNL d   1      33.227  22.050 -21.106  0.00  0.00     0.061 A 
ATOM     22  F   UNL d   1      33.241  22.038 -22.535  0.00  0.00    -0.203 F 
ATOM     23  C   UNL d   1      33.031  21.696 -20.380  0.00  0.00     0.142 A 
ATOM     24  C   UNL d   1      32.650  20.964 -20.371  0.00  0.00     0.031 A 
ATOM     25  F   UNL d   1      33.223  22.084 -19.668  0.00  0.00    -0.204 F 
ATOM     26  C   UNL d   1      32.465  20.587 -21.087  0.00  0.00     0.024 A 
ENDBRANCH  17  19
ENDBRANCH  14  16
ENDBRANCH  12  13
ENDBRANCH   1  12
BRANCH   1  27
ATOM     27  C   UNL d   1      32.323  16.815 -23.841  0.00  0.00     0.037 A 
ATOM     28  C   UNL d   1      32.503  16.696 -23.046  0.00  0.00     0.100 A 
ATOM     29  N   UNL d   1      32.960  16.051 -22.821  0.00  0.00    -0.242 NA
ATOM     30  C   UNL d   1      33.241  15.521 -23.393  0.00  0.00     0.099 A 
ATOM     31  C   UNL d   1      33.062  15.638 -24.187  0.00  0.00     0.021 A 
ATOM     32  C   UNL d   1      32.604  16.284 -24.413  0.00  0.00     0.005 A 
ENDBRANCH   1  27
TORSDOF 6
ENDMDL
