MODEL 1
REMARK VINA RESULT:      55.3      0.000      0.000
REMARK  3 active torsions:
REMARK  status: ('A' for Active; 'I' for Inactive)
REMARK    1  A    between atoms: S_2  and  N_1 
REMARK    2  A    between atoms: C_6  and  S_2 
REMARK    3  A    between atoms: O_17  and  C_11 
ROOT
ATOM      1  S   UNL d   1     -50.689  26.240  33.762  0.00  0.00     0.273 S 
ATOM      2  O   UNL d   1     -51.286  26.727  34.056  0.00  0.00    -0.200 OA
ATOM      3  O   UNL d   1     -50.088  25.750  33.467  0.00  0.00    -0.200 OA
ENDROOT
BRANCH   1   4
ATOM      4  N   UNL d   1     -51.244  25.652  33.599  0.00  0.00    -0.214 N 
ATOM      5  C   UNL d   1     -52.048  25.771  33.442  0.00  0.00     0.157 A 
ATOM      6  N   UNL d   1     -52.400  25.030  33.308  0.00  0.00    -0.226 NA
ATOM      7  C   UNL d   1     -52.430  26.494  33.421  0.00  0.00     0.041 C 
ATOM      8  C   UNL d   1     -51.805  24.454  33.385  0.00  0.00     0.100 A 
ATOM      9  C   UNL d   1     -51.098  24.833  33.563  0.00  0.00     0.094 A 
ATOM     10  C   UNL d   1     -51.829  23.633  33.314  0.00  0.00     0.021 A 
ATOM     11  C   UNL d   1     -50.405  24.389  33.671  0.00  0.00     0.020 A 
ATOM     12  C   UNL d   1     -50.428  23.571  33.599  0.00  0.00     0.002 A 
ATOM     13  C   UNL d   1     -51.135  23.189  33.421  0.00  0.00     0.002 A 
ENDBRANCH   1   4
BRANCH   1  14
ATOM     14  C   UNL d   1     -50.131  26.825  33.924  0.00  0.00     0.106 A 
ATOM     15  C   UNL d   1     -49.972  27.041  34.710  0.00  0.00     0.039 A 
ATOM     16  C   UNL d   1     -49.413  27.627  34.873  0.00  0.00     0.122 A 
ATOM     17  C   UNL d   1     -49.009  28.001  34.251  0.00  0.00     0.162 A 
ATOM     18  C   UNL d   1     -49.167  27.786  33.470  0.00  0.00     0.032 A 
ATOM     19  F   UNL d   1     -48.458  28.579  34.418  0.00  0.00    -0.202 F 
ATOM     20  C   UNL d   1     -49.725  27.201  33.308  0.00  0.00     0.015 A 
BRANCH  16  21
ATOM     21  O   UNL d   1     -49.259  27.838  35.648  0.00  0.00    -0.326 OA
ATOM     22  C   UNL d   1     -49.483  27.345  36.255  0.00  0.00     0.181 C 
ENDBRANCH  16  21
ENDBRANCH   1  14
TORSDOF 3
ENDMDL
