MODEL 1
REMARK VINA RESULT:      46.7      0.000      0.000
REMARK  4 active torsions:
REMARK  status: ('A' for Active; 'I' for Inactive)
REMARK    1  A    between atoms: S_3  and  N_1 
REMARK    2  A    between atoms: C_7  and  C_4 
REMARK    3  A    between atoms: C_10  and  C_5 
REMARK    4  A    between atoms: C_21  and  C_20 
ROOT
ATOM      1  N   UNL d   1      59.754  49.288  50.302  0.00  0.00    -0.155 N 
ATOM      2  N   UNL d   1      59.037  49.291  49.876  0.00  0.00    -0.153 NA
ATOM      3  C   UNL d   1      58.438  49.481  50.405  0.00  0.00     0.126 A 
ATOM      4  C   UNL d   1      59.585  49.473  51.074  0.00  0.00     0.096 A 
ATOM      5  C   UNL d   1      58.794  49.592  51.150  0.00  0.00     0.043 A 
ENDROOT
BRANCH   4   6
ATOM      6  C   UNL d   1      60.140  49.529  51.683  0.00  0.00     0.018 A 
ATOM      7  C   UNL d   1      59.906  49.645  52.479  0.00  0.00     0.002 A 
ATOM      8  C   UNL d   1      60.460  49.701  53.088  0.00  0.00     0.000 A 
ATOM      9  C   UNL d   1      61.249  49.641  52.900  0.00  0.00     0.000 A 
ATOM     10  C   UNL d   1      61.510  49.529  52.147  0.00  0.00     0.000 A 
ATOM     11  C   UNL d   1      60.955  49.473  51.538  0.00  0.00     0.002 A 
BRANCH   9  12
ATOM     12  C   UNL d   1      61.803  49.697  53.507  0.00  0.00     0.000 C 
ATOM     13  C   UNL d   1      62.609  49.634  53.339  0.00  0.00     0.000 C 
ENDBRANCH   9  12
ENDBRANCH   4   6
BRANCH   1  14
ATOM     14  S   UNL d   1      60.484  49.119  49.953  0.00  0.00     0.266 S 
ATOM     15  O   UNL d   1      60.665  48.608  50.580  0.00  0.00    -0.203 OA
ATOM     16  O   UNL d   1      60.329  49.617  49.323  0.00  0.00    -0.203 OA
ATOM     17  C   UNL d   1      61.216  48.933  49.628  0.00  0.00     0.165 C 
ENDBRANCH   1  14
BRANCH   3  18
ATOM     18  C   UNL d   1      57.631  49.550  50.236  0.00  0.00     0.119 A 
ATOM     19  O   UNL d   1      57.047  49.536  50.807  0.00  0.00    -0.304 OA
ATOM     20  C   UNL d   1      56.314  49.623  50.393  0.00  0.00     0.123 A 
ATOM     21  C   UNL d   1      56.489  49.686  49.594  0.00  0.00     0.029 A 
ATOM     22  C   UNL d   1      57.288  49.642  49.492  0.00  0.00     0.028 A 
ENDBRANCH   3  18
TORSDOF 4
ENDMDL
