MODEL 1
REMARK VINA RESULT:      24.5      0.000      0.000
REMARK  4 active torsions:
REMARK  status: ('A' for Active; 'I' for Inactive)
REMARK    1  A    between atoms: C_3  and  N_5 
REMARK    2  A    between atoms: S_13  and  C_4 
REMARK       I    between atoms: N_5  and  C_12 
REMARK    3  A    between atoms: C_12  and  C_18 
REMARK    4  A    between atoms: C_18  and  S_13 
ROOT
ATOM      1  N   UNL d   1      46.037 -14.974  44.444  0.00  0.00    -0.238 NA
ATOM      2  C   UNL d   1      44.676 -15.362  44.655  0.00  0.00     0.092 A 
ATOM      3  C   UNL d   1      45.469 -15.580  44.596  0.00  0.00     0.120 A 
ATOM      4  C   UNL d   1      44.074 -15.938  44.806  0.00  0.00     0.103 C 
ATOM      5  C   UNL d   1      45.831 -14.201  44.357  0.00  0.00     0.082 A 
ATOM      6  N   UNL d   1      43.486 -16.508  44.955  0.00  0.00    -0.191 NA
ATOM      7  C   UNL d   1      44.443 -14.535  44.564  0.00  0.00     0.014 A 
ATOM      8  C   UNL d   1      45.038 -13.982  44.417  0.00  0.00     0.018 A 
ATOM      9  C   UNL d   1      46.475 -13.713  44.214  0.00  0.00     0.019 A 
ATOM     10  C   UNL d   1      44.684 -13.220  44.349  0.00  0.00     0.002 A 
ATOM     11  C   UNL d   1      46.501 -12.910  44.097  0.00  0.00     0.002 A 
ATOM     12  C   UNL d   1      45.051 -12.511  44.206  0.00  0.00     0.000 A 
ATOM     13  C   UNL d   1      45.897 -12.378  44.090  0.00  0.00     0.000 A 
ENDROOT
BRANCH   3  14
ATOM     14  S   UNL d   1      45.669 -16.377  44.686  0.00  0.00    -0.062 SA
BRANCH  14  15
ATOM     15  C   UNL d   1      45.966 -16.787  44.035  0.00  0.00     0.099 C 
BRANCH  15  16
ATOM     16  C   UNL d   1      46.122 -17.585  44.112  0.00  0.00     0.288 C 
ATOM     17  N   UNL d   1      46.215 -18.017  43.415  0.00  0.00    -0.182 NA
ATOM     18  O   UNL d   1      46.187 -17.960  44.843  0.00  0.00    -0.265 OA
BRANCH  17  19
ATOM     19  C   UNL d   1      46.373 -18.826  43.490  0.00  0.00     0.197 A 
ATOM     20  N   UNL d   1      46.439 -19.295  44.141  0.00  0.00    -0.219 NA
ATOM     21  C   UNL d   1      46.599 -20.047  43.922  0.00  0.00     0.108 A 
ATOM     22  C   UNL d   1      46.638 -20.070  43.092  0.00  0.00     0.059 A 
ATOM     23  S   UNL d   1      46.498 -19.314  42.833  0.00  0.00    -0.046 SA
ENDBRANCH  17  19
ENDBRANCH  15  16
ENDBRANCH  14  15
ENDBRANCH   3  14
TORSDOF 4
ENDMDL
MODEL 2
REMARK VINA RESULT:      25.4      1.397      5.158
REMARK  4 active torsions:
REMARK  status: ('A' for Active; 'I' for Inactive)
REMARK    1  A    between atoms: C_3  and  N_5 
REMARK    2  A    between atoms: S_13  and  C_4 
REMARK       I    between atoms: N_5  and  C_12 
REMARK    3  A    between atoms: C_12  and  C_18 
REMARK    4  A    between atoms: C_18  and  S_13 
ROOT
ATOM      1  N   UNL d   1      46.176 -17.711  44.301  0.00  0.00    -0.238 NA
ATOM      2  C   UNL d   1      46.432 -17.414  42.925  0.00  0.00     0.092 A 
ATOM      3  C   UNL d   1      46.265 -17.140  43.685  0.00  0.00     0.120 A 
ATOM      4  C   UNL d   1      46.530 -16.876  42.279  0.00  0.00     0.103 C 
ATOM      5  C   UNL d   1      46.247 -18.502  44.172  0.00  0.00     0.082 A 
ATOM      6  N   UNL d   1      46.625 -16.343  41.647  0.00  0.00    -0.191 NA
ATOM      7  C   UNL d   1      46.512 -18.261  42.774  0.00  0.00     0.014 A 
ATOM      8  C   UNL d   1      46.414 -18.776  43.412  0.00  0.00     0.018 A 
ATOM      9  C   UNL d   1      46.138 -18.948  44.851  0.00  0.00     0.019 A 
ATOM     10  C   UNL d   1      46.515 -19.566  43.135  0.00  0.00     0.002 A 
ATOM     11  C   UNL d   1      46.164 -19.753  44.953  0.00  0.00     0.002 A 
ATOM     12  C   UNL d   1      46.470 -20.254  43.563  0.00  0.00     0.000 A 
ATOM     13  C   UNL d   1      46.306 -20.330  44.409  0.00  0.00     0.000 A 
ENDROOT
BRANCH   3  14
ATOM     14  S   UNL d   1      46.194 -16.326  43.807  0.00  0.00    -0.062 SA
BRANCH  14  15
ATOM     15  C   UNL d   1      45.620 -16.053  44.332  0.00  0.00     0.099 C 
BRANCH  15  16
ATOM     16  C   UNL d   1      45.444 -15.256  44.341  0.00  0.00     0.288 C 
ATOM     17  N   UNL d   1      46.081 -14.732  44.342  0.00  0.00    -0.182 NA
ATOM     18  O   UNL d   1      44.672 -14.968  44.349  0.00  0.00    -0.265 OA
BRANCH  17  19
ATOM     19  C   UNL d   1      45.905 -13.923  44.351  0.00  0.00     0.197 A 
ATOM     20  N   UNL d   1      45.447 -13.475  43.864  0.00  0.00    -0.219 NA
ATOM     21  C   UNL d   1      45.453 -12.713  44.107  0.00  0.00     0.108 A 
ATOM     22  C   UNL d   1      45.936 -12.662  44.782  0.00  0.00     0.059 A 
ATOM     23  S   UNL d   1      46.211 -13.411  44.926  0.00  0.00    -0.046 SA
ENDBRANCH  17  19
ENDBRANCH  15  16
ENDBRANCH  14  15
ENDBRANCH   3  14
TORSDOF 4
ENDMDL
