MODEL 1
REMARK VINA RESULT:       2.4      0.000      0.000
REMARK  1 active torsions:
REMARK  status: ('A' for Active; 'I' for Inactive)
REMARK    1  A    between atoms: C_8  and  C_3 
ROOT
ATOM      1  N   UNL d   1      46.415 -18.392  42.218  0.00  0.00    -0.145 NA
ATOM      2  N   UNL d   1      46.430 -18.274  41.393  0.00  0.00    -0.106 NA
ATOM      3  C   UNL d   1      46.516 -19.147  42.524  0.00  0.00     0.103 A 
ATOM      4  C   UNL d   1      46.546 -18.914  40.886  0.00  0.00     0.297 A 
ATOM      5  C   UNL d   1      46.632 -19.789  42.007  0.00  0.00     0.026 A 
ATOM      6  C   UNL d   1      46.647 -19.671  41.204  0.00  0.00     0.066 A 
ATOM      7  O   UNL d   1      46.561 -18.795  40.078  0.00  0.00    -0.264 OA
ENDROOT
BRANCH   3   8
ATOM      8  C   UNL d   1      46.503 -19.277  43.329  0.00  0.00     0.019 A 
ATOM      9  C   UNL d   1      46.375 -20.050  43.607  0.00  0.00     0.002 A 
ATOM     10  C   UNL d   1      46.361 -20.191  44.424  0.00  0.00     0.000 A 
ATOM     11  C   UNL d   1      46.474 -19.565  44.954  0.00  0.00     0.000 A 
ATOM     12  C   UNL d   1      46.600 -18.801  44.675  0.00  0.00     0.000 A 
ATOM     13  C   UNL d   1      46.614 -18.664  43.861  0.00  0.00     0.002 A 
ENDBRANCH   3   8
TORSDOF 1
ENDMDL
MODEL 2
REMARK VINA RESULT:       4.9      7.515      7.856
REMARK  1 active torsions:
REMARK  status: ('A' for Active; 'I' for Inactive)
REMARK    1  A    between atoms: C_8  and  C_3 
ROOT
ATOM      1  N   UNL d   1      44.488 -14.613  37.156  0.00  0.00    -0.145 NA
ATOM      2  N   UNL d   1      45.244 -14.281  37.275  0.00  0.00    -0.106 NA
ATOM      3  C   UNL d   1      44.408 -15.294  36.706  0.00  0.00     0.103 A 
ATOM      4  C   UNL d   1      45.908 -14.637  36.941  0.00  0.00     0.297 A 
ATOM      5  C   UNL d   1      45.083 -15.649  36.371  0.00  0.00     0.026 A 
ATOM      6  C   UNL d   1      45.817 -15.323  36.489  0.00  0.00     0.066 A 
ATOM      7  O   UNL d   1      46.647 -14.310  37.060  0.00  0.00    -0.264 OA
ENDROOT
BRANCH   3   8
ATOM      8  C   UNL d   1      43.675 -15.630  36.581  0.00  0.00     0.019 A 
ATOM      9  C   UNL d   1      43.005 -15.137  36.575  0.00  0.00     0.002 A 
ATOM     10  C   UNL d   1      42.256 -15.471  36.449  0.00  0.00     0.000 A 
ATOM     11  C   UNL d   1      42.182 -16.287  36.330  0.00  0.00     0.000 A 
ATOM     12  C   UNL d   1      42.848 -16.771  36.337  0.00  0.00     0.000 A 
ATOM     13  C   UNL d   1      43.591 -16.436  36.463  0.00  0.00     0.002 A 
ENDBRANCH   3   8
TORSDOF 1
ENDMDL
