MODEL 1
REMARK VINA RESULT:      22.2      0.000      0.000
REMARK  3 active torsions:
REMARK  status: ('A' for Active; 'I' for Inactive)
REMARK    1  A    between atoms: N_2  and  C_1 
REMARK    2  A    between atoms: C_3  and  C_1 
REMARK    3  A    between atoms: N_6  and  C_5 
ROOT
ATOM      1  C   UNL d   1      59.539  49.679  50.485  0.00  0.00     0.027 A 
ATOM      2  C   UNL d   1      57.897  49.688  50.282  0.00  0.00     0.064 A 
ATOM      3  C   UNL d   1      59.211  49.701  49.722  0.00  0.00     0.004 A 
ATOM      4  C   UNL d   1      59.038  49.660  51.150  0.00  0.00     0.004 A 
ATOM      5  C   UNL d   1      58.393  49.706  49.623  0.00  0.00     0.018 A 
ATOM      6  C   UNL d   1      58.214  49.665  51.047  0.00  0.00     0.018 A 
ENDROOT
BRANCH   1   7
ATOM      7  C   UNL d   1      60.359  49.674  50.585  0.00  0.00     0.120 C 
ATOM      8  S   UNL d   1      60.851  49.661  49.919  0.00  0.00    -0.059 SA
BRANCH   7   9
ATOM      9  N   UNL d   1      60.682  49.682  51.344  0.00  0.00    -0.292 N 
ATOM     10  C   UNL d   1      60.181  49.690  51.996  0.00  0.00     0.108 A 
ATOM     11  C   UNL d   1      60.503  49.698  52.755  0.00  0.00     0.142 A 
ATOM     12  O   UNL d   1      61.320  49.697  52.856  0.00  0.00    -0.300 OA
ATOM     13  C   UNL d   1      61.819  49.689  52.197  0.00  0.00     0.142 A 
ATOM     14  C   UNL d   1      61.496  49.681  51.438  0.00  0.00     0.108 A 
ENDBRANCH   7   9
ENDBRANCH   1   7
BRANCH   2  15
ATOM     15  N   UNL d   1      57.080  49.693  50.184  0.00  0.00    -0.301 N 
ATOM     16  C   UNL d   1      56.755  49.683  49.424  0.00  0.00     0.100 C 
ATOM     17  C   UNL d   1      56.587  49.706  50.843  0.00  0.00     0.100 C 
ENDBRANCH   2  15
TORSDOF 3
ENDMDL
