MODEL 1
REMARK VINA RESULT:      78.1      0.000      0.000
REMARK  5 active torsions:
REMARK  status: ('A' for Active; 'I' for Inactive)
REMARK    1  A    between atoms: C_8  and  C_6 
REMARK    2  A    between atoms: C_9  and  C_8 
REMARK       I    between atoms: N_10  and  C_9 
REMARK    3  A    between atoms: C_14  and  N_10 
REMARK    4  A    between atoms: O_22  and  C_15 
REMARK    5  A    between atoms: C_27  and  O_22 
ROOT
ATOM      1  N   UNL d   1     -49.127  26.414  34.102  0.00  0.00    -0.207 NA
ATOM      2  N   UNL d   1     -50.048  27.808  34.243  0.00  0.00    -0.240 NA
ATOM      3  C   UNL d   1     -48.944  27.168  34.344  0.00  0.00     0.297 A 
ATOM      4  C   UNL d   1     -49.846  26.102  33.845  0.00  0.00     0.086 A 
ATOM      5  C   UNL d   1     -50.632  27.301  33.968  0.00  0.00     0.083 A 
ATOM      6  C   UNL d   1     -49.258  27.638  34.391  0.00  0.00     0.144 A 
ATOM      7  C   UNL d   1     -50.576  26.498  33.771  0.00  0.00     0.035 A 
ATOM      8  O   UNL d   1     -48.161  27.288  34.566  0.00  0.00    -0.264 OA
ATOM      9  C   UNL d   1     -51.237  26.082  33.501  0.00  0.00     0.003 A 
ATOM     10  C   UNL d   1     -49.787  25.301  33.649  0.00  0.00     0.019 A 
ATOM     11  C   UNL d   1     -51.354  27.692  33.894  0.00  0.00     0.019 A 
ATOM     12  C   UNL d   1     -52.029  27.276  33.621  0.00  0.00     0.002 A 
ATOM     13  C   UNL d   1     -50.453  24.891  33.380  0.00  0.00     0.002 A 
ATOM     14  C   UNL d   1     -51.967  26.477  33.427  0.00  0.00     0.000 A 
ATOM     15  C   UNL d   1     -51.175  25.283  33.307  0.00  0.00     0.000 A 
ENDROOT
BRANCH   6  16
ATOM     16  C   UNL d   1     -48.832  28.288  34.665  0.00  0.00     0.086 C 
BRANCH  16  17
ATOM     17  C   UNL d   1     -48.655  28.347  35.476  0.00  0.00     0.281 C 
ATOM     18  N   UNL d   1     -48.351  29.053  35.781  0.00  0.00    -0.208 NA
ATOM     19  O   UNL d   1     -48.783  27.705  35.979  0.00  0.00    -0.265 OA
BRANCH  18  20
ATOM     20  C   UNL d   1     -48.221  29.700  35.282  0.00  0.00     0.085 A 
ATOM     21  C   UNL d   1     -47.463  30.009  35.197  0.00  0.00     0.021 A 
ATOM     22  C   UNL d   1     -47.337  30.653  34.700  0.00  0.00     0.026 A 
ATOM     23  C   UNL d   1     -47.968  30.987  34.288  0.00  0.00     0.100 A 
ATOM     24  C   UNL d   1     -48.732  30.673  34.376  0.00  0.00     0.026 A 
ATOM     25  C   UNL d   1     -48.852  30.029  34.875  0.00  0.00     0.021 A 
BRANCH  23  26
ATOM     26  O   UNL d   1     -47.845  31.620  33.800  0.00  0.00    -0.305 OA
BRANCH  26  27
ATOM     27  C   UNL d   1     -47.720  32.262  33.306  0.00  0.00     0.123 C 
ATOM     28  C   UNL d   1     -47.717  33.011  33.613  0.00  0.00     0.029 C 
ENDBRANCH  26  27
ENDBRANCH  23  26
ENDBRANCH  18  20
ENDBRANCH  16  17
ENDBRANCH   6  16
TORSDOF 5
ENDMDL
MODEL 2
REMARK VINA RESULT:      80.9      1.237      2.254
REMARK  5 active torsions:
REMARK  status: ('A' for Active; 'I' for Inactive)
REMARK    1  A    between atoms: C_8  and  C_6 
REMARK    2  A    between atoms: C_9  and  C_8 
REMARK       I    between atoms: N_10  and  C_9 
REMARK    3  A    between atoms: C_14  and  N_10 
REMARK    4  A    between atoms: O_22  and  C_15 
REMARK    5  A    between atoms: C_27  and  O_22 
ROOT
ATOM      1  N   UNL d   1     -51.190  26.992  33.612  0.00  0.00    -0.207 NA
ATOM      2  N   UNL d   1     -49.948  25.866  33.610  0.00  0.00    -0.240 NA
ATOM      3  C   UNL d   1     -50.384  27.068  33.686  0.00  0.00     0.297 A 
ATOM      4  C   UNL d   1     -51.650  26.315  33.511  0.00  0.00     0.086 A 
ATOM      5  C   UNL d   1     -50.580  25.353  33.510  0.00  0.00     0.083 A 
ATOM      6  C   UNL d   1     -49.966  26.684  33.685  0.00  0.00     0.144 A 
ATOM      7  C   UNL d   1     -51.389  25.524  33.459  0.00  0.00     0.035 A 
ATOM      8  O   UNL d   1     -50.109  27.837  33.780  0.00  0.00    -0.264 OA
ATOM      9  C   UNL d   1     -51.944  24.920  33.357  0.00  0.00     0.003 A 
ATOM     10  C   UNL d   1     -52.457  26.488  33.461  0.00  0.00     0.019 A 
ATOM     11  C   UNL d   1     -50.322  24.571  33.459  0.00  0.00     0.019 A 
ATOM     12  C   UNL d   1     -50.879  23.953  33.356  0.00  0.00     0.002 A 
ATOM     13  C   UNL d   1     -53.006  25.879  33.359  0.00  0.00     0.002 A 
ATOM     14  C   UNL d   1     -51.683  24.130  33.305  0.00  0.00     0.000 A 
ATOM     15  C   UNL d   1     -52.748  25.097  33.307  0.00  0.00     0.000 A 
ENDROOT
BRANCH   6  16
ATOM     16  C   UNL d   1     -49.219  27.019  33.777  0.00  0.00     0.086 C 
BRANCH  16  17
ATOM     17  C   UNL d   1     -48.589  26.544  34.044  0.00  0.00     0.281 C 
ATOM     18  N   UNL d   1     -47.967  26.886  34.468  0.00  0.00    -0.208 NA
ATOM     19  O   UNL d   1     -48.583  25.734  33.888  0.00  0.00    -0.265 OA
BRANCH  18  20
ATOM     20  C   UNL d   1     -47.968  27.698  34.627  0.00  0.00     0.085 A 
ATOM     21  C   UNL d   1     -48.551  28.023  35.109  0.00  0.00     0.021 A 
ATOM     22  C   UNL d   1     -48.549  28.831  35.266  0.00  0.00     0.026 A 
ATOM     23  C   UNL d   1     -47.965  29.313  34.942  0.00  0.00     0.100 A 
ATOM     24  C   UNL d   1     -47.378  28.983  34.456  0.00  0.00     0.026 A 
ATOM     25  C   UNL d   1     -47.384  28.174  34.302  0.00  0.00     0.021 A 
BRANCH  23  26
ATOM     26  O   UNL d   1     -47.962  30.107  35.096  0.00  0.00    -0.305 OA
BRANCH  26  27
ATOM     27  C   UNL d   1     -47.960  30.912  35.250  0.00  0.00     0.123 C 
ATOM     28  C   UNL d   1     -48.446  31.404  34.829  0.00  0.00     0.029 C 
ENDBRANCH  26  27
ENDBRANCH  23  26
ENDBRANCH  18  20
ENDBRANCH  16  17
ENDBRANCH   6  16
TORSDOF 5
ENDMDL
