MODEL 1
REMARK VINA RESULT:      -4.3      0.000      0.000
REMARK  5 active torsions:
REMARK  status: ('A' for Active; 'I' for Inactive)
REMARK    1  A    between atoms: C_9  and  N_2 
REMARK    2  A    between atoms: C_7  and  O_10 
REMARK    3  A    between atoms: O_11  and  C_8 
REMARK    4  A    between atoms: C_12  and  C_9 
REMARK    5  A    between atoms: O_10  and  C_12 
ROOT
ATOM      1  C   UNL d   1     -41.821-122.068 -51.245  0.00  0.00     0.110 C 
ENDROOT
BRANCH   1   2
ATOM      2  N   UNL d   1     -42.274-122.337 -50.610  0.00  0.00    -0.266 N 
ATOM      3  C   UNL d   1     -43.080-122.214 -50.507  0.00  0.00     0.296 A 
ATOM      4  S   UNL d   1     -43.304-122.585 -49.789  0.00  0.00    -0.025 SA
ATOM      5  O   UNL d   1     -43.582-121.804 -51.011  0.00  0.00    -0.259 OA
ATOM      6  C   UNL d   1     -42.626-122.931 -49.463  0.00  0.00     0.050 A 
ATOM      7  C   UNL d   1     -42.514-123.366 -48.766  0.00  0.00     0.008 A 
ATOM      8  C   UNL d   1     -41.995-122.779 -49.967  0.00  0.00     0.074 A 
ATOM      9  C   UNL d   1     -41.754-123.645 -48.586  0.00  0.00     0.001 A 
ATOM     10  C   UNL d   1     -41.123-123.493 -49.090  0.00  0.00     0.002 A 
ATOM     11  C   UNL d   1     -41.238-123.059 -49.784  0.00  0.00     0.018 A 
ENDBRANCH   1   2
BRANCH   1  12
ATOM     12  C   UNL d   1     -41.782-122.500 -51.943  0.00  0.00     0.142 C 
BRANCH  12  13
ATOM     13  O   UNL d   1     -41.614-122.133 -52.665  0.00  0.00    -0.302 OA
BRANCH  13  14
ATOM     14  C   UNL d   1     -41.505-122.585 -53.347  0.00  0.00     0.122 A 
ATOM     15  C   UNL d   1     -41.644-122.250 -54.088  0.00  0.00     0.117 A 
ATOM     16  C   UNL d   1     -41.535-122.699 -54.766  0.00  0.00     0.026 A 
ATOM     17  C   UNL d   1     -41.287-123.484 -54.702  0.00  0.00     0.002 A 
ATOM     18  C   UNL d   1     -41.148-123.816 -53.956  0.00  0.00     0.002 A 
ATOM     19  C   UNL d   1     -41.260-123.359 -53.282  0.00  0.00     0.027 A 
BRANCH  15  20
ATOM     20  O   UNL d   1     -41.895-121.464 -54.185  0.00  0.00    -0.326 OA
ATOM     21  C   UNL d   1     -42.161-121.210 -54.925  0.00  0.00     0.181 C 
ENDBRANCH  15  20
ENDBRANCH  13  14
ENDBRANCH  12  13
ENDBRANCH   1  12
TORSDOF 5
ENDMDL
MODEL 2
REMARK VINA RESULT:      -2.8      1.490      4.511
REMARK  5 active torsions:
REMARK  status: ('A' for Active; 'I' for Inactive)
REMARK    1  A    between atoms: C_9  and  N_2 
REMARK    2  A    between atoms: C_7  and  O_10 
REMARK    3  A    between atoms: O_11  and  C_8 
REMARK    4  A    between atoms: C_12  and  C_9 
REMARK    5  A    between atoms: O_10  and  C_12 
ROOT
ATOM      1  C   UNL d   1     -41.399-122.044 -52.490  0.00  0.00     0.110 C 
ENDROOT
BRANCH   1   2
ATOM      2  N   UNL d   1     -41.512-122.490 -53.176  0.00  0.00    -0.266 N 
ATOM      3  C   UNL d   1     -41.385-123.298 -53.252  0.00  0.00     0.296 A 
ATOM      4  S   UNL d   1     -41.570-123.511 -54.041  0.00  0.00    -0.025 SA
ATOM      5  O   UNL d   1     -41.124-123.810 -52.666  0.00  0.00    -0.259 OA
ATOM      6  C   UNL d   1     -41.810-122.824 -54.437  0.00  0.00     0.050 A 
ATOM      7  C   UNL d   1     -42.055-122.701 -55.220  0.00  0.00     0.008 A 
ATOM      8  C   UNL d   1     -41.774-122.199 -53.907  0.00  0.00     0.074 A 
ATOM      9  C   UNL d   1     -42.264-121.934 -55.457  0.00  0.00     0.001 A 
ATOM     10  C   UNL d   1     -42.229-121.308 -54.927  0.00  0.00     0.002 A 
ATOM     11  C   UNL d   1     -41.983-121.435 -54.147  0.00  0.00     0.018 A 
ENDBRANCH   1   2
BRANCH   1  12
ATOM     12  C   UNL d   1     -41.418-122.404 -51.751  0.00  0.00     0.142 C 
BRANCH  12  13
ATOM     13  O   UNL d   1     -41.845-122.073 -51.125  0.00  0.00    -0.302 OA
BRANCH  13  14
ATOM     14  C   UNL d   1     -41.842-122.433 -50.382  0.00  0.00     0.122 A 
ATOM     15  C   UNL d   1     -42.554-122.667 -50.037  0.00  0.00     0.117 A 
ATOM     16  C   UNL d   1     -42.551-123.025 -49.298  0.00  0.00     0.026 A 
ATOM     17  C   UNL d   1     -41.836-123.148 -48.905  0.00  0.00     0.002 A 
ATOM     18  C   UNL d   1     -41.123-122.912 -49.256  0.00  0.00     0.002 A 
ATOM     19  C   UNL d   1     -41.135-122.554 -49.996  0.00  0.00     0.027 A 
BRANCH  15  20
ATOM     20  O   UNL d   1     -43.289-122.556 -50.407  0.00  0.00    -0.326 OA
ATOM     21  C   UNL d   1     -43.983-122.735 -49.995  0.00  0.00     0.181 C 
ENDBRANCH  15  20
ENDBRANCH  13  14
ENDBRANCH  12  13
ENDBRANCH   1  12
TORSDOF 5
ENDMDL
MODEL 3
REMARK VINA RESULT:      -1.7      1.163      1.714
REMARK  5 active torsions:
REMARK  status: ('A' for Active; 'I' for Inactive)
REMARK    1  A    between atoms: C_9  and  N_2 
REMARK    2  A    between atoms: C_7  and  O_10 
REMARK    3  A    between atoms: O_11  and  C_8 
REMARK    4  A    between atoms: C_12  and  C_9 
REMARK    5  A    between atoms: O_10  and  C_12 
ROOT
ATOM      1  C   UNL d   1     -42.591-123.469 -50.271  0.00  0.00     0.110 C 
ENDROOT
BRANCH   1   2
ATOM      2  N   UNL d   1     -42.742-123.215 -49.501  0.00  0.00    -0.266 N 
ATOM      3  C   UNL d   1     -43.403-122.792 -49.254  0.00  0.00     0.296 A 
ATOM      4  S   UNL d   1     -43.323-122.655 -48.431  0.00  0.00    -0.025 SA
ATOM      5  O   UNL d   1     -44.030-122.547 -49.723  0.00  0.00    -0.259 OA
ATOM      6  C   UNL d   1     -42.610-122.998 -48.187  0.00  0.00     0.050 A 
ATOM      7  C   UNL d   1     -42.248-123.035 -47.442  0.00  0.00     0.008 A 
ATOM      8  C   UNL d   1     -42.254-123.341 -48.842  0.00  0.00     0.074 A 
ATOM      9  C   UNL d   1     -41.519-123.425 -47.371  0.00  0.00     0.001 A 
ATOM     10  C   UNL d   1     -41.163-123.768 -48.026  0.00  0.00     0.002 A 
ATOM     11  C   UNL d   1     -41.528-123.729 -48.768  0.00  0.00     0.018 A 
ENDBRANCH   1   2
BRANCH   1  12
ATOM     12  C   UNL d   1     -42.274-122.953 -50.827  0.00  0.00     0.142 C 
BRANCH  12  13
ATOM     13  O   UNL d   1     -42.126-123.198 -51.602  0.00  0.00    -0.302 OA
BRANCH  13  14
ATOM     14  C   UNL d   1     -41.790-122.676 -52.148  0.00  0.00     0.122 A 
ATOM     15  C   UNL d   1     -41.734-122.893 -52.942  0.00  0.00     0.117 A 
ATOM     16  C   UNL d   1     -41.401-122.374 -53.483  0.00  0.00     0.026 A 
ATOM     17  C   UNL d   1     -41.124-121.639 -53.230  0.00  0.00     0.002 A 
ATOM     18  C   UNL d   1     -41.182-121.425 -52.431  0.00  0.00     0.002 A 
ATOM     19  C   UNL d   1     -41.517-121.951 -51.895  0.00  0.00     0.027 A 
BRANCH  15  20
ATOM     20  O   UNL d   1     -42.003-123.624 -53.227  0.00  0.00    -0.326 OA
ATOM     21  C   UNL d   1     -41.892-123.817 -54.023  0.00  0.00     0.181 C 
ENDBRANCH  15  20
ENDBRANCH  13  14
ENDBRANCH  12  13
ENDBRANCH   1  12
TORSDOF 5
ENDMDL
