MODEL 1
REMARK VINA RESULT:     -10.3      0.000      0.000
REMARK  2 active torsions:
REMARK  status: ('A' for Active; 'I' for Inactive)
REMARK    1  A    between atoms: N_2  and  S_1 
REMARK    2  A    between atoms: C_4  and  S_1 
ROOT
ATOM      1  N   UNL d   1      53.045  32.902  53.368  0.00  0.00    -0.231 N 
ATOM      2  C   UNL d   1      53.124  32.076  53.338  0.00  0.00     0.075 A 
ATOM      3  C   UNL d   1      53.817  31.721  53.587  0.00  0.00     0.017 A 
ATOM      4  C   UNL d   1      53.673  33.366  53.652  0.00  0.00     0.092 A 
ATOM      5  C   UNL d   1      52.496  31.613  53.054  0.00  0.00     0.018 A 
ATOM      6  C   UNL d   1      54.366  33.010  53.901  0.00  0.00     0.020 A 
ATOM      7  C   UNL d   1      54.446  32.183  53.871  0.00  0.00     0.003 A 
ATOM      8  C   UNL d   1      53.896  30.894  53.557  0.00  0.00     0.002 A 
ATOM      9  C   UNL d   1      52.579  30.798  53.027  0.00  0.00     0.002 A 
ATOM     10  C   UNL d   1      53.272  30.442  53.276  0.00  0.00     0.000 A 
ENDROOT
BRANCH   1  11
ATOM     11  S   UNL d   1      52.351  33.259  53.119  0.00  0.00     0.271 S 
ATOM     12  O   UNL d   1      52.045  33.366  54.125  0.00  0.00    -0.200 OA
ATOM     13  O   UNL d   1      52.612  33.167  52.260  0.00  0.00    -0.200 OA
BRANCH  11  14
ATOM     14  C   UNL d   1      51.648  33.619  52.867  0.00  0.00     0.104 A 
ATOM     15  C   UNL d   1      51.616  33.968  52.120  0.00  0.00     0.014 A 
ATOM     16  C   UNL d   1      50.925  34.325  51.867  0.00  0.00     0.012 A 
ATOM     17  C   UNL d   1      50.264  34.337  52.353  0.00  0.00     0.058 A 
ATOM     18  C   UNL d   1      50.296  33.988  53.100  0.00  0.00     0.012 A 
ATOM     19 CL   UNL d   1      49.561  34.698  52.101  0.00  0.00    -0.082 Cl
ATOM     20  C   UNL d   1      50.999  33.627  53.352  0.00  0.00     0.014 A 
ENDBRANCH  11  14
ENDBRANCH   1  11
TORSDOF 2
ENDMDL
MODEL 2
REMARK VINA RESULT:      -9.8      1.853      3.561
REMARK  2 active torsions:
REMARK  status: ('A' for Active; 'I' for Inactive)
REMARK    1  A    between atoms: N_2  and  S_1 
REMARK    2  A    between atoms: C_4  and  S_1 
ROOT
ATOM      1  N   UNL d   1      52.573  33.284  53.098  0.00  0.00    -0.231 N 
ATOM      2  C   UNL d   1      52.811  33.835  53.671  0.00  0.00     0.075 A 
ATOM      3  C   UNL d   1      52.639  34.629  53.575  0.00  0.00     0.017 A 
ATOM      4  C   UNL d   1      52.160  33.543  52.425  0.00  0.00     0.092 A 
ATOM      5  C   UNL d   1      53.224  33.577  54.344  0.00  0.00     0.018 A 
ATOM      6  C   UNL d   1      51.988  34.337  52.329  0.00  0.00     0.020 A 
ATOM      7  C   UNL d   1      52.226  34.889  52.903  0.00  0.00     0.003 A 
ATOM      8  C   UNL d   1      52.877  35.181  54.149  0.00  0.00     0.002 A 
ATOM      9  C   UNL d   1      53.457  34.125  54.907  0.00  0.00     0.002 A 
ATOM     10  C   UNL d   1      53.285  34.919  54.811  0.00  0.00     0.000 A 
ENDROOT
BRANCH   1  11
ATOM     11  S   UNL d   1      52.745  32.489  53.194  0.00  0.00     0.271 S 
ATOM     12  O   UNL d   1      51.778  32.328  53.588  0.00  0.00    -0.200 OA
ATOM     13  O   UNL d   1      53.571  32.627  52.858  0.00  0.00    -0.200 OA
BRANCH  11  14
ATOM     14  C   UNL d   1      52.919  31.685  53.292  0.00  0.00     0.104 A 
ATOM     15  C   UNL d   1      52.343  31.121  53.118  0.00  0.00     0.014 A 
ATOM     16  C   UNL d   1      52.510  30.326  53.213  0.00  0.00     0.012 A 
ATOM     17  C   UNL d   1      53.249  30.087  53.480  0.00  0.00     0.058 A 
ATOM     18  C   UNL d   1      53.825  30.652  53.654  0.00  0.00     0.012 A 
ATOM     19 CL   UNL d   1      53.424  29.283  53.578  0.00  0.00    -0.082 Cl
ATOM     20  C   UNL d   1      53.651  31.457  53.556  0.00  0.00     0.014 A 
ENDBRANCH  11  14
ENDBRANCH   1  11
TORSDOF 2
ENDMDL
