MODEL 1
REMARK VINA RESULT:      -6.3      0.000      0.000
REMARK  4 active torsions:
REMARK  status: ('A' for Active; 'I' for Inactive)
REMARK    1  A    between atoms: N_2  and  C_1 
REMARK    2  A    between atoms: N_11  and  C_6 
REMARK    3  A    between atoms: C_13  and  N_11 
REMARK    4  A    between atoms: O_20  and  C_14 
ROOT
ATOM      1  C   UNL d   1     -41.745-122.223 -52.740  0.00  0.00     0.752 A 
ATOM      2  N   UNL d   1     -41.796-122.941 -52.334  0.00  0.00    -0.040 NA
ATOM      3  C   UNL d   1     -41.626-122.975 -51.531  0.00  0.00     0.182 A 
ATOM      4  N   UNL d   1     -41.520-121.539 -52.333  0.00  0.00    -0.059 NA
ATOM      5  C   UNL d   1     -41.401-122.291 -51.125  0.00  0.00     0.059 A 
ATOM      6  C   UNL d   1     -41.348-121.571 -51.527  0.00  0.00     0.103 A 
ATOM      7  C   UNL d   1     -41.123-120.887 -51.120  0.00  0.00     0.021 C 
ENDROOT
BRANCH   3   8
ATOM      8  N   UNL d   1     -41.677-123.689 -51.127  0.00  0.00    -0.226 NA
BRANCH   8   9
ATOM      9  C   UNL d   1     -42.002-123.721 -50.365  0.00  0.00     0.083 A 
ATOM     10  C   UNL d   1     -41.491-123.763 -49.713  0.00  0.00     0.021 A 
ATOM     11  C   UNL d   1     -41.820-123.794 -48.951  0.00  0.00     0.026 A 
ATOM     12  C   UNL d   1     -42.635-123.783 -48.847  0.00  0.00     0.094 A 
ATOM     13  C   UNL d   1     -43.134-123.741 -49.504  0.00  0.00     0.026 A 
ATOM     14  C   UNL d   1     -42.818-123.709 -50.266  0.00  0.00     0.021 A 
BRANCH  12  15
ATOM     15  O   UNL d   1     -42.952-123.814 -48.094  0.00  0.00    -0.328 OA
ATOM     16  C   UNL d   1     -42.510-123.564 -47.450  0.00  0.00     0.181 C 
ENDBRANCH  12  15
ENDBRANCH   8   9
ENDBRANCH   3   8
BRANCH   1  17
ATOM     17  N   UNL d   1     -41.897-122.182 -53.464  0.00  0.00    -0.058 N 
ATOM     18  N   UNL d   1     -42.515-121.604 -54.451  0.00  0.00    -0.151 NA
ATOM     19  C   UNL d   1     -42.202-122.102 -54.933  0.00  0.00     0.103 A 
ATOM     20  C   UNL d   1     -42.354-122.062 -55.663  0.00  0.00     0.022 C 
ATOM     21  C   UNL d   1     -41.741-122.631 -54.668  0.00  0.00     0.041 A 
ATOM     22  C   UNL d   1     -41.587-122.674 -53.940  0.00  0.00     0.102 A 
ATOM     23  C   UNL d   1     -41.123-123.207 -53.676  0.00  0.00     0.021 C 
ENDBRANCH   1  17
TORSDOF 4
ENDMDL
MODEL 2
REMARK VINA RESULT:      -3.6      1.944      4.894
REMARK  4 active torsions:
REMARK  status: ('A' for Active; 'I' for Inactive)
REMARK    1  A    between atoms: N_2  and  C_1 
REMARK    2  A    between atoms: N_11  and  C_6 
REMARK    3  A    between atoms: C_13  and  N_11 
REMARK    4  A    between atoms: O_20  and  C_14 
ROOT
ATOM      1  C   UNL d   1     -42.254-122.623 -49.459  0.00  0.00     0.752 A 
ATOM      2  N   UNL d   1     -41.622-122.529 -49.982  0.00  0.00    -0.040 NA
ATOM      3  C   UNL d   1     -41.753-122.254 -50.745  0.00  0.00     0.182 A 
ATOM      4  N   UNL d   1     -43.020-122.439 -49.708  0.00  0.00    -0.059 NA
ATOM      5  C   UNL d   1     -42.519-122.070 -50.994  0.00  0.00     0.059 A 
ATOM      6  C   UNL d   1     -43.155-122.162 -50.474  0.00  0.00     0.103 A 
ATOM      7  C   UNL d   1     -43.922-121.978 -50.723  0.00  0.00     0.021 C 
ENDROOT
BRANCH   3   8
ATOM      8  N   UNL d   1     -41.123-122.161 -51.265  0.00  0.00    -0.226 NA
BRANCH   8   9
ATOM      9  C   UNL d   1     -41.170-122.450 -52.041  0.00  0.00     0.083 A 
ATOM     10  C   UNL d   1     -41.123-123.269 -52.167  0.00  0.00     0.021 A 
ATOM     11  C   UNL d   1     -41.170-123.555 -52.946  0.00  0.00     0.026 A 
ATOM     12  C   UNL d   1     -41.262-123.036 -53.577  0.00  0.00     0.094 A 
ATOM     13  C   UNL d   1     -41.308-122.223 -53.438  0.00  0.00     0.026 A 
ATOM     14  C   UNL d   1     -41.262-121.927 -52.669  0.00  0.00     0.021 A 
BRANCH  12  15
ATOM     15  O   UNL d   1     -41.309-123.325 -54.340  0.00  0.00    -0.328 OA
ATOM     16  C   UNL d   1     -41.452-122.814 -54.965  0.00  0.00     0.181 C 
ENDBRANCH  12  15
ENDBRANCH   8   9
ENDBRANCH   3   8
BRANCH   1  17
ATOM     17  N   UNL d   1     -42.146-122.871 -48.769  0.00  0.00    -0.058 N 
ATOM     18  N   UNL d   1     -41.525-122.787 -47.630  0.00  0.00    -0.151 NA
ATOM     19  C   UNL d   1     -41.930-123.375 -47.371  0.00  0.00     0.103 A 
ATOM     20  C   UNL d   1     -41.822-123.626 -46.676  0.00  0.00     0.022 C 
ATOM     21  C   UNL d   1     -42.437-123.700 -47.818  0.00  0.00     0.041 A 
ATOM     22  C   UNL d   1     -42.548-123.453 -48.512  0.00  0.00     0.102 A 
ATOM     23  C   UNL d   1     -43.058-123.780 -48.961  0.00  0.00     0.021 C 
ENDBRANCH   1  17
TORSDOF 4
ENDMDL
