MODEL 1
REMARK VINA RESULT:      12.2      0.000      0.000
REMARK  6 active torsions:
REMARK  status: ('A' for Active; 'I' for Inactive)
REMARK    1  A    between atoms: S_12  and  C_5 
REMARK    2  A    between atoms: C_16  and  C_6 
REMARK    3  A    between atoms: C_10  and  C_14 
REMARK    4  A    between atoms: C_19  and  S_12 
REMARK    5  A    between atoms: C_13  and  C_19 
REMARK       I    between atoms: N_15  and  C_13 
REMARK    6  A    between atoms: C_22  and  N_15 
ROOT
ATOM      1  C   UNL d   1      58.192  -8.486  28.853  0.00  0.00     0.186 A 
ATOM      2  C   UNL d   1      58.551  -7.746  28.739  0.00  0.00     0.065 A 
ATOM      3  N   UNL d   1      57.375  -8.564  28.800  0.00  0.00    -0.203 NA
ATOM      4  N   UNL d   1      57.276  -7.161  28.517  0.00  0.00    -0.220 NA
ATOM      5  C   UNL d   1      58.088  -7.095  28.573  0.00  0.00     0.116 A 
ATOM      6  C   UNL d   1      56.913  -7.900  28.631  0.00  0.00     0.165 A 
ATOM      7  O   UNL d   1      58.658  -9.152  29.023  0.00  0.00    -0.289 OA
ATOM      8  C   UNL d   1      59.375  -7.676  28.794  0.00  0.00     0.007 A 
ATOM      9  C   UNL d   1      59.475  -9.087  29.079  0.00  0.00     0.102 A 
ATOM     10  C   UNL d   1      59.836  -8.343  28.964  0.00  0.00     0.023 A 
ATOM     11  C   UNL d   1      59.934  -9.737  29.244  0.00  0.00     0.025 A 
ATOM     12  C   UNL d   1      60.656  -8.276  29.019  0.00  0.00     0.002 A 
ATOM     13  C   UNL d   1      61.113  -8.943  29.188  0.00  0.00     0.000 A 
ATOM     14  C   UNL d   1      60.756  -9.680  29.302  0.00  0.00     0.002 A 
ENDROOT
BRANCH   5  15
ATOM     15  S   UNL d   1      58.455  -6.357  28.459  0.00  0.00    -0.062 SA
BRANCH  15  16
ATOM     16  C   UNL d   1      58.071  -5.671  28.717  0.00  0.00     0.099 C 
BRANCH  16  17
ATOM     17  C   UNL d   1      58.475  -4.957  28.745  0.00  0.00     0.286 C 
ATOM     18  N   UNL d   1      58.078  -4.269  28.949  0.00  0.00    -0.208 NA
ATOM     19  O   UNL d   1      59.279  -4.929  28.570  0.00  0.00    -0.265 OA
BRANCH  18  20
ATOM     20  C   UNL d   1      58.483  -3.552  28.979  0.00  0.00     0.085 A 
ATOM     21  C   UNL d   1      59.127  -3.470  29.477  0.00  0.00     0.019 A 
ATOM     22  C   UNL d   1      59.531  -2.761  29.509  0.00  0.00     0.008 A 
ATOM     23  C   UNL d   1      59.286  -2.124  29.035  0.00  0.00     0.065 A 
ATOM     24  C   UNL d   1      58.640  -2.211  28.537  0.00  0.00     0.008 A 
ATOM     25  C   UNL d   1      58.234  -2.926  28.506  0.00  0.00     0.019 A 
BRANCH  23  26
ATOM     26  C   UNL d   1      59.688  -1.408  29.063  0.00  0.00     0.211 C 
ATOM     27  O   UNL d   1      60.423  -1.342  28.695  0.00  0.00    -0.644 OA
ATOM     28  O   UNL d   1      59.364  -0.761  29.454  0.00  0.00    -0.644 OA
ENDBRANCH  23  26
ENDBRANCH  18  20
ENDBRANCH  16  17
ENDBRANCH  15  16
ENDBRANCH   5  15
BRANCH   6  29
ATOM     29  C   UNL d   1      56.096  -7.978  28.578  0.00  0.00     0.036 A 
ATOM     30  C   UNL d   1      55.752  -8.733  28.593  0.00  0.00     0.003 A 
ATOM     31  C   UNL d   1      54.934  -8.816  28.539  0.00  0.00     0.000 A 
ATOM     32  C   UNL d   1      54.455  -8.146  28.471  0.00  0.00     0.000 A 
ATOM     33  C   UNL d   1      54.792  -7.390  28.456  0.00  0.00     0.000 A 
ATOM     34  C   UNL d   1      55.619  -7.310  28.510  0.00  0.00     0.003 A 
ENDBRANCH   6  29
TORSDOF 6
ENDMDL
