MODEL 1
REMARK VINA RESULT:      -2.4      0.000      0.000
REMARK  4 active torsions:
REMARK  status: ('A' for Active; 'I' for Inactive)
REMARK    1  A    between atoms: N_4  and  C_1 
REMARK    2  A    between atoms: N_2  and  N_4 
REMARK    3  A    between atoms: C_6  and  N_2 
REMARK    4  A    between atoms: C_8  and  C_6 
ROOT
ATOM      1  C   UNL d   1      32.302  17.362 -23.351  0.00  0.00     0.008 A 
ATOM      2  C   UNL d   1      31.817  17.095 -23.960  0.00  0.00     0.021 A 
ATOM      3  C   UNL d   1      32.708  18.094 -23.430  0.00  0.00     0.035 A 
ATOM      4 BR   UNL d   1      33.203  18.367 -22.809  0.00  0.00    -0.049 Br
ATOM      5  C   UNL d   1      32.132  18.272 -24.727  0.00  0.00     0.001 A 
ATOM      6  C   UNL d   1      32.617  18.539 -24.118  0.00  0.00     0.007 A 
ATOM      7  C   UNL d   1      31.732  17.542 -24.640  0.00  0.00     0.002 A 
ENDROOT
BRANCH   2   8
ATOM      8  C   UNL d   1      31.404  16.361 -23.892  0.00  0.00     0.122 C 
BRANCH   8   9
ATOM      9  N   UNL d   1      30.616  16.337 -23.594  0.00  0.00    -0.144 NA
BRANCH   9  10
ATOM     10  N   UNL d   1      30.196  15.620 -23.576  0.00  0.00    -0.115 NA
BRANCH  10  11
ATOM     11  C   UNL d   1      29.475  15.577 -23.208  0.00  0.00     0.260 C 
ATOM     12  S   UNL d   1      28.760  15.661 -23.649  0.00  0.00    -0.034 SA
ATOM     13  N   UNL d   1      29.427  15.453 -22.408  0.00  0.00    -0.113 N 
ENDBRANCH  10  11
ENDBRANCH   9  10
ENDBRANCH   8   9
ENDBRANCH   2   8
TORSDOF 4
ENDMDL
MODEL 2
REMARK VINA RESULT:      -2.4      2.608      3.564
REMARK  4 active torsions:
REMARK  status: ('A' for Active; 'I' for Inactive)
REMARK    1  A    between atoms: N_4  and  C_1 
REMARK    2  A    between atoms: N_2  and  N_4 
REMARK    3  A    between atoms: C_6  and  N_2 
REMARK    4  A    between atoms: C_8  and  C_6 
ROOT
ATOM      1  C   UNL d   1      30.202  16.259 -23.769  0.00  0.00     0.008 A 
ATOM      2  C   UNL d   1      30.433  16.894 -24.239  0.00  0.00     0.021 A 
ATOM      3  C   UNL d   1      29.384  16.100 -23.652  0.00  0.00     0.035 A 
ATOM      4 BR   UNL d   1      29.149  15.453 -23.173  0.00  0.00    -0.049 Br
ATOM      5  C   UNL d   1      29.051  17.217 -24.481  0.00  0.00     0.001 A 
ATOM      6  C   UNL d   1      28.820  16.582 -24.011  0.00  0.00     0.007 A 
ATOM      7  C   UNL d   1      29.866  17.368 -24.591  0.00  0.00     0.002 A 
ENDROOT
BRANCH   2   8
ATOM      8  C   UNL d   1      31.251  17.064 -24.363  0.00  0.00     0.122 C 
BRANCH   8   9
ATOM      9  N   UNL d   1      31.633  17.679 -23.931  0.00  0.00    -0.144 NA
BRANCH   9  10
ATOM     10  N   UNL d   1      32.455  17.788 -23.996  0.00  0.00    -0.115 NA
BRANCH  10  11
ATOM     11  C   UNL d   1      32.816  18.407 -23.617  0.00  0.00     0.260 C 
ATOM     12  S   UNL d   1      33.157  19.042 -24.056  0.00  0.00    -0.034 SA
ATOM     13  N   UNL d   1      32.856  18.428 -22.807  0.00  0.00    -0.113 N 
ENDBRANCH  10  11
ENDBRANCH   9  10
ENDBRANCH   8   9
ENDBRANCH   2   8
TORSDOF 4
ENDMDL
MODEL 3
REMARK VINA RESULT:      -2.4      4.048      4.868
REMARK  4 active torsions:
REMARK  status: ('A' for Active; 'I' for Inactive)
REMARK    1  A    between atoms: N_4  and  C_1 
REMARK    2  A    between atoms: N_2  and  N_4 
REMARK    3  A    between atoms: C_6  and  N_2 
REMARK    4  A    between atoms: C_8  and  C_6 
ROOT
ATOM      1  C   UNL d   1      33.057  21.797 -21.938  0.00  0.00     0.008 A 
ATOM      2  C   UNL d   1      32.903  21.088 -21.550  0.00  0.00     0.021 A 
ATOM      3  C   UNL d   1      32.715  22.512 -21.655  0.00  0.00     0.035 A 
ATOM      4 BR   UNL d   1      32.872  23.236 -22.050  0.00  0.00    -0.049 Br
ATOM      5  C   UNL d   1      32.074  21.786 -20.602  0.00  0.00     0.001 A 
ATOM      6  C   UNL d   1      32.228  22.495 -20.990  0.00  0.00     0.007 A 
ATOM      7  C   UNL d   1      32.418  21.080 -20.891  0.00  0.00     0.002 A 
ENDROOT
BRANCH   2   8
ATOM      8  C   UNL d   1      33.241  20.365 -21.825  0.00  0.00     0.122 C 
BRANCH   8   9
ATOM      9  N   UNL d   1      32.854  19.907 -22.418  0.00  0.00    -0.144 NA
BRANCH   9  10
ATOM     10  N   UNL d   1      33.079  19.118 -22.552  0.00  0.00    -0.115 NA
BRANCH  10  11
ATOM     11  C   UNL d   1      32.861  18.741 -23.236  0.00  0.00     0.260 C 
ATOM     12  S   UNL d   1      32.583  17.944 -23.218  0.00  0.00    -0.034 SA
ATOM     13  N   UNL d   1      32.905  19.123 -23.949  0.00  0.00    -0.113 N 
ENDBRANCH  10  11
ENDBRANCH   9  10
ENDBRANCH   8   9
ENDBRANCH   2   8
TORSDOF 4
ENDMDL
MODEL 4
REMARK VINA RESULT:      -2.3      1.025      1.305
REMARK  4 active torsions:
REMARK  status: ('A' for Active; 'I' for Inactive)
REMARK    1  A    between atoms: N_4  and  C_1 
REMARK    2  A    between atoms: N_2  and  N_4 
REMARK    3  A    between atoms: C_6  and  N_2 
REMARK    4  A    between atoms: C_8  and  C_6 
ROOT
ATOM      1  C   UNL d   1      31.822  17.767 -23.878  0.00  0.00     0.008 A 
ATOM      2  C   UNL d   1      31.571  16.996 -24.020  0.00  0.00     0.021 A 
ATOM      3  C   UNL d   1      32.550  17.905 -23.480  0.00  0.00     0.035 A 
ATOM      4 BR   UNL d   1      32.806  18.691 -23.336  0.00  0.00    -0.049 Br
ATOM      5  C   UNL d   1      32.757  16.493 -23.377  0.00  0.00     0.001 A 
ATOM      6  C   UNL d   1      33.008  17.264 -23.235  0.00  0.00     0.007 A 
ATOM      7  C   UNL d   1      32.032  16.366 -23.773  0.00  0.00     0.002 A 
ENDROOT
BRANCH   2   8
ATOM      8  C   UNL d   1      30.842  16.846 -24.418  0.00  0.00     0.122 C 
BRANCH   8   9
ATOM      9  N   UNL d   1      30.140  16.681 -23.982  0.00  0.00    -0.144 NA
BRANCH   9  10
ATOM     10  N   UNL d   1      29.429  16.515 -24.380  0.00  0.00    -0.115 NA
BRANCH  10  11
ATOM     11  C   UNL d   1      28.743  16.403 -23.962  0.00  0.00     0.260 C 
ATOM     12  S   UNL d   1      28.451  15.625 -23.813  0.00  0.00    -0.034 SA
ATOM     13  N   UNL d   1      28.324  17.038 -23.680  0.00  0.00    -0.113 N 
ENDBRANCH  10  11
ENDBRANCH   9  10
ENDBRANCH   8   9
ENDBRANCH   2   8
TORSDOF 4
ENDMDL
MODEL 5
REMARK VINA RESULT:      -2.3      3.621      4.278
REMARK  4 active torsions:
REMARK  status: ('A' for Active; 'I' for Inactive)
REMARK    1  A    between atoms: N_4  and  C_1 
REMARK    2  A    between atoms: N_2  and  N_4 
REMARK    3  A    between atoms: C_6  and  N_2 
REMARK    4  A    between atoms: C_8  and  C_6 
ROOT
ATOM      1  C   UNL d   1      32.476  18.338 -23.236  0.00  0.00     0.008 A 
ATOM      2  C   UNL d   1      32.973  18.993 -23.192  0.00  0.00     0.021 A 
ATOM      3  C   UNL d   1      32.244  18.038 -23.987  0.00  0.00     0.035 A 
ATOM      4 BR   UNL d   1      31.737  17.371 -24.032  0.00  0.00    -0.049 Br
ATOM      5  C   UNL d   1      33.016  19.057 -24.630  0.00  0.00     0.001 A 
ATOM      6  C   UNL d   1      32.519  18.402 -24.674  0.00  0.00     0.007 A 
ATOM      7  C   UNL d   1      33.241  19.348 -23.879  0.00  0.00     0.002 A 
ENDROOT
BRANCH   2   8
ATOM      8  C   UNL d   1      33.212  19.303 -22.444  0.00  0.00     0.122 C 
BRANCH   8   9
ATOM      9  N   UNL d   1      32.828  19.978 -22.116  0.00  0.00    -0.144 NA
BRANCH   9  10
ATOM     10  N   UNL d   1      33.148  20.359 -21.450  0.00  0.00    -0.115 NA
BRANCH  10  11
ATOM     11  C   UNL d   1      32.787  21.018 -21.143  0.00  0.00     0.260 C 
ATOM     12  S   UNL d   1      33.241  21.692 -20.916  0.00  0.00    -0.034 SA
ATOM     13  N   UNL d   1      31.982  21.040 -21.049  0.00  0.00    -0.113 N 
ENDBRANCH  10  11
ENDBRANCH   9  10
ENDBRANCH   8   9
ENDBRANCH   2   8
TORSDOF 4
ENDMDL
MODEL 6
REMARK VINA RESULT:      -2.0      5.078      5.816
REMARK  4 active torsions:
REMARK  status: ('A' for Active; 'I' for Inactive)
REMARK    1  A    between atoms: N_4  and  C_1 
REMARK    2  A    between atoms: N_2  and  N_4 
REMARK    3  A    between atoms: C_6  and  N_2 
REMARK    4  A    between atoms: C_8  and  C_6 
ROOT
ATOM      1  C   UNL d   1      32.576  22.273 -20.192  0.00  0.00     0.008 A 
ATOM      2  C   UNL d   1      32.512  21.999 -20.965  0.00  0.00     0.021 A 
ATOM      3  C   UNL d   1      32.645  23.099 -20.045  0.00  0.00     0.035 A 
ATOM      4 BR   UNL d   1      32.710  23.379 -19.256  0.00  0.00    -0.049 Br
ATOM      5  C   UNL d   1      32.585  23.352 -21.451  0.00  0.00     0.001 A 
ATOM      6  C   UNL d   1      32.648  23.627 -20.678  0.00  0.00     0.007 A 
ATOM      7  C   UNL d   1      32.517  22.530 -21.588  0.00  0.00     0.002 A 
ENDROOT
BRANCH   2   8
ATOM      8  C   UNL d   1      32.443  21.173 -21.124  0.00  0.00     0.122 C 
BRANCH   8   9
ATOM      9  N   UNL d   1      32.876  20.818 -21.754  0.00  0.00    -0.144 NA
BRANCH   9  10
ATOM     10  N   UNL d   1      32.950  19.991 -21.799  0.00  0.00    -0.115 NA
BRANCH  10  11
ATOM     11  C   UNL d   1      33.141  19.635 -22.502  0.00  0.00     0.260 C 
ATOM     12  S   UNL d   1      33.240  18.797 -22.548  0.00  0.00    -0.034 SA
ATOM     13  N   UNL d   1      33.241  20.077 -23.174  0.00  0.00    -0.113 N 
ENDBRANCH  10  11
ENDBRANCH   9  10
ENDBRANCH   8   9
ENDBRANCH   2   8
TORSDOF 4
ENDMDL
MODEL 7
REMARK VINA RESULT:      -0.8      2.540      3.934
REMARK  4 active torsions:
REMARK  status: ('A' for Active; 'I' for Inactive)
REMARK    1  A    between atoms: N_4  and  C_1 
REMARK    2  A    between atoms: N_2  and  N_4 
REMARK    3  A    between atoms: C_6  and  N_2 
REMARK    4  A    between atoms: C_8  and  C_6 
ROOT
ATOM      1  C   UNL d   1      28.605  17.112 -23.997  0.00  0.00     0.008 A 
ATOM      2  C   UNL d   1      29.203  16.676 -24.359  0.00  0.00     0.021 A 
ATOM      3  C   UNL d   1      28.048  16.726 -23.499  0.00  0.00     0.035 A 
ATOM      4 BR   UNL d   1      27.439  17.170 -23.131  0.00  0.00    -0.049 Br
ATOM      5  C   UNL d   1      28.703  15.477 -23.738  0.00  0.00     0.001 A 
ATOM      6  C   UNL d   1      28.105  15.913 -23.377  0.00  0.00     0.007 A 
ATOM      7  C   UNL d   1      29.252  15.868 -24.231  0.00  0.00     0.002 A 
ENDROOT
BRANCH   2   8
ATOM      8  C   UNL d   1      29.768  17.052 -24.861  0.00  0.00     0.122 C 
BRANCH   8   9
ATOM      9  N   UNL d   1      30.526  17.272 -24.566  0.00  0.00    -0.144 NA
BRANCH   9  10
ATOM     10  N   UNL d   1      31.170  17.354 -25.085  0.00  0.00    -0.115 NA
BRANCH  10  11
ATOM     11  C   UNL d   1      31.848  17.725 -24.840  0.00  0.00     0.260 C 
ATOM     12  S   UNL d   1      32.533  17.277 -24.631  0.00  0.00    -0.034 SA
ATOM     13  N   UNL d   1      31.882  18.533 -24.792  0.00  0.00    -0.113 N 
ENDBRANCH  10  11
ENDBRANCH   9  10
ENDBRANCH   8   9
ENDBRANCH   2   8
TORSDOF 4
ENDMDL
MODEL 8
REMARK VINA RESULT:      -0.7      7.884      8.645
REMARK  4 active torsions:
REMARK  status: ('A' for Active; 'I' for Inactive)
REMARK    1  A    between atoms: N_4  and  C_1 
REMARK    2  A    between atoms: N_2  and  N_4 
REMARK    3  A    between atoms: C_6  and  N_2 
REMARK    4  A    between atoms: C_8  and  C_6 
ROOT
ATOM      1  C   UNL d   1      33.235  22.799 -17.161  0.00  0.00     0.008 A 
ATOM      2  C   UNL d   1      32.893  23.243 -17.763  0.00  0.00     0.021 A 
ATOM      3  C   UNL d   1      32.891  22.799 -16.392  0.00  0.00     0.035 A 
ATOM      4 BR   UNL d   1      33.241  22.346 -15.778  0.00  0.00    -0.049 Br
ATOM      5  C   UNL d   1      31.870  23.688 -16.852  0.00  0.00     0.001 A 
ATOM      6  C   UNL d   1      32.212  23.244 -16.250  0.00  0.00     0.007 A 
ATOM      7  C   UNL d   1      32.218  23.683 -17.612  0.00  0.00     0.002 A 
ENDROOT
BRANCH   2   8
ATOM      8  C   UNL d   1      33.229  23.251 -18.537  0.00  0.00     0.122 C 
BRANCH   8   9
ATOM      9  N   UNL d   1      32.765  23.044 -19.210  0.00  0.00    -0.144 NA
BRANCH   9  10
ATOM     10  N   UNL d   1      33.122  22.961 -19.956  0.00  0.00    -0.115 NA
BRANCH  10  11
ATOM     11  C   UNL d   1      32.682  22.729 -20.596  0.00  0.00     0.260 C 
ATOM     12  S   UNL d   1      32.548  21.910 -20.753  0.00  0.00    -0.034 SA
ATOM     13  N   UNL d   1      32.363  23.279 -21.099  0.00  0.00    -0.113 N 
ENDBRANCH  10  11
ENDBRANCH   9  10
ENDBRANCH   8   9
ENDBRANCH   2   8
TORSDOF 4
ENDMDL
