MODEL 1
REMARK VINA RESULT:      -5.8      0.000      0.000
REMARK  3 active torsions:
REMARK  status: ('A' for Active; 'I' for Inactive)
REMARK    1  A    between atoms: CB_6  and  CG_1 
REMARK    2  A    between atoms: C_5  and  CA_8 
REMARK    3  A    between atoms: CA_8  and  CB_6 
ROOT
ATOM      1  CG  TRP d   1     -41.406-122.707 -53.250  0.00  0.00     0.022 A 
ATOM      2  NE1 TRP d   1     -41.301-123.817 -52.528  0.00  0.00    -0.244 NA
ATOM      3  CD1 TRP d   1     -41.396-123.517 -53.290  0.00  0.00     0.099 A 
ATOM      4  CD2 TRP d   1     -41.315-122.487 -52.455  0.00  0.00     0.019 A 
ATOM      5  CE2 TRP d   1     -41.250-123.177 -52.011  0.00  0.00     0.081 A 
ATOM      6  CE3 TRP d   1     -41.284-121.749 -52.081  0.00  0.00     0.002 A 
ATOM      7  CZ2 TRP d   1     -41.154-123.133 -51.192  0.00  0.00     0.019 A 
ATOM      8  CZ3 TRP d   1     -41.188-121.704 -51.266  0.00  0.00     0.000 A 
ATOM      9  CH2 TRP d   1     -41.123-122.394 -50.819  0.00  0.00     0.002 A 
ENDROOT
BRANCH   1  10
ATOM     10  CB  TRP d   1     -41.492-122.201 -53.900  0.00  0.00     0.029 C 
BRANCH  10  11
ATOM     11  CA  TRP d   1     -41.865-122.468 -54.575  0.00  0.00     0.167 C 
ATOM     12  N   TRP d   1     -41.839-123.269 -54.771  0.00  0.00    -0.142 N 
BRANCH  11  13
ATOM     13  C   TRP d   1     -42.264-121.935 -55.058  0.00  0.00     0.231 C 
ATOM     14  O   TRP d   1     -43.071-121.842 -54.985  0.00  0.00    -0.643 OA
ATOM     15  OXT TRP d   1     -41.844-121.497 -55.615  0.00  0.00    -0.643 OA
ENDBRANCH  11  13
ENDBRANCH  10  11
ENDBRANCH   1  10
TORSDOF 3
ENDMDL
MODEL 2
REMARK VINA RESULT:      -4.8      2.292      3.567
REMARK  3 active torsions:
REMARK  status: ('A' for Active; 'I' for Inactive)
REMARK    1  A    between atoms: CB_6  and  CG_1 
REMARK    2  A    between atoms: C_5  and  CA_8 
REMARK    3  A    between atoms: CA_8  and  CB_6 
ROOT
ATOM      1  CG  TRP d   1     -41.233-122.774 -52.139  0.00  0.00     0.022 A 
ATOM      2  NE1 TRP d   1     -41.226-121.675 -52.887  0.00  0.00    -0.244 NA
ATOM      3  CD1 TRP d   1     -41.220-121.963 -52.115  0.00  0.00     0.099 A 
ATOM      4  CD2 TRP d   1     -41.248-123.007 -52.936  0.00  0.00     0.019 A 
ATOM      5  CE2 TRP d   1     -41.243-122.325 -53.396  0.00  0.00     0.081 A 
ATOM      6  CE3 TRP d   1     -41.264-123.751 -53.298  0.00  0.00     0.002 A 
ATOM      7  CZ2 TRP d   1     -41.256-122.382 -54.219  0.00  0.00     0.019 A 
ATOM      8  CZ3 TRP d   1     -41.277-123.809 -54.118  0.00  0.00     0.000 A 
ATOM      9  CH2 TRP d   1     -41.272-123.127 -54.581  0.00  0.00     0.002 A 
ENDROOT
BRANCH   1  10
ATOM     10  CB  TRP d   1     -41.232-123.269 -51.475  0.00  0.00     0.029 C 
BRANCH  10  11
ATOM     11  CA  TRP d   1     -41.549-123.004 -50.771  0.00  0.00     0.167 C 
ATOM     12  N   TRP d   1     -41.640-122.195 -50.639  0.00  0.00    -0.142 N 
BRANCH  11  13
ATOM     13  C   TRP d   1     -41.777-123.546 -50.197  0.00  0.00     0.231 C 
ATOM     14  O   TRP d   1     -42.546-123.817 -50.170  0.00  0.00    -0.643 OA
ATOM     15  OXT TRP d   1     -41.223-123.815 -49.650  0.00  0.00    -0.643 OA
ENDBRANCH  11  13
ENDBRANCH  10  11
ENDBRANCH   1  10
TORSDOF 3
ENDMDL
MODEL 3
REMARK VINA RESULT:      -4.3      2.226      3.108
REMARK  3 active torsions:
REMARK  status: ('A' for Active; 'I' for Inactive)
REMARK    1  A    between atoms: CB_6  and  CG_1 
REMARK    2  A    between atoms: C_5  and  CA_8 
REMARK    3  A    between atoms: CA_8  and  CB_6 
ROOT
ATOM      1  CG  TRP d   1     -41.838-122.765 -50.505  0.00  0.00     0.022 A 
ATOM      2  NE1 TRP d   1     -42.917-122.334 -49.860  0.00  0.00    -0.244 NA
ATOM      3  CD1 TRP d   1     -42.507-122.312 -50.574  0.00  0.00     0.099 A 
ATOM      4  CD2 TRP d   1     -41.820-123.080 -49.737  0.00  0.00     0.019 A 
ATOM      5  CE2 TRP d   1     -42.489-122.812 -49.340  0.00  0.00     0.081 A 
ATOM      6  CE3 TRP d   1     -41.281-123.576 -49.351  0.00  0.00     0.002 A 
ATOM      7  CZ2 TRP d   1     -42.623-123.037 -48.558  0.00  0.00     0.019 A 
ATOM      8  CZ3 TRP d   1     -41.413-123.801 -48.572  0.00  0.00     0.000 A 
ATOM      9  CH2 TRP d   1     -42.083-123.533 -48.172  0.00  0.00     0.002 A 
ENDROOT
BRANCH   1  10
ATOM     10  CB  TRP d   1     -41.280-122.882 -51.104  0.00  0.00     0.029 C 
BRANCH  10  11
ATOM     11  CA  TRP d   1     -41.236-122.356 -51.727  0.00  0.00     0.167 C 
ATOM     12  N   TRP d   1     -41.265-121.544 -51.582  0.00  0.00    -0.142 N 
BRANCH  11  13
ATOM     13  C   TRP d   1     -41.164-122.638 -52.495  0.00  0.00     0.231 C 
ATOM     14  O   TRP d   1     -41.132-123.441 -52.636  0.00  0.00    -0.643 OA
ATOM     15  OXT TRP d   1     -41.123-122.105 -53.122  0.00  0.00    -0.643 OA
ENDBRANCH  11  13
ENDBRANCH  10  11
ENDBRANCH   1  10
TORSDOF 3
ENDMDL
