MODEL 1
REMARK VINA RESULT:      -2.9      0.000      0.000
REMARK  7 active torsions:
REMARK  status: ('A' for Active; 'I' for Inactive)
REMARK    1  A    between atoms: N_2  and  S_1 
REMARK    2  A    between atoms: C_6  and  S_1 
REMARK    3  A    between atoms: C_16  and  C_3 
REMARK       I    between atoms: C_4  and  N_10 
REMARK    4  A    between atoms: C_5  and  C_4 
REMARK       I    between atoms: N_11  and  C_5 
REMARK    5  A    between atoms: N_10  and  C_16 
REMARK    6  A    between atoms: C_26  and  N_11 
REMARK    7  A    between atoms: C_25  and  C_26 
ROOT
ATOM      1  C   UNL d   1      32.259  18.797 -23.287  0.00  0.00     0.337 C 
ATOM      2  N   UNL d   1      32.581  18.085 -23.529  0.00  0.00    -0.199 NA
ATOM      3  O   UNL d   1      31.446  18.877 -23.181  0.00  0.00    -0.260 OA
ENDROOT
BRANCH   2   4
ATOM      4  C   UNL d   1      32.089  17.442 -23.670  0.00  0.00     0.146 C 
BRANCH   4   5
ATOM      5  C   UNL d   1      32.386  16.754 -24.012  0.00  0.00     0.197 A 
ATOM      6  N   UNL d   1      31.953  16.087 -24.197  0.00  0.00    -0.207 N 
ATOM      7  C   UNL d   1      32.476  15.537 -24.529  0.00  0.00     0.120 A 
ATOM      8  C   UNL d   1      33.235  15.873 -24.546  0.00  0.00     0.144 A 
ATOM      9  O   UNL d   1      33.173  16.638 -24.220  0.00  0.00    -0.285 OA
BRANCH   6  10
ATOM     10  S   UNL d   1      31.150  15.977 -24.079  0.00  0.00     0.273 S 
ATOM     11  O   UNL d   1      31.008  16.155 -24.866  0.00  0.00    -0.200 OA
ATOM     12  O   UNL d   1      31.290  15.799 -23.292  0.00  0.00    -0.200 OA
BRANCH  10  13
ATOM     13  C   UNL d   1      30.346  15.866 -23.960  0.00  0.00     0.104 A 
ATOM     14  C   UNL d   1      30.070  15.575 -23.228  0.00  0.00     0.013 A 
ATOM     15  C   UNL d   1      29.266  15.464 -23.108  0.00  0.00     0.007 A 
ATOM     16  C   UNL d   1      28.726  15.642 -23.716  0.00  0.00     0.035 A 
ATOM     17  C   UNL d   1      29.005  15.930 -24.438  0.00  0.00     0.007 A 
ATOM     18 BR   UNL d   1      27.919  15.533 -23.600  0.00  0.00    -0.049 Br
ATOM     19  C   UNL d   1      29.808  16.041 -24.557  0.00  0.00     0.013 A 
ENDBRANCH  10  13
ENDBRANCH   6  10
ENDBRANCH   4   5
ENDBRANCH   2   4
BRANCH   1  20
ATOM     20  C   UNL d   1      32.751  19.440 -23.146  0.00  0.00     0.337 C 
ATOM     21  N   UNL d   1      32.742  19.794 -22.406  0.00  0.00    -0.202 NA
ATOM     22  O   UNL d   1      33.241  19.721 -23.742  0.00  0.00    -0.260 OA
BRANCH  21  23
ATOM     23  C   UNL d   1      33.240  20.447 -22.259  0.00  0.00     0.102 C 
BRANCH  23  24
ATOM     24  C   UNL d   1      33.054  20.983 -21.658  0.00  0.00     0.021 A 
ATOM     25  C   UNL d   1      32.820  21.744 -21.858  0.00  0.00     0.028 A 
ATOM     26  C   UNL d   1      32.634  22.281 -21.252  0.00  0.00     0.119 A 
ATOM     27  O   UNL d   1      32.387  23.068 -21.283  0.00  0.00    -0.300 OA
ATOM     28  C   UNL d   1      32.684  22.054 -20.458  0.00  0.00     0.119 A 
ATOM     29  C   UNL d   1      32.283  23.328 -20.493  0.00  0.00     0.304 A 
ATOM     30  O   UNL d   1      32.470  22.692 -20.002  0.00  0.00    -0.300 OA
ATOM     31  C   UNL d   1      32.921  21.285 -20.274  0.00  0.00     0.026 A 
ATOM     32  C   UNL d   1      33.106  20.751 -20.867  0.00  0.00     0.004 A 
ENDBRANCH  23  24
ENDBRANCH  21  23
ENDBRANCH   1  20
TORSDOF 7
ENDMDL
