MODEL 1
REMARK VINA RESULT:      -2.8      0.000      0.000
REMARK  4 active torsions:
REMARK  status: ('A' for Active; 'I' for Inactive)
REMARK    1  A    between atoms: C_2  and  C_1 
REMARK    2  A    between atoms: C_16  and  C_4 
REMARK    3  A    between atoms: C_28  and  C_15 
REMARK    4  A    between atoms: N_17  and  C_16 
ROOT
ATOM      1  C   UNL d   1      57.472  -0.339  31.204  0.00  0.00     0.098 A 
ATOM      2  C   UNL d   1      58.944  -0.768  29.251  0.00  0.00     0.079 A 
ATOM      3  C   UNL d   1      58.662  -0.047  30.451  0.00  0.00     0.062 A 
ATOM      4  C   UNL d   1      58.178   0.100  31.102  0.00  0.00     0.202 A 
ATOM      5  C   UNL d   1      58.460  -0.629  29.890  0.00  0.00     0.108 A 
ATOM      6  C   UNL d   1      57.270  -0.921  30.643  0.00  0.00     0.129 A 
ATOM      7  O   UNL d   1      57.762  -1.070  29.984  0.00  0.00    -0.305 OA
ATOM      8  C   UNL d   1      59.636  -0.334  29.154  0.00  0.00     0.199 A 
ATOM      9  C   UNL d   1      59.356   0.389  30.357  0.00  0.00     0.008 A 
ATOM     10  C   UNL d   1      59.836   0.241  29.708  0.00  0.00     0.039 A 
ATOM     11  O   UNL d   1      58.381   0.673  31.651  0.00  0.00    -0.286 OA
ATOM     12  O   UNL d   1      60.127  -0.470  28.511  0.00  0.00    -0.286 OA
ENDROOT
BRANCH   1  13
ATOM     13  C   UNL d   1      56.984  -0.196  31.854  0.00  0.00     0.153 A 
ATOM     14  N   UNL d   1      57.089  -0.501  32.618  0.00  0.00    -0.227 NA
ATOM     15  C   UNL d   1      56.471  -0.213  33.090  0.00  0.00     0.099 A 
ATOM     16  C   UNL d   1      56.296  -0.332  33.880  0.00  0.00     0.021 A 
ATOM     17  C   UNL d   1      55.994   0.259  32.627  0.00  0.00     0.083 A 
ATOM     18  C   UNL d   1      55.633   0.029  34.212  0.00  0.00     0.002 A 
ATOM     19  C   UNL d   1      55.153   0.504  33.749  0.00  0.00     0.002 A 
ATOM     20  C   UNL d   1      55.334   0.622  32.943  0.00  0.00     0.019 A 
ATOM     21  N   UNL d   1      56.310   0.274  31.851  0.00  0.00    -0.288 N 
ATOM     22  C   UNL d   1      56.008   0.682  31.200  0.00  0.00     0.101 C 
ENDBRANCH   1  13
BRANCH  10  23
ATOM     23  C   UNL d   1      60.537   0.680  29.609  0.00  0.00     0.003 C 
ATOM     24  C   UNL d   1      61.118   0.681  30.199  0.00  0.00     0.000 C 
ENDBRANCH  10  23
BRANCH   2  25
ATOM     25  C   UNL d   1      58.744  -1.342  28.697  0.00  0.00     0.086 C 
BRANCH  25  26
ATOM     26  N   UNL d   1      59.085  -2.084  28.735  0.00  0.00    -0.300 N 
ATOM     27  C   UNL d   1      59.914  -2.162  28.762  0.00  0.00     0.100 A 
ATOM     28  C   UNL d   1      60.252  -2.928  28.801  0.00  0.00     0.100 A 
ATOM     29  N   UNL d   1      59.773  -3.596  28.811  0.00  0.00    -0.299 N 
ATOM     30  C   UNL d   1      58.945  -3.509  28.784  0.00  0.00     0.100 A 
ATOM     31  C   UNL d   1      60.112  -4.352  28.850  0.00  0.00     0.100 C 
ATOM     32  C   UNL d   1      58.605  -2.758  28.746  0.00  0.00     0.100 A 
ENDBRANCH  25  26
ENDBRANCH   2  25
TORSDOF 4
ENDMDL
