MODEL 1
REMARK VINA RESULT:       0.1      0.000      0.000
REMARK  5 active torsions:
REMARK  status: ('A' for Active; 'I' for Inactive)
REMARK    1  A    between atoms: C_10  and  N_1 
REMARK    2  A    between atoms: C_7  and  C_2 
REMARK    3  A    between atoms: C_3  and  C_11 
REMARK    4  A    between atoms: O_14  and  C_10 
REMARK    5  A    between atoms: C_11  and  O_14 
ROOT
ATOM      1  C   UNL d   1      32.726  18.941 -23.301  0.00  0.00     0.305 C 
ATOM      2  O   UNL d   1      33.225  18.582 -22.744  0.00  0.00    -0.259 OA
ENDROOT
BRANCH   1   3
ATOM      3  C   UNL d   1      32.903  19.689 -23.592  0.00  0.00     0.108 A 
ATOM      4  C   UNL d   1      32.903  20.395 -23.158  0.00  0.00     0.118 A 
ATOM      5  N   UNL d   1      33.110  21.011 -23.657  0.00  0.00    -0.126 NA
ATOM      6  O   UNL d   1      33.241  20.680 -24.410  0.00  0.00    -0.211 OA
ATOM      7  C   UNL d   1      33.112  19.868 -24.364  0.00  0.00     0.132 A 
ATOM      8  C   UNL d   1      33.182  19.338 -24.982  0.00  0.00     0.029 C 
BRANCH   4   9
ATOM      9  C   UNL d   1      32.724  20.472 -22.356  0.00  0.00     0.058 A 
ATOM     10  C   UNL d   1      32.903  19.866 -21.833  0.00  0.00     0.061 A 
ATOM     11 CL   UNL d   1      33.240  19.071 -21.712  0.00  0.00    -0.082 Cl
ATOM     12  C   UNL d   1      32.728  19.937 -21.036  0.00  0.00     0.012 A 
ATOM     13  C   UNL d   1      32.368  20.623 -20.761  0.00  0.00     0.003 A 
ATOM     14  C   UNL d   1      32.182  21.246 -21.289  0.00  0.00     0.030 A 
ATOM     15  C   UNL d   1      32.362  21.162 -22.079  0.00  0.00     0.142 A 
ATOM     16  F   UNL d   1      32.186  21.765 -22.610  0.00  0.00    -0.204 F 
ENDBRANCH   4   9
ENDBRANCH   1   3
BRANCH   1  17
ATOM     17  O   UNL d   1      32.046  18.542 -23.565  0.00  0.00    -0.252 OA
BRANCH  17  18
ATOM     18  C   UNL d   1      32.058  17.716 -23.642  0.00  0.00     0.216 C 
BRANCH  18  19
ATOM     19  N   UNL d   1      31.389  17.320 -23.929  0.00  0.00    -0.218 N 
ATOM     20  C   UNL d   1      30.609  17.539 -23.808  0.00  0.00     0.269 A 
ATOM     21  C   UNL d   1      30.121  16.994 -24.190  0.00  0.00     0.061 A 
ATOM     22  O   UNL d   1      30.351  18.200 -23.373  0.00  0.00    -0.267 OA
ATOM     23  C   UNL d   1      29.300  16.932 -24.259  0.00  0.00     0.005 A 
ATOM     24  C   UNL d   1      30.612  16.428 -24.553  0.00  0.00     0.061 A 
ATOM     25  C   UNL d   1      28.970  16.312 -24.686  0.00  0.00     0.000 A 
ATOM     26  C   UNL d   1      29.460  15.747 -25.049  0.00  0.00     0.000 A 
ATOM     27  C   UNL d   1      30.277  15.806 -24.982  0.00  0.00     0.005 A 
ATOM     28  C   UNL d   1      31.402  16.626 -24.395  0.00  0.00     0.269 A 
ATOM     29  O   UNL d   1      32.069  16.220 -24.645  0.00  0.00    -0.267 OA
ENDBRANCH  18  19
ENDBRANCH  17  18
ENDBRANCH   1  17
TORSDOF 5
ENDMDL
MODEL 2
REMARK VINA RESULT:       1.4      2.218      3.335
REMARK  5 active torsions:
REMARK  status: ('A' for Active; 'I' for Inactive)
REMARK    1  A    between atoms: C_10  and  N_1 
REMARK    2  A    between atoms: C_7  and  C_2 
REMARK    3  A    between atoms: C_3  and  C_11 
REMARK    4  A    between atoms: O_14  and  C_10 
REMARK    5  A    between atoms: C_11  and  O_14 
ROOT
ATOM      1  C   UNL d   1      32.514  21.614 -22.069  0.00  0.00     0.305 C 
ATOM      2  O   UNL d   1      32.422  21.236 -21.336  0.00  0.00    -0.259 OA
ENDROOT
BRANCH   1   3
ATOM      3  C   UNL d   1      32.335  22.412 -22.147  0.00  0.00     0.108 A 
ATOM      4  C   UNL d   1      32.143  22.933 -21.532  0.00  0.00     0.118 A 
ATOM      5  N   UNL d   1      32.004  23.675 -21.849  0.00  0.00    -0.126 NA
ATOM      6  O   UNL d   1      32.111  23.612 -22.673  0.00  0.00    -0.211 OA
ATOM      7  C   UNL d   1      32.313  22.834 -22.850  0.00  0.00     0.132 A 
ATOM      8  C   UNL d   1      32.466  22.539 -23.597  0.00  0.00     0.029 C 
BRANCH   4   9
ATOM      9  C   UNL d   1      32.099  22.742 -20.731  0.00  0.00     0.058 A 
ATOM     10  C   UNL d   1      32.596  23.108 -20.190  0.00  0.00     0.061 A 
ATOM     11 CL   UNL d   1      33.236  23.683 -20.048  0.00  0.00    -0.082 Cl
ATOM     12  C   UNL d   1      32.557  22.922 -19.393  0.00  0.00     0.012 A 
ATOM     13  C   UNL d   1      32.013  22.362 -19.136  0.00  0.00     0.003 A 
ATOM     14  C   UNL d   1      31.502  21.984 -19.681  0.00  0.00     0.030 A 
ATOM     15  C   UNL d   1      31.552  22.179 -20.471  0.00  0.00     0.142 A 
ATOM     16  F   UNL d   1      31.058  21.816 -21.019  0.00  0.00    -0.204 F 
ENDBRANCH   4   9
ENDBRANCH   1   3
BRANCH   1  17
ATOM     17  O   UNL d   1      32.788  21.182 -22.725  0.00  0.00    -0.252 OA
BRANCH  17  18
ATOM     18  C   UNL d   1      33.225  20.487 -22.608  0.00  0.00     0.216 C 
BRANCH  18  19
ATOM     19  N   UNL d   1      33.099  19.833 -23.100  0.00  0.00    -0.218 N 
ATOM     20  C   UNL d   1      33.104  19.838 -23.920  0.00  0.00     0.269 A 
ATOM     21  C   UNL d   1      32.954  19.071 -24.187  0.00  0.00     0.061 A 
ATOM     22  O   UNL d   1      33.237  20.503 -24.402  0.00  0.00    -0.267 OA
ATOM     23  C   UNL d   1      32.894  18.746 -24.944  0.00  0.00     0.005 A 
ATOM     24  C   UNL d   1      32.855  18.586 -23.518  0.00  0.00     0.061 A 
ATOM     25  C   UNL d   1      32.736  17.945 -25.035  0.00  0.00     0.000 A 
ATOM     26  C   UNL d   1      32.637  17.460 -24.367  0.00  0.00     0.000 A 
ATOM     27  C   UNL d   1      32.697  17.781 -23.612  0.00  0.00     0.005 A 
ATOM     28  C   UNL d   1      32.944  19.055 -22.839  0.00  0.00     0.269 A 
ATOM     29  O   UNL d   1      32.891  18.804 -22.059  0.00  0.00    -0.267 OA
ENDBRANCH  18  19
ENDBRANCH  17  18
ENDBRANCH   1  17
TORSDOF 5
ENDMDL
