MODEL 1
REMARK VINA RESULT:      -7.2      0.000      0.000
REMARK  6 active torsions:
REMARK  status: ('A' for Active; 'I' for Inactive)
REMARK    1  A    between atoms: N_2  and  S_1 
REMARK    2  A    between atoms: C_6  and  S_1 
REMARK    3  A    between atoms: C_3  and  N_10 
REMARK    4  A    between atoms: C_7  and  C_5 
REMARK       I    between atoms: N_10  and  C_7 
REMARK    5  A    between atoms: C_15  and  C_8 
REMARK    6  A    between atoms: O_27  and  C_24 
ROOT
ATOM      1  C   UNL d   1     -48.484  14.397  22.447  0.00  0.00     0.299 C 
ATOM      2  N   UNL d   1     -47.851  14.475  22.972  0.00  0.00    -0.164 NA
ATOM      3  O   UNL d   1     -48.420  13.879  21.809  0.00  0.00    -0.263 OA
ENDROOT
BRANCH   1   4
ATOM      4  C   UNL d   1     -49.167  14.829  22.559  0.00  0.00     0.133 A 
ATOM      5  N   UNL d   1     -49.916  14.516  22.737  0.00  0.00    -0.226 N 
ATOM      6  C   UNL d   1     -50.446  15.157  22.802  0.00  0.00     0.092 A 
ATOM      7  C   UNL d   1     -50.025  15.847  22.665  0.00  0.00     0.021 A 
ATOM      8  C   UNL d   1     -49.237  15.649  22.516  0.00  0.00     0.025 A 
BRANCH   5   9
ATOM      9  S   UNL d   1     -50.103  13.717  22.833  0.00  0.00     0.277 S 
ATOM     10  O   UNL d   1     -50.103  13.598  22.013  0.00  0.00    -0.199 OA
ATOM     11  O   UNL d   1     -50.101  13.842  23.644  0.00  0.00    -0.199 OA
BRANCH   9  12
ATOM     12  C   UNL d   1     -50.288  12.929  22.968  0.00  0.00     0.133 A 
ATOM     13  S   UNL d   1     -50.449  12.585  23.698  0.00  0.00    -0.074 SA
ATOM     14  C   UNL d   1     -50.607  11.783  23.576  0.00  0.00     0.036 A 
ATOM     15  C   UNL d   1     -50.542  11.635  22.765  0.00  0.00     0.008 A 
ATOM     16  C   UNL d   1     -50.346  12.342  22.390  0.00  0.00     0.020 A 
ENDBRANCH   9  12
ENDBRANCH   5   9
ENDBRANCH   1   4
BRANCH   2  17
ATOM     17  C   UNL d   1     -47.159  14.039  22.860  0.00  0.00     0.297 A 
ATOM     18  O   UNL d   1     -47.011  13.289  23.167  0.00  0.00    -0.253 OA
ATOM     19  C   UNL d   1     -46.256  13.056  22.923  0.00  0.00     0.206 A 
ATOM     20  N   UNL d   1     -45.940  13.664  22.465  0.00  0.00    -0.119 NA
ATOM     21  N   UNL d   1     -46.503  14.274  22.427  0.00  0.00    -0.101 NA
BRANCH  19  22
ATOM     22  C   UNL d   1     -45.893  12.351  23.104  0.00  0.00     0.043 A 
ATOM     23  C   UNL d   1     -45.108  12.215  22.890  0.00  0.00     0.006 A 
ATOM     24  C   UNL d   1     -44.746  11.490  23.080  0.00  0.00     0.024 A 
ATOM     25  C   UNL d   1     -45.168  10.911  23.480  0.00  0.00     0.094 A 
ATOM     26  C   UNL d   1     -45.951  11.051  23.693  0.00  0.00     0.024 A 
ATOM     27  C   UNL d   1     -46.314  11.761  23.510  0.00  0.00     0.006 A 
BRANCH  25  28
ATOM     28  O   UNL d   1     -44.810  10.196  23.668  0.00  0.00    -0.328 OA
ATOM     29  C   UNL d   1     -44.196   9.901  23.196  0.00  0.00     0.181 C 
ENDBRANCH  25  28
ENDBRANCH  19  22
ENDBRANCH   2  17
TORSDOF 6
ENDMDL
MODEL 2
REMARK VINA RESULT:      -6.2      1.314      1.626
REMARK  6 active torsions:
REMARK  status: ('A' for Active; 'I' for Inactive)
REMARK    1  A    between atoms: N_2  and  S_1 
REMARK    2  A    between atoms: C_6  and  S_1 
REMARK    3  A    between atoms: C_3  and  N_10 
REMARK    4  A    between atoms: C_7  and  C_5 
REMARK       I    between atoms: N_10  and  C_7 
REMARK    5  A    between atoms: C_15  and  C_8 
REMARK    6  A    between atoms: O_27  and  C_24 
ROOT
ATOM      1  C   UNL d   1     -48.143  14.156  22.633  0.00  0.00     0.299 C 
ATOM      2  N   UNL d   1     -47.545  14.149  23.202  0.00  0.00    -0.164 NA
ATOM      3  O   UNL d   1     -48.114  13.621  22.007  0.00  0.00    -0.263 OA
ENDROOT
BRANCH   1   4
ATOM      4  C   UNL d   1     -48.758  14.689  22.690  0.00  0.00     0.133 A 
ATOM      5  N   UNL d   1     -49.561  14.496  22.787  0.00  0.00    -0.226 N 
ATOM      6  C   UNL d   1     -49.989  15.211  22.817  0.00  0.00     0.092 A 
ATOM      7  C   UNL d   1     -49.454  15.827  22.738  0.00  0.00     0.021 A 
ATOM      8  C   UNL d   1     -48.696  15.510  22.660  0.00  0.00     0.025 A 
BRANCH   5   9
ATOM      9  S   UNL d   1     -49.878  13.735  22.844  0.00  0.00     0.277 S 
ATOM     10  O   UNL d   1     -49.820  13.627  22.025  0.00  0.00    -0.199 OA
ATOM     11  O   UNL d   1     -49.933  13.849  23.655  0.00  0.00    -0.199 OA
BRANCH   9  12
ATOM     12  C   UNL d   1     -50.196  12.985  22.941  0.00  0.00     0.133 A 
ATOM     13  S   UNL d   1     -50.362  12.445  22.343  0.00  0.00    -0.074 SA
ATOM     14  C   UNL d   1     -50.675  11.763  22.689  0.00  0.00     0.036 A 
ATOM     15  C   UNL d   1     -50.700  11.887  23.507  0.00  0.00     0.008 A 
ATOM     16  C   UNL d   1     -50.405  12.640  23.662  0.00  0.00     0.020 A 
ENDBRANCH   9  12
ENDBRANCH   5   9
ENDBRANCH   1   4
BRANCH   2  17
ATOM     17  C   UNL d   1     -46.921  13.611  23.147  0.00  0.00     0.297 A 
ATOM     18  O   UNL d   1     -46.256  13.696  22.668  0.00  0.00    -0.253 OA
ATOM     19  C   UNL d   1     -45.772  13.035  22.780  0.00  0.00     0.206 A 
ATOM     20  N   UNL d   1     -46.141  12.543  23.328  0.00  0.00    -0.119 NA
ATOM     21  N   UNL d   1     -46.855  12.903  23.555  0.00  0.00    -0.101 NA
BRANCH  19  22
ATOM     22  C   UNL d   1     -45.060  12.898  22.412  0.00  0.00     0.043 A 
ATOM     23  C   UNL d   1     -44.722  13.471  21.923  0.00  0.00     0.006 A 
ATOM     24  C   UNL d   1     -43.993  13.321  21.552  0.00  0.00     0.024 A 
ATOM     25  C   UNL d   1     -43.609  12.606  21.671  0.00  0.00     0.094 A 
ATOM     26  C   UNL d   1     -43.948  12.037  22.161  0.00  0.00     0.024 A 
ATOM     27  C   UNL d   1     -44.665  12.177  22.529  0.00  0.00     0.006 A 
BRANCH  25  28
ATOM     28  O   UNL d   1     -42.889  12.458  21.304  0.00  0.00    -0.328 OA
ATOM     29  C   UNL d   1     -42.546  13.032  20.814  0.00  0.00     0.181 C 
ENDBRANCH  25  28
ENDBRANCH  19  22
ENDBRANCH   2  17
TORSDOF 6
ENDMDL
MODEL 3
REMARK VINA RESULT:      -6.2      1.497      2.459
REMARK  6 active torsions:
REMARK  status: ('A' for Active; 'I' for Inactive)
REMARK    1  A    between atoms: N_2  and  S_1 
REMARK    2  A    between atoms: C_6  and  S_1 
REMARK    3  A    between atoms: C_3  and  N_10 
REMARK    4  A    between atoms: C_7  and  C_5 
REMARK       I    between atoms: N_10  and  C_7 
REMARK    5  A    between atoms: C_15  and  C_8 
REMARK    6  A    between atoms: O_27  and  C_24 
ROOT
ATOM      1  C   UNL d   1     -48.369  12.569  22.880  0.00  0.00     0.299 C 
ATOM      2  N   UNL d   1     -47.734  12.578  23.406  0.00  0.00    -0.164 NA
ATOM      3  O   UNL d   1     -48.283  12.908  22.133  0.00  0.00    -0.263 OA
ENDROOT
BRANCH   1   4
ATOM      4  C   UNL d   1     -49.078  12.228  23.096  0.00  0.00     0.133 A 
ATOM      5  N   UNL d   1     -49.817  12.609  23.110  0.00  0.00    -0.226 N 
ATOM      6  C   UNL d   1     -50.382  12.050  23.364  0.00  0.00     0.092 A 
ATOM      7  C   UNL d   1     -49.992  11.343  23.502  0.00  0.00     0.021 A 
ATOM      8  C   UNL d   1     -49.189  11.448  23.338  0.00  0.00     0.025 A 
BRANCH   5   9
ATOM      9  S   UNL d   1     -49.966  13.396  22.909  0.00  0.00     0.277 S 
ATOM     10  O   UNL d   1     -50.091  13.193  22.116  0.00  0.00    -0.199 OA
ATOM     11  O   UNL d   1     -49.840  13.592  23.697  0.00  0.00    -0.199 OA
BRANCH   9  12
ATOM     12  C   UNL d   1     -50.107  14.189  22.749  0.00  0.00     0.133 A 
ATOM     13  S   UNL d   1     -50.336  14.763  23.293  0.00  0.00    -0.074 SA
ATOM     14  C   UNL d   1     -50.415  15.481  22.893  0.00  0.00     0.036 A 
ATOM     15  C   UNL d   1     -50.234  15.346  22.097  0.00  0.00     0.008 A 
ATOM     16  C   UNL d   1     -50.044  14.549  22.009  0.00  0.00     0.020 A 
ENDBRANCH   9  12
ENDBRANCH   5   9
ENDBRANCH   1   4
BRANCH   2  17
ATOM     17  C   UNL d   1     -47.016  12.923  23.189  0.00  0.00     0.297 A 
ATOM     18  O   UNL d   1     -46.392  12.536  22.815  0.00  0.00    -0.253 OA
ATOM     19  C   UNL d   1     -45.782  13.083  22.699  0.00  0.00     0.206 A 
ATOM     20  N   UNL d   1     -46.032  13.807  23.003  0.00  0.00    -0.119 NA
ATOM     21  N   UNL d   1     -46.799  13.706  23.307  0.00  0.00    -0.101 NA
BRANCH  19  22
ATOM     22  C   UNL d   1     -45.065  12.929  22.348  0.00  0.00     0.043 A 
ATOM     23  C   UNL d   1     -44.791  13.400  21.728  0.00  0.00     0.006 A 
ATOM     24  C   UNL d   1     -44.056  13.234  21.376  0.00  0.00     0.024 A 
ATOM     25  C   UNL d   1     -43.603  12.604  21.642  0.00  0.00     0.094 A 
ATOM     26  C   UNL d   1     -43.880  12.136  22.261  0.00  0.00     0.024 A 
ATOM     27  C   UNL d   1     -44.602  12.293  22.613  0.00  0.00     0.006 A 
BRANCH  25  28
ATOM     28  O   UNL d   1     -42.877  12.441  21.294  0.00  0.00    -0.328 OA
ATOM     29  C   UNL d   1     -42.242  12.965  21.391  0.00  0.00     0.181 C 
ENDBRANCH  25  28
ENDBRANCH  19  22
ENDBRANCH   2  17
TORSDOF 6
ENDMDL
MODEL 4
REMARK VINA RESULT:      -6.0      8.779      9.767
REMARK  6 active torsions:
REMARK  status: ('A' for Active; 'I' for Inactive)
REMARK    1  A    between atoms: N_2  and  S_1 
REMARK    2  A    between atoms: C_6  and  S_1 
REMARK    3  A    between atoms: C_3  and  N_10 
REMARK    4  A    between atoms: C_7  and  C_5 
REMARK       I    between atoms: N_10  and  C_7 
REMARK    5  A    between atoms: C_15  and  C_8 
REMARK    6  A    between atoms: O_27  and  C_24 
ROOT
ATOM      1  C   UNL d   1     -40.740  15.107  18.454  0.00  0.00     0.299 C 
ATOM      2  N   UNL d   1     -40.528  15.653  19.037  0.00  0.00    -0.164 NA
ATOM      3  O   UNL d   1     -40.936  14.336  18.672  0.00  0.00    -0.263 OA
ENDROOT
BRANCH   1   4
ATOM      4  C   UNL d   1     -40.755  15.327  17.669  0.00  0.00     0.133 A 
ATOM      5  N   UNL d   1     -40.248  15.044  17.074  0.00  0.00    -0.226 N 
ATOM      6  C   UNL d   1     -40.464  15.420  16.362  0.00  0.00     0.092 A 
ATOM      7  C   UNL d   1     -41.091  15.922  16.522  0.00  0.00     0.021 A 
ATOM      8  C   UNL d   1     -41.274  15.868  17.325  0.00  0.00     0.025 A 
BRANCH   5   9
ATOM      9  S   UNL d   1     -39.641  14.492  17.171  0.00  0.00     0.277 S 
ATOM     10  O   UNL d   1     -40.185  13.869  17.207  0.00  0.00    -0.199 OA
ATOM     11  O   UNL d   1     -39.107  15.114  17.134  0.00  0.00    -0.199 OA
BRANCH   9  12
ATOM     12  C   UNL d   1     -39.011  13.974  17.265  0.00  0.00     0.133 A 
ATOM     13  S   UNL d   1     -38.794  13.372  16.748  0.00  0.00    -0.074 SA
ATOM     14  C   UNL d   1     -38.131  12.990  17.059  0.00  0.00     0.036 A 
ATOM     15  C   UNL d   1     -37.940  13.363  17.773  0.00  0.00     0.008 A 
ATOM     16  C   UNL d   1     -38.482  13.970  17.899  0.00  0.00     0.020 A 
ENDBRANCH   9  12
ENDBRANCH   5   9
ENDBRANCH   1   4
BRANCH   2  17
ATOM     17  C   UNL d   1     -40.512  15.431  19.831  0.00  0.00     0.297 A 
ATOM     18  O   UNL d   1     -39.835  15.248  20.264  0.00  0.00    -0.253 OA
ATOM     19  C   UNL d   1     -40.067  15.056  21.035  0.00  0.00     0.206 A 
ATOM     20  N   UNL d   1     -40.887  15.122  21.075  0.00  0.00    -0.119 NA
ATOM     21  N   UNL d   1     -41.162  15.355  20.326  0.00  0.00    -0.101 NA
BRANCH  19  22
ATOM     22  C   UNL d   1     -39.570  14.841  21.642  0.00  0.00     0.043 A 
ATOM     23  C   UNL d   1     -39.320  14.059  21.724  0.00  0.00     0.006 A 
ATOM     24  C   UNL d   1     -38.812  13.850  22.348  0.00  0.00     0.024 A 
ATOM     25  C   UNL d   1     -38.559  14.419  22.883  0.00  0.00     0.094 A 
ATOM     26  C   UNL d   1     -38.811  15.198  22.798  0.00  0.00     0.024 A 
ATOM     27  C   UNL d   1     -39.311  15.412  22.186  0.00  0.00     0.006 A 
BRANCH  25  28
ATOM     28  O   UNL d   1     -38.058  14.212  23.500  0.00  0.00    -0.328 OA
ATOM     29  C   UNL d   1     -37.949  13.414  23.698  0.00  0.00     0.181 C 
ENDBRANCH  25  28
ENDBRANCH  19  22
ENDBRANCH   2  17
TORSDOF 6
ENDMDL
MODEL 5
REMARK VINA RESULT:      -5.9      1.494      2.501
REMARK  6 active torsions:
REMARK  status: ('A' for Active; 'I' for Inactive)
REMARK    1  A    between atoms: N_2  and  S_1 
REMARK    2  A    between atoms: C_6  and  S_1 
REMARK    3  A    between atoms: C_3  and  N_10 
REMARK    4  A    between atoms: C_7  and  C_5 
REMARK       I    between atoms: N_10  and  C_7 
REMARK    5  A    between atoms: C_15  and  C_8 
REMARK    6  A    between atoms: O_27  and  C_24 
ROOT
ATOM      1  C   UNL d   1     -49.340  12.349  22.555  0.00  0.00     0.299 C 
ATOM      2  N   UNL d   1     -48.722  11.912  22.225  0.00  0.00    -0.164 NA
ATOM      3  O   UNL d   1     -49.374  12.451  23.372  0.00  0.00    -0.263 OA
ENDROOT
BRANCH   1   4
ATOM      4  C   UNL d   1     -49.914  12.676  22.076  0.00  0.00     0.133 A 
ATOM      5  N   UNL d   1     -49.972  13.479  21.867  0.00  0.00    -0.226 N 
ATOM      6  C   UNL d   1     -50.639  13.561  21.373  0.00  0.00     0.092 A 
ATOM      7  C   UNL d   1     -50.979  12.820  21.284  0.00  0.00     0.021 A 
ATOM      8  C   UNL d   1     -50.536  12.273  21.716  0.00  0.00     0.025 A 
BRANCH   5   9
ATOM      9  S   UNL d   1     -49.464  14.085  22.104  0.00  0.00     0.277 S 
ATOM     10  O   UNL d   1     -49.789  14.088  22.866  0.00  0.00    -0.199 OA
ATOM     11  O   UNL d   1     -49.145  14.077  21.348  0.00  0.00    -0.199 OA
BRANCH   9  12
ATOM     12  C   UNL d   1     -48.942  14.687  22.302  0.00  0.00     0.133 A 
ATOM     13  S   UNL d   1     -49.032  15.227  22.917  0.00  0.00    -0.074 SA
ATOM     14  C   UNL d   1     -48.379  15.732  22.914  0.00  0.00     0.036 A 
ATOM     15  C   UNL d   1     -47.884  15.500  22.293  0.00  0.00     0.008 A 
ATOM     16  C   UNL d   1     -48.232  14.855  21.916  0.00  0.00     0.020 A 
ENDBRANCH   9  12
ENDBRANCH   5   9
ENDBRANCH   1   4
BRANCH   2  17
ATOM     17  C   UNL d   1     -48.141  11.580  22.708  0.00  0.00     0.297 A 
ATOM     18  O   UNL d   1     -47.328  11.623  22.579  0.00  0.00    -0.253 OA
ATOM     19  C   UNL d   1     -46.948  11.218  23.192  0.00  0.00     0.206 A 
ATOM     20  N   UNL d   1     -47.529  10.925  23.698  0.00  0.00    -0.119 NA
ATOM     21  N   UNL d   1     -48.269  11.151  23.395  0.00  0.00    -0.101 NA
BRANCH  19  22
ATOM     22  C   UNL d   1     -46.145  11.127  23.277  0.00  0.00     0.043 A 
ATOM     23  C   UNL d   1     -45.626  11.722  23.034  0.00  0.00     0.006 A 
ATOM     24  C   UNL d   1     -44.806  11.619  23.126  0.00  0.00     0.024 A 
ATOM     25  C   UNL d   1     -44.511  10.928  23.456  0.00  0.00     0.094 A 
ATOM     26  C   UNL d   1     -45.031  10.337  23.697  0.00  0.00     0.024 A 
ATOM     27  C   UNL d   1     -45.840  10.431  23.611  0.00  0.00     0.006 A 
BRANCH  25  28
ATOM     28  O   UNL d   1     -43.701  10.827  23.546  0.00  0.00    -0.328 OA
ATOM     29  C   UNL d   1     -43.387  10.068  23.657  0.00  0.00     0.181 C 
ENDBRANCH  25  28
ENDBRANCH  19  22
ENDBRANCH   2  17
TORSDOF 6
ENDMDL
MODEL 6
REMARK VINA RESULT:      -4.7      5.575      7.862
REMARK  6 active torsions:
REMARK  status: ('A' for Active; 'I' for Inactive)
REMARK    1  A    between atoms: N_2  and  S_1 
REMARK    2  A    between atoms: C_6  and  S_1 
REMARK    3  A    between atoms: C_3  and  N_10 
REMARK    4  A    between atoms: C_7  and  C_5 
REMARK       I    between atoms: N_10  and  C_7 
REMARK    5  A    between atoms: C_15  and  C_8 
REMARK    6  A    between atoms: O_27  and  C_24 
ROOT
ATOM      1  C   UNL d   1     -41.211  14.376  20.940  0.00  0.00     0.299 C 
ATOM      2  N   UNL d   1     -41.363  13.588  21.131  0.00  0.00    -0.164 NA
ATOM      3  O   UNL d   1     -41.831  14.861  20.695  0.00  0.00    -0.263 OA
ENDROOT
BRANCH   1   4
ATOM      4  C   UNL d   1     -40.454  14.675  20.993  0.00  0.00     0.133 A 
ATOM      5  N   UNL d   1     -39.991  14.943  20.356  0.00  0.00    -0.226 N 
ATOM      6  C   UNL d   1     -39.260  15.198  20.667  0.00  0.00     0.092 A 
ATOM      7  C   UNL d   1     -39.279  15.085  21.479  0.00  0.00     0.021 A 
ATOM      8  C   UNL d   1     -40.012  14.763  21.683  0.00  0.00     0.025 A 
BRANCH   5   9
ATOM      9  S   UNL d   1     -40.214  14.957  19.561  0.00  0.00     0.277 S 
ATOM     10  O   UNL d   1     -40.662  15.644  19.676  0.00  0.00    -0.199 OA
ATOM     11  O   UNL d   1     -39.768  14.276  19.453  0.00  0.00    -0.199 OA
BRANCH   9  12
ATOM     12  C   UNL d   1     -40.413  14.936  18.765  0.00  0.00     0.133 A 
ATOM     13  S   UNL d   1     -40.770  15.541  18.336  0.00  0.00    -0.074 SA
ATOM     14  C   UNL d   1     -40.869  15.283  17.558  0.00  0.00     0.036 A 
ATOM     15  C   UNL d   1     -40.570  14.513  17.510  0.00  0.00     0.008 A 
ATOM     16  C   UNL d   1     -40.289  14.299  18.254  0.00  0.00     0.020 A 
ENDBRANCH   9  12
ENDBRANCH   5   9
ENDBRANCH   1   4
BRANCH   2  17
ATOM     17  C   UNL d   1     -42.128  13.284  21.079  0.00  0.00     0.297 A 
ATOM     18  O   UNL d   1     -42.695  13.308  21.676  0.00  0.00    -0.253 OA
ATOM     19  C   UNL d   1     -43.382  12.944  21.394  0.00  0.00     0.206 A 
ATOM     20  N   UNL d   1     -43.237  12.697  20.621  0.00  0.00    -0.119 NA
ATOM     21  N   UNL d   1     -42.457  12.910  20.427  0.00  0.00    -0.101 NA
BRANCH  19  22
ATOM     22  C   UNL d   1     -44.076  12.849  21.808  0.00  0.00     0.043 A 
ATOM     23  C   UNL d   1     -44.674  13.416  21.762  0.00  0.00     0.006 A 
ATOM     24  C   UNL d   1     -45.379  13.309  22.190  0.00  0.00     0.024 A 
ATOM     25  C   UNL d   1     -45.482  12.642  22.656  0.00  0.00     0.094 A 
ATOM     26  C   UNL d   1     -44.883  12.078  22.700  0.00  0.00     0.024 A 
ATOM     27  C   UNL d   1     -44.186  12.176  22.282  0.00  0.00     0.006 A 
BRANCH  25  28
ATOM     28  O   UNL d   1     -46.179  12.536  23.078  0.00  0.00    -0.328 OA
ATOM     29  C   UNL d   1     -46.635  13.193  23.298  0.00  0.00     0.181 C 
ENDBRANCH  25  28
ENDBRANCH  19  22
ENDBRANCH   2  17
TORSDOF 6
ENDMDL
