MODEL 1
REMARK VINA RESULT:      -5.4      0.000      0.000
REMARK  4 active torsions:
REMARK  status: ('A' for Active; 'I' for Inactive)
REMARK    1  A    between atoms: N_14  and  S_1 
REMARK    2  A    between atoms: C_5  and  C_17 
REMARK    3  A    between atoms: C_18  and  N_14 
REMARK    4  A    between atoms: C_17  and  C_18 
ROOT
ATOM      1  N   UNL d   1      57.762   0.599  31.012  0.00  0.00    -0.208 NA
ATOM      2  C   UNL d   1      58.140   0.237  30.368  0.00  0.00     0.279 A 
ATOM      3  C   UNL d   1      57.269   0.154  31.514  0.00  0.00     0.085 A 
ATOM      4  C   UNL d   1      58.027  -0.569  30.225  0.00  0.00     0.059 A 
ATOM      5  C   UNL d   1      57.536  -1.018  30.724  0.00  0.00     0.006 A 
ATOM      6  C   UNL d   1      57.162  -0.651  31.364  0.00  0.00     0.018 A 
ATOM      7  C   UNL d   1      56.895   0.517  32.153  0.00  0.00     0.019 A 
ATOM      8  C   UNL d   1      56.669  -1.096  31.866  0.00  0.00     0.002 A 
ATOM      9  C   UNL d   1      56.407   0.072  32.649  0.00  0.00     0.002 A 
ATOM     10  C   UNL d   1      56.294  -0.733  32.505  0.00  0.00     0.000 A 
ATOM     11  O   UNL d   1      58.628   0.682  29.873  0.00  0.00    -0.265 OA
ATOM     12  C   UNL d   1      55.807  -1.178  33.001  0.00  0.00     0.000 C 
ATOM     13  C   UNL d   1      56.032   0.435  33.288  0.00  0.00     0.000 C 
ENDROOT
BRANCH   4  14
ATOM     14  C   UNL d   1      58.402  -0.932  29.585  0.00  0.00     0.026 C 
BRANCH  14  15
ATOM     15  C   UNL d   1      58.668  -1.710  29.654  0.00  0.00     0.112 C 
BRANCH  15  16
ATOM     16  N   UNL d   1      58.914  -2.119  28.981  0.00  0.00    -0.160 NA
BRANCH  16  17
ATOM     17  S   UNL d   1      59.404  -2.789  29.056  0.00  0.00     0.266 S 
ATOM     18  O   UNL d   1      58.627  -3.079  29.085  0.00  0.00    -0.203 OA
ATOM     19  O   UNL d   1      59.693  -3.554  29.140  0.00  0.00    -0.203 OA
ATOM     20  C   UNL d   1      60.169  -2.474  29.024  0.00  0.00     0.165 C 
ENDBRANCH  16  17
ENDBRANCH  15  16
ENDBRANCH  14  15
ENDBRANCH   4  14
TORSDOF 4
ENDMDL
MODEL 2
REMARK VINA RESULT:      -4.7      3.281      5.020
REMARK  4 active torsions:
REMARK  status: ('A' for Active; 'I' for Inactive)
REMARK    1  A    between atoms: N_14  and  S_1 
REMARK    2  A    between atoms: C_5  and  C_17 
REMARK    3  A    between atoms: C_18  and  N_14 
REMARK    4  A    between atoms: C_17  and  C_18 
ROOT
ATOM      1  N   UNL d   1      56.580  -1.516  31.937  0.00  0.00    -0.208 NA
ATOM      2  C   UNL d   1      56.101  -1.257  32.562  0.00  0.00     0.279 A 
ATOM      3  C   UNL d   1      57.008  -0.967  31.481  0.00  0.00     0.085 A 
ATOM      4  C   UNL d   1      56.047  -0.451  32.733  0.00  0.00     0.059 A 
ATOM      5  C   UNL d   1      56.473   0.102  32.281  0.00  0.00     0.006 A 
ATOM      6  C   UNL d   1      56.950  -0.162  31.658  0.00  0.00     0.018 A 
ATOM      7  C   UNL d   1      57.485  -1.227  30.860  0.00  0.00     0.019 A 
ATOM      8  C   UNL d   1      57.378   0.387  31.203  0.00  0.00     0.002 A 
ATOM      9  C   UNL d   1      57.908  -0.680  30.410  0.00  0.00     0.002 A 
ATOM     10  C   UNL d   1      57.854   0.127  30.581  0.00  0.00     0.000 A 
ATOM     11  O   UNL d   1      55.678  -1.805  33.011  0.00  0.00    -0.265 OA
ATOM     12  C   UNL d   1      58.277   0.674  30.132  0.00  0.00     0.000 C 
ATOM     13  C   UNL d   1      58.385  -0.940  29.788  0.00  0.00     0.000 C 
ENDROOT
BRANCH   4  14
ATOM     14  C   UNL d   1      55.570  -0.191  33.355  0.00  0.00     0.026 C 
BRANCH  14  15
ATOM     15  C   UNL d   1      55.914   0.176  34.009  0.00  0.00     0.112 C 
BRANCH  15  16
ATOM     16  N   UNL d   1      55.455   0.658  34.496  0.00  0.00    -0.160 NA
BRANCH  16  17
ATOM     17  S   UNL d   1      55.551   0.627  35.323  0.00  0.00     0.266 S 
ATOM     18  O   UNL d   1      54.733   0.574  35.194  0.00  0.00    -0.203 OA
ATOM     19  O   UNL d   1      55.426   0.582  36.135  0.00  0.00    -0.203 OA
ATOM     20  C   UNL d   1      56.371   0.682  35.425  0.00  0.00     0.165 C 
ENDBRANCH  16  17
ENDBRANCH  15  16
ENDBRANCH  14  15
ENDBRANCH   4  14
TORSDOF 4
ENDMDL
MODEL 3
REMARK VINA RESULT:      -4.0      1.671      2.485
REMARK  4 active torsions:
REMARK  status: ('A' for Active; 'I' for Inactive)
REMARK    1  A    between atoms: N_14  and  S_1 
REMARK    2  A    between atoms: C_5  and  C_17 
REMARK    3  A    between atoms: C_18  and  N_14 
REMARK    4  A    between atoms: C_17  and  C_18 
ROOT
ATOM      1  N   UNL d   1      57.496   0.676  33.581  0.00  0.00    -0.208 NA
ATOM      2  C   UNL d   1      57.846   0.676  32.829  0.00  0.00     0.279 A 
ATOM      3  C   UNL d   1      56.667   0.675  33.656  0.00  0.00     0.085 A 
ATOM      4  C   UNL d   1      57.372   0.675  32.153  0.00  0.00     0.059 A 
ATOM      5  C   UNL d   1      56.543   0.674  32.223  0.00  0.00     0.006 A 
ATOM      6  C   UNL d   1      56.199   0.674  32.976  0.00  0.00     0.018 A 
ATOM      7  C   UNL d   1      56.320   0.676  34.405  0.00  0.00     0.019 A 
ATOM      8  C   UNL d   1      55.370   0.674  33.051  0.00  0.00     0.002 A 
ATOM      9  C   UNL d   1      55.498   0.675  34.477  0.00  0.00     0.002 A 
ATOM     10  C   UNL d   1      55.023   0.674  33.800  0.00  0.00     0.000 A 
ATOM     11  O   UNL d   1      58.669   0.677  32.758  0.00  0.00    -0.265 OA
ATOM     12  C   UNL d   1      54.201   0.673  33.872  0.00  0.00     0.000 C 
ATOM     13  C   UNL d   1      55.151   0.675  35.226  0.00  0.00     0.000 C 
ENDROOT
BRANCH   4  14
ATOM     14  C   UNL d   1      57.719   0.675  31.404  0.00  0.00     0.026 C 
BRANCH  14  15
ATOM     15  C   UNL d   1      57.779  -0.031  30.980  0.00  0.00     0.112 C 
BRANCH  15  16
ATOM     16  N   UNL d   1      57.766  -0.016  30.156  0.00  0.00    -0.160 NA
BRANCH  16  17
ATOM     17  S   UNL d   1      58.286  -0.500  29.721  0.00  0.00     0.266 S 
ATOM     18  O   UNL d   1      57.758  -1.021  30.093  0.00  0.00    -0.203 OA
ATOM     19  O   UNL d   1      58.675  -1.138  29.377  0.00  0.00    -0.203 OA
ATOM     20  C   UNL d   1      58.799   0.041  29.361  0.00  0.00     0.165 C 
ENDBRANCH  16  17
ENDBRANCH  15  16
ENDBRANCH  14  15
ENDBRANCH   4  14
TORSDOF 4
ENDMDL
