MODEL 1
REMARK VINA RESULT:      71.6      0.000      0.000
REMARK  4 active torsions:
REMARK  status: ('A' for Active; 'I' for Inactive)
REMARK    1  A    between atoms: C_3  and  C_14 
REMARK    2  A    between atoms: C_21  and  C_4 
REMARK    3  A    between atoms: S_15  and  C_5 
REMARK    4  A    between atoms: C_14  and  S_15 
ROOT
ATOM      1  C   UNL d   1      57.907  49.555  52.310  0.00  0.00     0.092 A 
ATOM      2  C   UNL d   1      59.230  49.547  51.785  0.00  0.00     0.057 A 
ATOM      3  C   UNL d   1      58.418  49.511  51.665  0.00  0.00     0.016 A 
ATOM      4  C   UNL d   1      58.212  49.635  53.073  0.00  0.00     0.120 A 
ATOM      5  N   UNL d   1      59.017  49.670  53.198  0.00  0.00    -0.239 NA
ATOM      6  C   UNL d   1      59.535  49.626  52.549  0.00  0.00     0.081 A 
ATOM      7  C   UNL d   1      59.745  49.503  51.139  0.00  0.00     0.193 A 
ATOM      8  C   UNL d   1      57.092  49.520  52.191  0.00  0.00     0.103 C 
ATOM      9  N   UNL d   1      56.275  49.485  52.073  0.00  0.00    -0.191 NA
ATOM     10  C   UNL d   1      60.869  49.618  52.028  0.00  0.00     0.042 A 
ATOM     11  C   UNL d   1      60.567  49.538  51.252  0.00  0.00     0.019 A 
ATOM     12  C   UNL d   1      60.356  49.662  52.678  0.00  0.00    -0.003 A 
ATOM     13  O   UNL d   1      59.439  49.423  50.374  0.00  0.00    -0.287 OA
ATOM     14  C   UNL d   1      61.366  49.692  52.677  0.00  0.00     0.009 C 
ATOM     15  C   UNL d   1      61.376  49.573  51.376  0.00  0.00     0.009 C 
ENDROOT
BRANCH   3  16
ATOM     16  C   UNL d   1      58.113  49.432  50.901  0.00  0.00     0.001 C 
ATOM     17  C   UNL d   1      57.304  49.481  50.786  0.00  0.00     0.000 C 
ENDBRANCH   3  16
BRANCH   4  18
ATOM     18  S   UNL d   1      57.696  49.678  53.717  0.00  0.00    -0.067 SA
BRANCH  18  19
ATOM     19  C   UNL d   1      57.973  49.506  54.475  0.00  0.00     0.041 C 
BRANCH  19  20
ATOM     20  C   UNL d   1      57.443  49.319  55.078  0.00  0.00     0.051 A 
ATOM     21  C   UNL d   1      56.724  49.127  55.034  0.00  0.00     0.127 A 
ATOM     22  O   UNL d   1      56.344  48.973  55.727  0.00  0.00    -0.211 OA
ATOM     23  C   UNL d   1      56.092  48.982  54.658  0.00  0.00     0.029 C 
ATOM     24  N   UNL d   1      56.935  49.095  56.275  0.00  0.00    -0.126 NA
ATOM     25  C   UNL d   1      57.616  49.308  55.879  0.00  0.00     0.111 A 
ATOM     26  C   UNL d   1      58.342  49.481  56.217  0.00  0.00     0.023 C 
ENDBRANCH  19  20
ENDBRANCH  18  19
ENDBRANCH   4  18
TORSDOF 4
ENDMDL
