MODEL 1
REMARK VINA RESULT:      -4.8      0.000      0.000
REMARK  2 active torsions:
REMARK  status: ('A' for Active; 'I' for Inactive)
REMARK    1  A    between atoms: C_5  and  C_1 
REMARK    2  A    between atoms: C_7  and  C_5 
ROOT
ATOM      1  C   UNL d   1      57.277  -0.207  31.811  0.00  0.00     0.061 A 
ATOM      2  C   UNL d   1      57.756   0.393  32.069  0.00  0.00     0.102 A 
ATOM      3  N   UNL d   1      57.456   0.682  32.787  0.00  0.00    -0.244 NA
ATOM      4  C   UNL d   1      56.676  -0.304  32.357  0.00  0.00     0.022 A 
ATOM      5  C   UNL d   1      56.785   0.242  32.958  0.00  0.00     0.082 A 
ATOM      6  C   UNL d   1      56.036  -0.830  32.378  0.00  0.00     0.002 A 
ATOM      7  C   UNL d   1      56.259   0.278  33.596  0.00  0.00     0.019 A 
ATOM      8  C   UNL d   1      55.512  -0.793  33.015  0.00  0.00     0.000 A 
ATOM      9  C   UNL d   1      55.622  -0.247  33.615  0.00  0.00     0.002 A 
ENDROOT
BRANCH   1  10
ATOM     10  C   UNL d   1      57.393  -0.649  31.095  0.00  0.00     0.215 C 
ATOM     11  O   UNL d   1      57.139  -1.427  31.050  0.00  0.00    -0.285 OA
BRANCH  10  12
ATOM     12  C   UNL d   1      57.765  -0.277  30.450  0.00  0.00     0.120 A 
ATOM     13  N   UNL d   1      57.373   0.322  30.043  0.00  0.00    -0.241 NA
ATOM     14  C   UNL d   1      57.754   0.682  29.405  0.00  0.00     0.099 A 
ATOM     15  C   UNL d   1      58.513   0.443  29.182  0.00  0.00     0.021 A 
ATOM     16  C   UNL d   1      58.891  -0.153  29.595  0.00  0.00     0.003 A 
ATOM     17  C   UNL d   1      58.524  -0.514  30.225  0.00  0.00     0.022 A 
ENDBRANCH  10  12
ENDBRANCH   1  10
TORSDOF 2
ENDMDL
MODEL 2
REMARK VINA RESULT:      -4.4      9.238      9.962
REMARK  2 active torsions:
REMARK  status: ('A' for Active; 'I' for Inactive)
REMARK    1  A    between atoms: C_5  and  C_1 
REMARK    2  A    between atoms: C_7  and  C_5 
ROOT
ATOM      1  C   UNL d   1      60.143  -9.080  34.576  0.00  0.00     0.061 A 
ATOM      2  C   UNL d   1      60.938  -9.033  34.434  0.00  0.00     0.102 A 
ATOM      3  N   UNL d   1      61.080  -9.250  33.645  0.00  0.00    -0.244 NA
ATOM      4  C   UNL d   1      59.776  -9.325  33.887  0.00  0.00     0.022 A 
ATOM      5  C   UNL d   1      60.352  -9.430  33.314  0.00  0.00     0.082 A 
ATOM      6  C   UNL d   1      58.979  -9.466  33.713  0.00  0.00     0.002 A 
ATOM      7  C   UNL d   1      60.147  -9.678  32.551  0.00  0.00     0.019 A 
ATOM      8  C   UNL d   1      58.776  -9.713  32.952  0.00  0.00     0.000 A 
ATOM      9  C   UNL d   1      59.352  -9.818  32.379  0.00  0.00     0.002 A 
ENDROOT
BRANCH   1  10
ATOM     10  C   UNL d   1      59.770  -8.903  35.318  0.00  0.00     0.215 C 
ATOM     11  O   UNL d   1      59.314  -9.472  35.693  0.00  0.00    -0.285 OA
BRANCH  10  12
ATOM     12  C   UNL d   1      59.876  -8.147  35.650  0.00  0.00     0.120 A 
ATOM     13  N   UNL d   1      60.605  -7.944  35.978  0.00  0.00    -0.241 NA
ATOM     14  C   UNL d   1      60.697  -7.191  36.303  0.00  0.00     0.099 A 
ATOM     15  C   UNL d   1      60.068  -6.655  36.300  0.00  0.00     0.021 A 
ATOM     16  C   UNL d   1      59.351  -6.869  35.972  0.00  0.00     0.003 A 
ATOM     17  C   UNL d   1      59.251  -7.608  35.648  0.00  0.00     0.022 A 
ENDBRANCH  10  12
ENDBRANCH   1  10
TORSDOF 2
ENDMDL
MODEL 3
REMARK VINA RESULT:      -4.1      1.211      3.579
REMARK  2 active torsions:
REMARK  status: ('A' for Active; 'I' for Inactive)
REMARK    1  A    between atoms: C_5  and  C_1 
REMARK    2  A    between atoms: C_7  and  C_5 
ROOT
ATOM      1  C   UNL d   1      58.238   0.428  30.693  0.00  0.00     0.061 A 
ATOM      2  C   UNL d   1      58.716   0.682  31.296  0.00  0.00     0.102 A 
ATOM      3  N   UNL d   1      59.505   0.650  31.041  0.00  0.00    -0.244 NA
ATOM      4  C   UNL d   1      58.715   0.235  30.056  0.00  0.00     0.022 A 
ATOM      5  C   UNL d   1      59.494   0.371  30.270  0.00  0.00     0.082 A 
ATOM      6  C   UNL d   1      58.529  -0.052  29.302  0.00  0.00     0.002 A 
ATOM      7  C   UNL d   1      60.109   0.225  29.735  0.00  0.00     0.019 A 
ATOM      8  C   UNL d   1      59.143  -0.197  28.770  0.00  0.00     0.000 A 
ATOM      9  C   UNL d   1      59.922  -0.060  28.983  0.00  0.00     0.002 A 
ENDROOT
BRANCH   1  10
ATOM     10  C   UNL d   1      57.392   0.377  30.731  0.00  0.00     0.215 C 
ATOM     11  O   UNL d   1      56.936   0.682  30.122  0.00  0.00    -0.285 OA
BRANCH  10  12
ATOM     12  C   UNL d   1      57.041   0.014  31.393  0.00  0.00     0.120 A 
ATOM     13  N   UNL d   1      56.972  -0.807  31.420  0.00  0.00    -0.241 NA
ATOM     14  C   UNL d   1      56.622  -1.153  32.083  0.00  0.00     0.099 A 
ATOM     15  C   UNL d   1      56.348  -0.683  32.704  0.00  0.00     0.021 A 
ATOM     16  C   UNL d   1      56.422   0.130  32.665  0.00  0.00     0.003 A 
ATOM     17  C   UNL d   1      56.766   0.481  32.016  0.00  0.00     0.022 A 
ENDBRANCH  10  12
ENDBRANCH   1  10
TORSDOF 2
ENDMDL
MODEL 4
REMARK VINA RESULT:      -3.4      1.150      1.596
REMARK  2 active torsions:
REMARK  status: ('A' for Active; 'I' for Inactive)
REMARK    1  A    between atoms: C_5  and  C_1 
REMARK    2  A    between atoms: C_7  and  C_5 
ROOT
ATOM      1  C   UNL d   1      57.361  -0.397  30.880  0.00  0.00     0.061 A 
ATOM      2  C   UNL d   1      57.397  -1.205  30.887  0.00  0.00     0.102 A 
ATOM      3  N   UNL d   1      57.009  -1.482  31.567  0.00  0.00    -0.244 NA
ATOM      4  C   UNL d   1      56.953  -0.155  31.548  0.00  0.00     0.022 A 
ATOM      5  C   UNL d   1      56.737  -0.822  31.970  0.00  0.00     0.082 A 
ATOM      6  C   UNL d   1      56.753   0.600  31.822  0.00  0.00     0.002 A 
ATOM      7  C   UNL d   1      56.313  -0.754  32.678  0.00  0.00     0.019 A 
ATOM      8  C   UNL d   1      56.331   0.667  32.528  0.00  0.00     0.000 A 
ATOM      9  C   UNL d   1      56.114  -0.000  32.951  0.00  0.00     0.002 A 
ENDROOT
BRANCH   1  10
ATOM     10  C   UNL d   1      57.693   0.101  30.277  0.00  0.00     0.215 C 
ATOM     11  O   UNL d   1      57.233   0.682  29.928  0.00  0.00    -0.285 OA
BRANCH  10  12
ATOM     12  C   UNL d   1      58.486  -0.015  30.054  0.00  0.00     0.120 A 
ATOM     13  N   UNL d   1      59.086   0.387  30.452  0.00  0.00    -0.241 NA
ATOM     14  C   UNL d   1      59.868   0.262  30.220  0.00  0.00     0.099 A 
ATOM     15  C   UNL d   1      60.043  -0.256  29.601  0.00  0.00     0.021 A 
ATOM     16  C   UNL d   1      59.439  -0.648  29.214  0.00  0.00     0.003 A 
ATOM     17  C   UNL d   1      58.665  -0.532  29.436  0.00  0.00     0.022 A 
ENDBRANCH  10  12
ENDBRANCH   1  10
TORSDOF 2
ENDMDL
