MODEL 1
REMARK VINA RESULT:      -6.5      0.000      0.000
REMARK  1 active torsions:
REMARK  status: ('A' for Active; 'I' for Inactive)
REMARK    1  A    between atoms: C_5  and  C_1 
ROOT
ATOM      1  N   UNL d   1      57.084  -0.743  31.595  0.00  0.00    -0.242 NA
ATOM      2  C   UNL d   1      57.344  -0.034  31.265  0.00  0.00     0.117 A 
ATOM      3  C   UNL d   1      56.517  -0.717  32.207  0.00  0.00     0.081 A 
ATOM      4  C   UNL d   1      57.059   0.680  31.524  0.00  0.00     0.022 A 
ATOM      5  C   UNL d   1      56.232  -0.011  32.466  0.00  0.00     0.018 A 
ATOM      6  C   UNL d   1      56.499   0.682  32.130  0.00  0.00     0.003 A 
ATOM      7  C   UNL d   1      56.254  -1.421  32.540  0.00  0.00     0.019 A 
ATOM      8  C   UNL d   1      55.672  -0.009  33.073  0.00  0.00     0.002 A 
ATOM      9  C   UNL d   1      55.690  -1.408  33.149  0.00  0.00     0.002 A 
ATOM     10  C   UNL d   1      55.406  -0.697  33.408  0.00  0.00     0.000 A 
ENDROOT
BRANCH   2  11
ATOM     11  C   UNL d   1      57.899  -0.036  30.665  0.00  0.00     0.180 A 
ATOM     12  N   UNL d   1      57.844  -0.441  29.939  0.00  0.00    -0.224 NA
ATOM     13  C   UNL d   1      58.517  -0.285  29.516  0.00  0.00     0.101 A 
ATOM     14  C   UNL d   1      58.771  -0.536  28.756  0.00  0.00     0.021 A 
ATOM     15  C   UNL d   1      59.001   0.214  29.962  0.00  0.00     0.101 A 
ATOM     16  C   UNL d   1      59.496  -0.288  28.457  0.00  0.00     0.002 A 
ATOM     17  C   UNL d   1      59.980   0.211  28.903  0.00  0.00     0.002 A 
ATOM     18  C   UNL d   1      59.744   0.467  29.652  0.00  0.00     0.021 A 
ATOM     19  N   UNL d   1      58.632   0.372  30.666  0.00  0.00    -0.224 NA
ENDBRANCH   2  11
TORSDOF 1
ENDMDL
MODEL 2
REMARK VINA RESULT:      -6.1      0.578      4.216
REMARK  1 active torsions:
REMARK  status: ('A' for Active; 'I' for Inactive)
REMARK    1  A    between atoms: C_5  and  C_1 
ROOT
ATOM      1  N   UNL d   1      57.944  -0.754  30.266  0.00  0.00    -0.242 NA
ATOM      2  C   UNL d   1      57.769  -0.112  30.752  0.00  0.00     0.117 A 
ATOM      3  C   UNL d   1      58.506  -0.654  29.658  0.00  0.00     0.081 A 
ATOM      4  C   UNL d   1      58.130   0.607  30.649  0.00  0.00     0.022 A 
ATOM      5  C   UNL d   1      58.867   0.057  29.552  0.00  0.00     0.018 A 
ATOM      6  C   UNL d   1      58.684   0.682  30.040  0.00  0.00     0.003 A 
ATOM      7  C   UNL d   1      58.685  -1.291  29.169  0.00  0.00     0.019 A 
ATOM      8  C   UNL d   1      59.420   0.132  28.943  0.00  0.00     0.002 A 
ATOM      9  C   UNL d   1      59.243  -1.204  28.561  0.00  0.00     0.002 A 
ATOM     10  C   UNL d   1      59.604  -0.488  28.456  0.00  0.00     0.000 A 
ENDROOT
BRANCH   2  11
ATOM     11  C   UNL d   1      57.221  -0.186  31.355  0.00  0.00     0.180 A 
ATOM     12  N   UNL d   1      56.860   0.435  31.777  0.00  0.00    -0.224 NA
ATOM     13  C   UNL d   1      56.357   0.106  32.321  0.00  0.00     0.101 A 
ATOM     14  C   UNL d   1      55.850   0.450  32.895  0.00  0.00     0.021 A 
ATOM     15  C   UNL d   1      56.392  -0.716  32.252  0.00  0.00     0.101 A 
ATOM     16  C   UNL d   1      55.391  -0.026  33.384  0.00  0.00     0.002 A 
ATOM     17  C   UNL d   1      55.427  -0.848  33.315  0.00  0.00     0.002 A 
ATOM     18  C   UNL d   1      55.921  -1.202  32.755  0.00  0.00     0.021 A 
ATOM     19  N   UNL d   1      56.918  -0.905  31.664  0.00  0.00    -0.224 NA
ENDBRANCH   2  11
TORSDOF 1
ENDMDL
MODEL 3
REMARK VINA RESULT:      -5.1      1.185      4.489
REMARK  1 active torsions:
REMARK  status: ('A' for Active; 'I' for Inactive)
REMARK    1  A    between atoms: C_5  and  C_1 
ROOT
ATOM      1  N   UNL d   1      57.262   0.346  31.398  0.00  0.00    -0.242 NA
ATOM      2  C   UNL d   1      56.917  -0.234  31.872  0.00  0.00     0.117 A 
ATOM      3  C   UNL d   1      57.687   0.108  30.720  0.00  0.00     0.081 A 
ATOM      4  C   UNL d   1      56.985  -1.021  31.691  0.00  0.00     0.022 A 
ATOM      5  C   UNL d   1      57.757  -0.672  30.538  0.00  0.00     0.018 A 
ATOM      6  C   UNL d   1      57.411  -1.233  31.016  0.00  0.00     0.003 A 
ATOM      7  C   UNL d   1      58.033   0.682  30.243  0.00  0.00     0.019 A 
ATOM      8  C   UNL d   1      58.183  -0.883  29.862  0.00  0.00     0.002 A 
ATOM      9  C   UNL d   1      58.459   0.458  29.566  0.00  0.00     0.002 A 
ATOM     10  C   UNL d   1      58.527  -0.327  29.385  0.00  0.00     0.000 A 
ENDROOT
BRANCH   2  11
ATOM     11  C   UNL d   1      56.496  -0.025  32.541  0.00  0.00     0.180 A 
ATOM     12  N   UNL d   1      56.809   0.126  33.298  0.00  0.00    -0.224 NA
ATOM     13  C   UNL d   1      56.192   0.313  33.789  0.00  0.00     0.101 A 
ATOM     14  C   UNL d   1      56.166   0.514  34.604  0.00  0.00     0.021 A 
ATOM     15  C   UNL d   1      55.489   0.284  33.356  0.00  0.00     0.101 A 
ATOM     16  C   UNL d   1      55.449   0.682  34.969  0.00  0.00     0.002 A 
ATOM     17  C   UNL d   1      54.746   0.653  34.535  0.00  0.00     0.002 A 
ATOM     18  C   UNL d   1      54.755   0.456  33.732  0.00  0.00     0.021 A 
ATOM     19  N   UNL d   1      55.664   0.079  32.591  0.00  0.00    -0.224 NA
ENDBRANCH   2  11
TORSDOF 1
ENDMDL
