MODEL 1
REMARK VINA RESULT:       2.2      0.000      0.000
REMARK  5 active torsions:
REMARK  status: ('A' for Active; 'I' for Inactive)
REMARK    1  A    between atoms: C_6  and  C_1 
REMARK    2  A    between atoms: C_11  and  N_3 
REMARK    3  A    between atoms: C_14  and  C_11 
REMARK    4  A    between atoms: O_12  and  C_14 
REMARK    5  A    between atoms: C_13  and  O_12 
ROOT
ATOM      1  C   UNL d   1     -41.598-122.070 -53.146  0.00  0.00     0.171 A 
ATOM      2  N   UNL d   1     -41.523-121.280 -53.382  0.00  0.00    -0.225 NA
ATOM      3  N   UNL d   1     -41.499-122.073 -52.322  0.00  0.00    -0.286 N 
ATOM      4  C   UNL d   1     -41.369-121.317 -52.073  0.00  0.00     0.083 A 
ATOM      5  C   UNL d   1     -41.384-120.823 -52.734  0.00  0.00     0.099 A 
ATOM      6  C   UNL d   1     -41.236-121.000 -51.324  0.00  0.00     0.019 A 
ATOM      7  C   UNL d   1     -41.266-120.029 -52.622  0.00  0.00     0.021 A 
ATOM      8  C   UNL d   1     -41.123-120.209 -51.250  0.00  0.00     0.002 A 
ATOM      9  C   UNL d   1     -41.138-119.715 -51.911  0.00  0.00     0.002 A 
ENDROOT
BRANCH   3  10
ATOM     10  C   UNL d   1     -41.553-122.807 -51.978  0.00  0.00     0.108 C 
BRANCH  10  11
ATOM     11  C   UNL d   1     -41.191-122.994 -51.274  0.00  0.00     0.142 C 
BRANCH  11  12
ATOM     12  O   UNL d   1     -41.550-123.440 -50.699  0.00  0.00    -0.304 OA
BRANCH  12  13
ATOM     13  C   UNL d   1     -41.919-123.530 -50.033  0.00  0.00     0.100 A 
ATOM     14  C   UNL d   1     -41.211-123.645 -49.626  0.00  0.00     0.025 A 
ATOM     15  C   UNL d   1     -41.222-123.783 -48.812  0.00  0.00     0.002 A 
ATOM     16  C   UNL d   1     -41.942-123.807 -48.402  0.00  0.00     0.000 A 
ATOM     17  C   UNL d   1     -42.650-123.692 -48.810  0.00  0.00     0.002 A 
ATOM     18  C   UNL d   1     -42.637-123.553 -49.628  0.00  0.00     0.025 A 
ENDBRANCH  12  13
ENDBRANCH  11  12
ENDBRANCH  10  11
ENDBRANCH   3  10
BRANCH   1  19
ATOM     19  C   UNL d   1     -41.743-122.721 -53.629  0.00  0.00     0.134 A 
ATOM     20  O   UNL d   1     -42.463-123.078 -53.730  0.00  0.00    -0.302 OA
ATOM     21  C   UNL d   1     -42.363-123.712 -54.262  0.00  0.00     0.123 A 
ATOM     22  C   UNL d   1     -41.566-123.728 -54.479  0.00  0.00     0.029 A 
ATOM     23  C   UNL d   1     -41.185-123.103 -54.078  0.00  0.00     0.030 A 
ENDBRANCH   1  19
TORSDOF 5
ENDMDL
MODEL 2
REMARK VINA RESULT:       2.8      1.374      4.350
REMARK  5 active torsions:
REMARK  status: ('A' for Active; 'I' for Inactive)
REMARK    1  A    between atoms: C_6  and  C_1 
REMARK    2  A    between atoms: C_11  and  N_3 
REMARK    3  A    between atoms: C_14  and  C_11 
REMARK    4  A    between atoms: O_12  and  C_14 
REMARK    5  A    between atoms: C_13  and  O_12 
ROOT
ATOM      1  C   UNL d   1     -41.194-121.180 -51.386  0.00  0.00     0.171 A 
ATOM      2  N   UNL d   1     -41.236-121.409 -50.591  0.00  0.00    -0.225 NA
ATOM      3  N   UNL d   1     -41.183-121.883 -51.826  0.00  0.00    -0.286 N 
ATOM      4  C   UNL d   1     -41.217-122.509 -51.319  0.00  0.00     0.083 A 
ATOM      5  C   UNL d   1     -41.250-122.213 -50.549  0.00  0.00     0.099 A 
ATOM      6  C   UNL d   1     -41.223-123.323 -51.448  0.00  0.00     0.019 A 
ATOM      7  C   UNL d   1     -41.288-122.742 -49.936  0.00  0.00     0.021 A 
ATOM      8  C   UNL d   1     -41.261-123.817 -50.818  0.00  0.00     0.002 A 
ATOM      9  C   UNL d   1     -41.294-123.522 -50.048  0.00  0.00     0.002 A 
ENDROOT
BRANCH   3  10
ATOM     10  C   UNL d   1     -41.142-121.777 -52.631  0.00  0.00     0.108 C 
BRANCH  10  11
ATOM     11  C   UNL d   1     -41.206-122.389 -53.162  0.00  0.00     0.142 C 
BRANCH  11  12
ATOM     12  O   UNL d   1     -41.612-122.325 -53.861  0.00  0.00    -0.304 OA
BRANCH  12  13
ATOM     13  C   UNL d   1     -41.656-122.260 -54.624  0.00  0.00     0.100 A 
ATOM     14  C   UNL d   1     -42.458-122.070 -54.588  0.00  0.00     0.025 A 
ATOM     15  C   UNL d   1     -42.877-121.920 -55.283  0.00  0.00     0.002 A 
ATOM     16  C   UNL d   1     -42.495-121.960 -56.017  0.00  0.00     0.000 A 
ATOM     17  C   UNL d   1     -41.693-122.150 -56.053  0.00  0.00     0.002 A 
ATOM     18  C   UNL d   1     -41.273-122.300 -55.354  0.00  0.00     0.025 A 
ENDBRANCH  12  13
ENDBRANCH  11  12
ENDBRANCH  10  11
ENDBRANCH   3  10
BRANCH   1  19
ATOM     19  C   UNL d   1     -41.168-120.411 -51.680  0.00  0.00     0.134 A 
ATOM     20  O   UNL d   1     -41.162-120.211 -52.464  0.00  0.00    -0.302 OA
ATOM     21  C   UNL d   1     -41.133-119.379 -52.517  0.00  0.00     0.123 A 
ATOM     22  C   UNL d   1     -41.123-119.084 -51.746  0.00  0.00     0.029 A 
ATOM     23  C   UNL d   1     -41.144-119.738 -51.228  0.00  0.00     0.030 A 
ENDBRANCH   1  19
TORSDOF 5
ENDMDL
