MODEL 1
REMARK VINA RESULT:      42.4      0.000      0.000
REMARK  4 active torsions:
REMARK  status: ('A' for Active; 'I' for Inactive)
REMARK    1  A    between atoms: N_8  and  S_1 
REMARK    2  A    between atoms: C_12  and  S_1 
REMARK    3  A    between atoms: C_5  and  C_9 
REMARK    4  A    between atoms: C_15  and  N_8 
ROOT
ATOM      1  C   UNL d   1     -54.765-101.281 -42.920  0.00  0.00     0.021 A 
ATOM      2  C   UNL d   1     -54.776-100.252 -43.906  0.00  0.00     0.094 A 
ATOM      3  C   UNL d   1     -54.765-100.483 -43.116  0.00  0.00     0.021 A 
ATOM      4  C   UNL d   1     -54.777-101.864 -43.507  0.00  0.00     0.002 A 
ATOM      5  C   UNL d   1     -54.789-101.634 -44.305  0.00  0.00     0.002 A 
ATOM      6  C   UNL d   1     -54.789-100.828 -44.512  0.00  0.00     0.020 A 
ENDROOT
BRANCH   2   7
ATOM      7  N   UNL d   1     -54.776 -99.454 -44.101  0.00  0.00    -0.158 NA
BRANCH   7   8
ATOM      8  S   UNL d   1     -55.301 -99.172 -44.671  0.00  0.00     0.285 S 
ATOM      9  O   UNL d   1     -54.851 -99.093 -45.359  0.00  0.00    -0.198 OA
ATOM     10  O   UNL d   1     -55.651 -98.897 -45.369  0.00  0.00    -0.198 OA
BRANCH   8  11
ATOM     11  C   UNL d   1     -56.090 -99.038 -44.467  0.00  0.00     0.105 A 
ATOM     12  C   UNL d   1     -56.672 -99.045 -45.046  0.00  0.00     0.013 A 
ATOM     13  C   UNL d   1     -57.456 -98.911 -44.840  0.00  0.00     0.001 A 
ATOM     14  C   UNL d   1     -57.660 -98.768 -44.047  0.00  0.00     0.000 A 
ATOM     15  C   UNL d   1     -57.063 -98.762 -43.471  0.00  0.00     0.001 A 
ATOM     16  C   UNL d   1     -56.287 -98.896 -43.679  0.00  0.00     0.013 A 
ENDBRANCH   8  11
ENDBRANCH   7   8
ENDBRANCH   2   7
BRANCH   1  17
ATOM     17  C   UNL d   1     -54.753-101.513 -42.126  0.00  0.00     0.118 A 
ATOM     18  N   UNL d   1     -54.744-101.018 -41.466  0.00  0.00    -0.059 NA
ATOM     19  C   UNL d   1     -54.734-101.488 -40.792  0.00  0.00     0.735 A 
ATOM     20  N   UNL d   1     -54.722-101.290 -39.986  0.00  0.00    -0.059 NA
ATOM     21  N   UNL d   1     -54.736-102.276 -41.028  0.00  0.00    -0.136 N 
ATOM     22  C   UNL d   1     -54.713-101.889 -39.420  0.00  0.00     0.119 A 
ATOM     23  C   UNL d   1     -54.715-102.679 -39.651  0.00  0.00     0.041 A 
ATOM     24  C   UNL d   1     -54.726-102.875 -40.449  0.00  0.00     0.100 A 
ATOM     25  C   UNL d   1     -54.748-102.296 -41.852  0.00  0.00     0.118 A 
ENDBRANCH   1  17
TORSDOF 4
ENDMDL
