MODEL 1
REMARK VINA RESULT:      -9.3      0.000      0.000
REMARK  3 active torsions:
REMARK  status: ('A' for Active; 'I' for Inactive)
REMARK    1  A    between atoms: S_3  and  N_1 
REMARK    2  A    between atoms: C_7  and  C_4 
REMARK    3  A    between atoms: C_16  and  C_5 
ROOT
ATOM      1  N   UNL d   1      53.250  32.655  53.566  0.00  0.00    -0.155 N 
ATOM      2  N   UNL d   1      52.825  33.348  53.366  0.00  0.00    -0.156 NA
ATOM      3  C   UNL d   1      52.799  32.014  53.377  0.00  0.00     0.096 A 
ATOM      4  C   UNL d   1      52.104  33.105  53.051  0.00  0.00     0.103 A 
ATOM      5  C   UNL d   1      52.099  32.267  53.063  0.00  0.00     0.041 A 
ENDROOT
BRANCH   3   6
ATOM      6  C   UNL d   1      53.017  31.226  53.487  0.00  0.00     0.021 A 
ATOM      7  C   UNL d   1      52.875  30.828  54.212  0.00  0.00     0.028 A 
ATOM      8  C   UNL d   1      53.093  30.038  54.322  0.00  0.00     0.119 A 
ATOM      9  O   UNL d   1      53.013  29.558  54.952  0.00  0.00    -0.300 OA
ATOM     10  C   UNL d   1      53.453  29.650  53.707  0.00  0.00     0.119 A 
ATOM     11  C   UNL d   1      53.337  28.811  54.745  0.00  0.00     0.304 A 
ATOM     12  O   UNL d   1      53.607  28.892  53.960  0.00  0.00    -0.300 OA
ATOM     13  C   UNL d   1      53.609  29.996  52.995  0.00  0.00     0.026 A 
ATOM     14  C   UNL d   1      53.390  30.786  52.885  0.00  0.00     0.004 A 
ENDBRANCH   3   6
BRANCH   1  15
ATOM     15  S   UNL d   1      54.017  32.656  53.905  0.00  0.00     0.266 S 
ATOM     16  O   UNL d   1      54.313  32.630  53.144  0.00  0.00    -0.203 OA
ATOM     17  O   UNL d   1      53.680  32.683  54.668  0.00  0.00    -0.203 OA
ATOM     18  C   UNL d   1      54.762  32.656  54.225  0.00  0.00     0.165 C 
ENDBRANCH   1  15
BRANCH   4  19
ATOM     19  C   UNL d   1      51.497  33.587  52.774  0.00  0.00     0.019 A 
ATOM     20  C   UNL d   1      50.838  33.668  53.282  0.00  0.00     0.002 A 
ATOM     21  C   UNL d   1      50.205  34.161  53.011  0.00  0.00     0.000 A 
ATOM     22  C   UNL d   1      50.256  34.537  52.274  0.00  0.00     0.000 A 
ATOM     23  C   UNL d   1      50.916  34.429  51.816  0.00  0.00     0.000 A 
ATOM     24  C   UNL d   1      51.523  33.959  52.070  0.00  0.00     0.002 A 
ENDBRANCH   4  19
TORSDOF 3
ENDMDL
MODEL 2
REMARK VINA RESULT:      -9.1      1.856      4.096
REMARK  3 active torsions:
REMARK  status: ('A' for Active; 'I' for Inactive)
REMARK    1  A    between atoms: S_3  and  N_1 
REMARK    2  A    between atoms: C_7  and  C_4 
REMARK    3  A    between atoms: C_16  and  C_5 
ROOT
ATOM      1  N   UNL d   1      54.310  32.591  53.817  0.00  0.00    -0.155 N 
ATOM      2  N   UNL d   1      54.324  31.758  53.736  0.00  0.00    -0.156 NA
ATOM      3  C   UNL d   1      53.543  32.837  53.807  0.00  0.00     0.096 A 
ATOM      4  C   UNL d   1      53.542  31.510  53.678  0.00  0.00     0.103 A 
ATOM      5  C   UNL d   1      53.060  32.194  53.723  0.00  0.00     0.041 A 
ENDROOT
BRANCH   3   6
ATOM      6  C   UNL d   1      53.289  33.620  53.872  0.00  0.00     0.021 A 
ATOM      7  C   UNL d   1      53.282  34.019  54.610  0.00  0.00     0.028 A 
ATOM      8  C   UNL d   1      53.028  34.803  54.675  0.00  0.00     0.119 A 
ATOM      9  O   UNL d   1      52.976  35.283  55.308  0.00  0.00    -0.300 OA
ATOM     10  C   UNL d   1      52.783  35.185  54.002  0.00  0.00     0.119 A 
ATOM     11  C   UNL d   1      52.680  36.023  55.042  0.00  0.00     0.304 A 
ATOM     12  O   UNL d   1      52.565  35.939  54.220  0.00  0.00    -0.300 OA
ATOM     13  C   UNL d   1      52.774  34.837  53.274  0.00  0.00     0.026 A 
ATOM     14  C   UNL d   1      53.028  34.053  53.209  0.00  0.00     0.004 A 
ENDBRANCH   3   6
BRANCH   1  15
ATOM     15  S   UNL d   1      54.996  33.068  53.893  0.00  0.00     0.266 S 
ATOM     16  O   UNL d   1      55.019  33.099  53.077  0.00  0.00    -0.203 OA
ATOM     17  O   UNL d   1      54.942  33.015  54.724  0.00  0.00    -0.203 OA
ATOM     18  C   UNL d   1      55.659  33.529  53.957  0.00  0.00     0.165 C 
ENDBRANCH   1  15
BRANCH   4  19
ATOM     19  C   UNL d   1      53.273  30.736  53.591  0.00  0.00     0.019 A 
ATOM     20  C   UNL d   1      53.472  30.211  54.211  0.00  0.00     0.002 A 
ATOM     21  C   UNL d   1      53.204  29.412  54.136  0.00  0.00     0.000 A 
ATOM     22  C   UNL d   1      52.765  29.180  53.473  0.00  0.00     0.000 A 
ATOM     23  C   UNL d   1      52.595  29.725  52.896  0.00  0.00     0.000 A 
ATOM     24  C   UNL d   1      52.850  30.490  52.963  0.00  0.00     0.002 A 
ENDBRANCH   4  19
TORSDOF 3
ENDMDL
MODEL 3
REMARK VINA RESULT:      -8.9      1.806      4.350
REMARK  3 active torsions:
REMARK  status: ('A' for Active; 'I' for Inactive)
REMARK    1  A    between atoms: S_3  and  N_1 
REMARK    2  A    between atoms: C_7  and  C_4 
REMARK    3  A    between atoms: C_16  and  C_5 
ROOT
ATOM      1  N   UNL d   1      52.624  33.536  53.440  0.00  0.00    -0.155 N 
ATOM      2  N   UNL d   1      53.126  32.893  53.626  0.00  0.00    -0.156 NA
ATOM      3  C   UNL d   1      51.985  33.255  53.036  0.00  0.00     0.096 A 
ATOM      4  C   UNL d   1      52.771  32.216  53.322  0.00  0.00     0.103 A 
ATOM      5  C   UNL d   1      52.056  32.454  52.954  0.00  0.00     0.041 A 
ENDROOT
BRANCH   3   6
ATOM      6  C   UNL d   1      51.360  33.711  52.751  0.00  0.00     0.021 A 
ATOM      7  C   UNL d   1      50.718  33.933  53.244  0.00  0.00     0.028 A 
ATOM      8  C   UNL d   1      50.091  34.390  52.959  0.00  0.00     0.119 A 
ATOM      9  O   UNL d   1      49.436  34.660  53.322  0.00  0.00    -0.300 OA
ATOM     10  C   UNL d   1      50.108  34.623  52.182  0.00  0.00     0.119 A 
ATOM     11  C   UNL d   1      48.993  35.097  52.756  0.00  0.00     0.304 A 
ATOM     12  O   UNL d   1      49.434  35.060  52.048  0.00  0.00    -0.300 OA
ATOM     13  C   UNL d   1      50.706  34.432  51.675  0.00  0.00     0.026 A 
ATOM     14  C   UNL d   1      51.333  33.975  51.961  0.00  0.00     0.004 A 
ENDBRANCH   3   6
BRANCH   1  15
ATOM     15  S   UNL d   1      52.782  34.332  53.650  0.00  0.00     0.266 S 
ATOM     16  O   UNL d   1      52.430  34.173  54.370  0.00  0.00    -0.203 OA
ATOM     17  O   UNL d   1      53.135  34.460  52.905  0.00  0.00    -0.203 OA
ATOM     18  C   UNL d   1      52.931  35.100  53.863  0.00  0.00     0.165 C 
ENDBRANCH   1  15
BRANCH   4  19
ATOM     19  C   UNL d   1      53.056  31.444  53.366  0.00  0.00     0.019 A 
ATOM     20  C   UNL d   1      52.600  30.865  52.972  0.00  0.00     0.002 A 
ATOM     21  C   UNL d   1      52.880  30.068  53.008  0.00  0.00     0.000 A 
ATOM     22  C   UNL d   1      53.576  29.889  53.420  0.00  0.00     0.000 A 
ATOM     23  C   UNL d   1      53.986  30.484  53.788  0.00  0.00     0.000 A 
ATOM     24  C   UNL d   1      53.722  31.248  53.757  0.00  0.00     0.002 A 
ENDBRANCH   4  19
TORSDOF 3
ENDMDL
MODEL 4
REMARK VINA RESULT:      -8.8      1.408      2.592
REMARK  3 active torsions:
REMARK  status: ('A' for Active; 'I' for Inactive)
REMARK    1  A    between atoms: S_3  and  N_1 
REMARK    2  A    between atoms: C_7  and  C_4 
REMARK    3  A    between atoms: C_16  and  C_5 
ROOT
ATOM      1  N   UNL d   1      52.293  32.503  53.041  0.00  0.00    -0.155 N 
ATOM      2  N   UNL d   1      51.549  32.678  52.700  0.00  0.00    -0.156 NA
ATOM      3  C   UNL d   1      52.618  33.188  53.313  0.00  0.00     0.096 A 
ATOM      4  C   UNL d   1      51.436  33.490  52.774  0.00  0.00     0.103 A 
ATOM      5  C   UNL d   1      52.112  33.800  53.160  0.00  0.00     0.041 A 
ENDROOT
BRANCH   3   6
ATOM      6  C   UNL d   1      53.350  33.256  53.688  0.00  0.00     0.021 A 
ATOM      7  C   UNL d   1      53.409  33.389  54.514  0.00  0.00     0.028 A 
ATOM      8  C   UNL d   1      54.143  33.457  54.890  0.00  0.00     0.119 A 
ATOM      9  O   UNL d   1      54.328  33.581  55.654  0.00  0.00    -0.300 OA
ATOM     10  C   UNL d   1      54.814  33.392  54.437  0.00  0.00     0.119 A 
ATOM     11  C   UNL d   1      55.166  33.600  55.714  0.00  0.00     0.304 A 
ATOM     12  O   UNL d   1      55.450  33.479  54.939  0.00  0.00    -0.300 OA
ATOM     13  C   UNL d   1      54.800  33.264  53.641  0.00  0.00     0.026 A 
ATOM     14  C   UNL d   1      54.067  33.196  53.266  0.00  0.00     0.004 A 
ENDBRANCH   3   6
BRANCH   1  15
ATOM     15  S   UNL d   1      52.623  31.733  53.081  0.00  0.00     0.266 S 
ATOM     16  O   UNL d   1      52.938  31.870  52.340  0.00  0.00    -0.203 OA
ATOM     17  O   UNL d   1      52.286  31.627  53.837  0.00  0.00    -0.203 OA
ATOM     18  C   UNL d   1      52.945  30.990  53.111  0.00  0.00     0.165 C 
ENDBRANCH   1  15
BRANCH   4  19
ATOM     19  C   UNL d   1      50.784  33.924  52.520  0.00  0.00     0.019 A 
ATOM     20  C   UNL d   1      50.331  34.285  53.123  0.00  0.00     0.002 A 
ATOM     21  C   UNL d   1      49.658  34.734  52.878  0.00  0.00     0.000 A 
ATOM     22  C   UNL d   1      49.472  34.803  52.073  0.00  0.00     0.000 A 
ATOM     23  C   UNL d   1      49.941  34.434  51.523  0.00  0.00     0.000 A 
ATOM     24  C   UNL d   1      50.586  34.003  51.752  0.00  0.00     0.002 A 
ENDBRANCH   4  19
TORSDOF 3
ENDMDL
MODEL 5
REMARK VINA RESULT:      -8.8      2.069      4.375
REMARK  3 active torsions:
REMARK  status: ('A' for Active; 'I' for Inactive)
REMARK    1  A    between atoms: S_3  and  N_1 
REMARK    2  A    between atoms: C_7  and  C_4 
REMARK    3  A    between atoms: C_16  and  C_5 
ROOT
ATOM      1  N   UNL d   1      51.859  33.017  53.104  0.00  0.00    -0.155 N 
ATOM      2  N   UNL d   1      51.868  32.188  52.987  0.00  0.00    -0.156 NA
ATOM      3  C   UNL d   1      52.560  33.237  53.436  0.00  0.00     0.096 A 
ATOM      4  C   UNL d   1      52.595  31.916  53.260  0.00  0.00     0.103 A 
ATOM      5  C   UNL d   1      53.021  32.582  53.539  0.00  0.00     0.041 A 
ENDROOT
BRANCH   3   6
ATOM      6  C   UNL d   1      52.772  34.008  53.639  0.00  0.00     0.021 A 
ATOM      7  C   UNL d   1      52.708  34.288  54.428  0.00  0.00     0.028 A 
ATOM      8  C   UNL d   1      52.922  35.061  54.631  0.00  0.00     0.119 A 
ATOM      9  O   UNL d   1      52.906  35.438  55.332  0.00  0.00    -0.300 OA
ATOM     10  C   UNL d   1      53.198  35.550  54.046  0.00  0.00     0.119 A 
ATOM     11  C   UNL d   1      53.188  36.219  55.207  0.00  0.00     0.304 A 
ATOM     12  O   UNL d   1      53.365  36.267  54.393  0.00  0.00    -0.300 OA
ATOM     13  C   UNL d   1      53.275  35.320  53.277  0.00  0.00     0.026 A 
ATOM     14  C   UNL d   1      53.062  34.547  53.073  0.00  0.00     0.004 A 
ENDBRANCH   3   6
BRANCH   1  15
ATOM     15  S   UNL d   1      51.215  33.514  52.899  0.00  0.00     0.266 S 
ATOM     16  O   UNL d   1      50.905  33.352  53.637  0.00  0.00    -0.203 OA
ATOM     17  O   UNL d   1      51.561  33.657  52.153  0.00  0.00    -0.203 OA
ATOM     18  C   UNL d   1      50.589  33.992  52.710  0.00  0.00     0.165 C 
ENDBRANCH   1  15
BRANCH   4  19
ATOM     19  C   UNL d   1      52.863  31.137  53.262  0.00  0.00     0.019 A 
ATOM     20  C   UNL d   1      53.579  31.000  53.672  0.00  0.00     0.002 A 
ATOM     21  C   UNL d   1      53.867  30.205  53.683  0.00  0.00     0.000 A 
ATOM     22  C   UNL d   1      53.446  29.603  53.299  0.00  0.00     0.000 A 
ATOM     23  C   UNL d   1      52.755  29.783  52.914  0.00  0.00     0.000 A 
ATOM     24  C   UNL d   1      52.475  30.542  52.900  0.00  0.00     0.002 A 
ENDBRANCH   4  19
TORSDOF 3
ENDMDL
MODEL 6
REMARK VINA RESULT:      -8.4      1.804      4.292
REMARK  3 active torsions:
REMARK  status: ('A' for Active; 'I' for Inactive)
REMARK    1  A    between atoms: S_3  and  N_1 
REMARK    2  A    between atoms: C_7  and  C_4 
REMARK    3  A    between atoms: C_16  and  C_5 
ROOT
ATOM      1  N   UNL d   1      52.790  32.591  53.382  0.00  0.00    -0.155 N 
ATOM      2  N   UNL d   1      53.475  32.511  53.857  0.00  0.00    -0.156 NA
ATOM      3  C   UNL d   1      52.585  33.370  53.357  0.00  0.00     0.096 A 
ATOM      4  C   UNL d   1      53.676  33.266  54.117  0.00  0.00     0.103 A 
ATOM      5  C   UNL d   1      53.111  33.797  53.797  0.00  0.00     0.041 A 
ENDROOT
BRANCH   3   6
ATOM      6  C   UNL d   1      51.941  33.683  52.947  0.00  0.00     0.021 A 
ATOM      7  C   UNL d   1      51.202  33.813  53.322  0.00  0.00     0.028 A 
ATOM      8  C   UNL d   1      50.557  34.126  52.911  0.00  0.00     0.119 A 
ATOM      9  O   UNL d   1      49.816  34.292  53.153  0.00  0.00    -0.300 OA
ATOM     10  C   UNL d   1      50.653  34.309  52.127  0.00  0.00     0.119 A 
ATOM     11  C   UNL d   1      49.398  34.602  52.493  0.00  0.00     0.304 A 
ATOM     12  O   UNL d   1      49.942  34.603  51.861  0.00  0.00    -0.300 OA
ATOM     13  C   UNL d   1      51.346  34.200  51.728  0.00  0.00     0.026 A 
ATOM     14  C   UNL d   1      51.991  33.886  52.139  0.00  0.00     0.004 A 
ENDBRANCH   3   6
BRANCH   1  15
ATOM     15  S   UNL d   1      52.402  31.951  53.006  0.00  0.00     0.266 S 
ATOM     16  O   UNL d   1      52.901  32.070  52.371  0.00  0.00    -0.203 OA
ATOM     17  O   UNL d   1      51.908  31.857  53.673  0.00  0.00    -0.203 OA
ATOM     18  C   UNL d   1      52.031  31.332  52.635  0.00  0.00     0.165 C 
ENDBRANCH   1  15
BRANCH   4  19
ATOM     19  C   UNL d   1      54.310  33.470  54.601  0.00  0.00     0.019 A 
ATOM     20  C   UNL d   1      55.023  33.657  54.204  0.00  0.00     0.002 A 
ATOM     21  C   UNL d   1      55.684  33.869  54.687  0.00  0.00     0.000 A 
ATOM     22  C   UNL d   1      55.610  33.885  55.513  0.00  0.00     0.000 A 
ATOM     23  C   UNL d   1      54.898  33.696  55.853  0.00  0.00     0.000 A 
ATOM     24  C   UNL d   1      54.263  33.493  55.396  0.00  0.00     0.002 A 
ENDBRANCH   4  19
TORSDOF 3
ENDMDL
