MODEL 1
REMARK VINA RESULT:       4.7      0.000      0.000
REMARK  2 active torsions:
REMARK  status: ('A' for Active; 'I' for Inactive)
REMARK    1  A    between atoms: C_3  and  C_1 
REMARK       I    between atoms: C_2  and  N_4 
REMARK    2  A    between atoms: N_4  and  C_9 
ROOT
ATOM      1  C   UNL d   1      23.463  12.949  -1.119  0.00  0.00     0.065 A 
ATOM      2  C   UNL d   1      24.282  12.902  -1.190  0.00  0.00     0.008 A 
ATOM      3  C   UNL d   1      22.981  12.616  -1.697  0.00  0.00     0.008 A 
ATOM      4  C   UNL d   1      24.140  12.185  -2.426  0.00  0.00     0.085 A 
ATOM      5  C   UNL d   1      24.622  12.519  -1.847  0.00  0.00     0.019 A 
ATOM      6  C   UNL d   1      23.318  12.236  -2.347  0.00  0.00     0.019 A 
ENDROOT
BRANCH   4   7
ATOM      7  N   UNL d   1      24.473  11.805  -3.077  0.00  0.00    -0.208 NA
ATOM      8  C   UNL d   1      24.435  12.161  -3.822  0.00  0.00     0.279 C 
ATOM      9  O   UNL d   1      24.768  11.780  -4.473  0.00  0.00    -0.265 OA
ATOM     10  C   UNL d   1      24.066  12.891  -3.911  0.00  0.00     0.068 C 
ENDBRANCH   4   7
BRANCH   1  11
ATOM     11  C   UNL d   1      23.124  13.331  -0.465  0.00  0.00     0.211 C 
ATOM     12  O   UNL d   1      22.340  13.184  -0.263  0.00  0.00    -0.644 OA
ATOM     13  O   UNL d   1      23.572  13.857  -0.017  0.00  0.00    -0.644 OA
ENDBRANCH   1  11
TORSDOF 2
ENDMDL
MODEL 2
REMARK VINA RESULT:       7.6      9.427     10.423
REMARK  2 active torsions:
REMARK  status: ('A' for Active; 'I' for Inactive)
REMARK    1  A    between atoms: C_3  and  C_1 
REMARK       I    between atoms: C_2  and  N_4 
REMARK    2  A    between atoms: N_4  and  C_9 
ROOT
ATOM      1  C   UNL d   1      13.379  12.215  -3.516  0.00  0.00     0.065 A 
ATOM      2  C   UNL d   1      14.169  12.342  -3.319  0.00  0.00     0.008 A 
ATOM      3  C   UNL d   1      12.853  11.944  -2.945  0.00  0.00     0.008 A 
ATOM      4  C   UNL d   1      13.906  11.927  -1.970  0.00  0.00     0.085 A 
ATOM      5  C   UNL d   1      14.433  12.198  -2.543  0.00  0.00     0.019 A 
ATOM      6  C   UNL d   1      13.115  11.801  -2.176  0.00  0.00     0.019 A 
ENDROOT
BRANCH   4   7
ATOM      7  N   UNL d   1      14.164  11.783  -1.200  0.00  0.00    -0.208 NA
ATOM      8  C   UNL d   1      14.698  12.305  -0.844  0.00  0.00     0.279 C 
ATOM      9  O   UNL d   1      14.956  12.160  -0.074  0.00  0.00    -0.265 OA
ATOM     10  C   UNL d   1      14.968  12.963  -1.256  0.00  0.00     0.068 C 
ENDBRANCH   4   7
BRANCH   1  11
ATOM     11  C   UNL d   1      13.116  12.359  -4.290  0.00  0.00     0.211 C 
ATOM     12  O   UNL d   1      13.202  11.779  -4.869  0.00  0.00    -0.644 OA
ATOM     13  O   UNL d   1      12.769  13.080  -4.479  0.00  0.00    -0.644 OA
ENDBRANCH   1  11
TORSDOF 2
ENDMDL
