MODEL 1
REMARK VINA RESULT:      -9.4      0.000      0.000
REMARK  2 active torsions:
REMARK  status: ('A' for Active; 'I' for Inactive)
REMARK    1  A    between atoms: C_7  and  C_1 
REMARK    2  A    between atoms: C_11  and  C_7 
ROOT
ATOM      1  C   UNL d   1      53.787  33.470  53.862  0.00  0.00     0.116 A 
ATOM      2  N   UNL d   1      52.974  34.587  54.188  0.00  0.00    -0.152 NA
ATOM      3  N   UNL d   1      53.921  34.074  55.153  0.00  0.00    -0.152 NA
ATOM      4  C   UNL d   1      53.219  34.005  53.671  0.00  0.00     0.288 A 
ATOM      5  C   UNL d   1      54.141  33.503  54.607  0.00  0.00     0.288 A 
ATOM      6  C   UNL d   1      53.338  34.621  54.954  0.00  0.00     0.374 A 
ATOM      7  O   UNL d   1      54.736  32.955  54.828  0.00  0.00    -0.265 OA
ATOM      8  O   UNL d   1      52.865  33.963  52.911  0.00  0.00    -0.265 OA
ATOM      9  O   UNL d   1      53.129  35.193  55.523  0.00  0.00    -0.242 OA
ENDROOT
BRANCH   1  10
ATOM     10  C   UNL d   1      54.023  32.880  53.314  0.00  0.00     0.010 C 
BRANCH  10  11
ATOM     11  C   UNL d   1      53.617  32.162  53.310  0.00  0.00     0.000 A 
ATOM     12  C   UNL d   1      53.929  31.518  53.708  0.00  0.00     0.002 A 
ATOM     13  C   UNL d   1      53.529  30.808  53.705  0.00  0.00     0.030 A 
ATOM     14  C   UNL d   1      52.808  30.738  53.300  0.00  0.00     0.140 A 
ATOM     15  C   UNL d   1      52.496  31.382  52.903  0.00  0.00     0.030 A 
ATOM     16  F   UNL d   1      52.376  30.015  53.282  0.00  0.00    -0.204 F 
ATOM     17  C   UNL d   1      52.897  32.092  52.906  0.00  0.00     0.002 A 
ENDBRANCH  10  11
ENDBRANCH   1  10
TORSDOF 2
ENDMDL
MODEL 2
REMARK VINA RESULT:      -9.2      2.056      2.782
REMARK  2 active torsions:
REMARK  status: ('A' for Active; 'I' for Inactive)
REMARK    1  A    between atoms: C_7  and  C_1 
REMARK    2  A    between atoms: C_11  and  C_7 
ROOT
ATOM      1  C   UNL d   1      52.478  33.569  53.060  0.00  0.00     0.116 A 
ATOM      2  N   UNL d   1      51.109  33.195  53.049  0.00  0.00    -0.152 NA
ATOM      3  N   UNL d   1      51.478  34.593  53.030  0.00  0.00    -0.152 NA
ATOM      4  C   UNL d   1      51.903  33.008  53.062  0.00  0.00     0.288 A 
ATOM      5  C   UNL d   1      52.267  34.367  53.043  0.00  0.00     0.288 A 
ATOM      6  C   UNL d   1      50.891  34.014  53.032  0.00  0.00     0.374 A 
ATOM      7  O   UNL d   1      52.849  34.969  53.040  0.00  0.00    -0.265 OA
ATOM      8  O   UNL d   1      52.129  32.200  53.079  0.00  0.00    -0.265 OA
ATOM      9  O   UNL d   1      50.097  34.266  53.018  0.00  0.00    -0.242 OA
ENDROOT
BRANCH   1  10
ATOM     10  C   UNL d   1      53.289  33.352  53.073  0.00  0.00     0.010 C 
BRANCH  10  11
ATOM     11  C   UNL d   1      53.658  33.255  53.805  0.00  0.00     0.000 A 
ATOM     12  C   UNL d   1      53.688  32.513  54.148  0.00  0.00     0.002 A 
ATOM     13  C   UNL d   1      54.052  32.416  54.871  0.00  0.00     0.030 A 
ATOM     14  C   UNL d   1      54.390  33.067  55.257  0.00  0.00     0.140 A 
ATOM     15  C   UNL d   1      54.360  33.809  54.914  0.00  0.00     0.030 A 
ATOM     16  F   UNL d   1      54.772  32.993  56.006  0.00  0.00    -0.204 F 
ATOM     17  C   UNL d   1      53.996  33.906  54.191  0.00  0.00     0.002 A 
ENDBRANCH  10  11
ENDBRANCH   1  10
TORSDOF 2
ENDMDL
MODEL 3
REMARK VINA RESULT:      -8.9      2.202      3.461
REMARK  2 active torsions:
REMARK  status: ('A' for Active; 'I' for Inactive)
REMARK    1  A    between atoms: C_7  and  C_1 
REMARK    2  A    between atoms: C_11  and  C_7 
ROOT
ATOM      1  C   UNL d   1      53.450  32.035  53.187  0.00  0.00     0.116 A 
ATOM      2  N   UNL d   1      53.452  30.681  53.611  0.00  0.00    -0.152 NA
ATOM      3  N   UNL d   1      52.353  31.191  52.821  0.00  0.00    -0.152 NA
ATOM      4  C   UNL d   1      53.793  31.421  53.576  0.00  0.00     0.288 A 
ATOM      5  C   UNL d   1      52.726  31.922  52.807  0.00  0.00     0.288 A 
ATOM      6  C   UNL d   1      52.708  30.564  53.220  0.00  0.00     0.374 A 
ATOM      7  O   UNL d   1      52.350  32.547  52.396  0.00  0.00    -0.265 OA
ATOM      8  O   UNL d   1      54.528  31.548  53.959  0.00  0.00    -0.265 OA
ATOM      9  O   UNL d   1      52.313  29.830  53.222  0.00  0.00    -0.242 OA
ENDROOT
BRANCH   1  10
ATOM     10  C   UNL d   1      53.819  32.789  53.164  0.00  0.00     0.010 C 
BRANCH  10  11
ATOM     11  C   UNL d   1      53.658  33.324  53.771  0.00  0.00     0.000 A 
ATOM     12  C   UNL d   1      54.125  33.327  54.443  0.00  0.00     0.002 A 
ATOM     13  C   UNL d   1      53.966  33.856  55.043  0.00  0.00     0.030 A 
ATOM     14  C   UNL d   1      53.334  34.389  54.972  0.00  0.00     0.140 A 
ATOM     15  C   UNL d   1      52.868  34.385  54.300  0.00  0.00     0.030 A 
ATOM     16  F   UNL d   1      53.150  34.945  55.579  0.00  0.00    -0.204 F 
ATOM     17  C   UNL d   1      53.026  33.857  53.700  0.00  0.00     0.002 A 
ENDBRANCH  10  11
ENDBRANCH   1  10
TORSDOF 2
ENDMDL
