MODEL 1
REMARK VINA RESULT:      19.4      0.000      0.000
REMARK  8 active torsions:
REMARK  status: ('A' for Active; 'I' for Inactive)
REMARK    1  A    between atoms: N_2  and  S_1 
REMARK    2  A    between atoms: C_5  and  S_1 
REMARK    3  A    between atoms: C_11  and  C_3 
REMARK       I    between atoms: C_4  and  N_9 
REMARK    4  A    between atoms: C_6  and  C_4 
REMARK       I    between atoms: N_16  and  C_6 
REMARK    5  A    between atoms: N_9  and  C_11 
REMARK    6  A    between atoms: N_10  and  C_25 
REMARK    7  A    between atoms: C_24  and  N_16 
REMARK    8  A    between atoms: C_25  and  C_24 
ROOT
ATOM      1  N   UNL d   1     -42.240-121.518 -54.480  0.00  0.00    -0.209 N 
ATOM      2  C   UNL d   1     -42.596-122.092 -54.009  0.00  0.00     0.197 A 
ATOM      3  O   UNL d   1     -42.790-122.825 -54.308  0.00  0.00    -0.287 OA
ATOM      4  C   UNL d   1     -42.072-121.686 -55.281  0.00  0.00     0.096 A 
ATOM      5  C   UNL d   1     -42.270-122.438 -55.591  0.00  0.00     0.047 A 
ATOM      6  C   UNL d   1     -42.625-122.998 -55.105  0.00  0.00     0.126 A 
ENDROOT
BRANCH   2   7
ATOM      7  C   UNL d   1     -42.761-121.914 -53.207  0.00  0.00     0.146 C 
BRANCH   7   8
ATOM      8  N   UNL d   1     -42.437-122.376 -52.608  0.00  0.00    -0.199 NA
ATOM      9  C   UNL d   1     -42.755-122.368 -51.854  0.00  0.00     0.337 C 
ATOM     10  O   UNL d   1     -43.409-121.887 -51.702  0.00  0.00    -0.260 OA
BRANCH   9  11
ATOM     11  C   UNL d   1     -42.433-122.828 -51.259  0.00  0.00     0.337 C 
ATOM     12  O   UNL d   1     -41.939-123.461 -51.450  0.00  0.00    -0.260 OA
ATOM     13  N   UNL d   1     -42.599-122.661 -50.475  0.00  0.00    -0.201 NA
BRANCH  13  14
ATOM     14  C   UNL d   1     -42.279-123.117 -49.883  0.00  0.00     0.121 C 
BRANCH  14  15
ATOM     15  C   UNL d   1     -41.843-122.770 -49.275  0.00  0.00     0.101 C 
BRANCH  15  16
ATOM     16  N   UNL d   1     -41.875-123.093 -48.514  0.00  0.00    -0.298 N 
ATOM     17  C   UNL d   1     -41.223-123.486 -48.212  0.00  0.00     0.107 A 
ATOM     18  C   UNL d   1     -41.244-123.817 -47.445  0.00  0.00     0.142 A 
ATOM     19  O   UNL d   1     -41.928-123.744 -46.995  0.00  0.00    -0.300 OA
ATOM     20  C   UNL d   1     -42.590-123.335 -47.323  0.00  0.00     0.142 A 
ATOM     21  C   UNL d   1     -42.561-123.022 -48.059  0.00  0.00     0.107 A 
ENDBRANCH  15  16
ENDBRANCH  14  15
ENDBRANCH  13  14
ENDBRANCH   9  11
ENDBRANCH   7   8
ENDBRANCH   2   7
BRANCH   1  22
ATOM     22  S   UNL d   1     -42.047-120.781 -54.173  0.00  0.00     0.273 S 
ATOM     23  O   UNL d   1     -42.761-120.475 -54.456  0.00  0.00    -0.200 OA
ATOM     24  O   UNL d   1     -41.335-121.087 -53.891  0.00  0.00    -0.200 OA
BRANCH  22  25
ATOM     25  C   UNL d   1     -41.849-120.036 -53.861  0.00  0.00     0.104 A 
ATOM     26  C   UNL d   1     -42.164-119.362 -54.187  0.00  0.00     0.015 A 
ATOM     27  C   UNL d   1     -41.968-118.614 -53.879  0.00  0.00     0.030 A 
ATOM     28  C   UNL d   1     -41.452-118.565 -53.239  0.00  0.00     0.140 A 
ATOM     29  C   UNL d   1     -41.123-119.256 -52.897  0.00  0.00     0.030 A 
ATOM     30  F   UNL d   1     -41.256-117.825 -52.929  0.00  0.00    -0.204 F 
ATOM     31  C   UNL d   1     -41.327-119.986 -53.214  0.00  0.00     0.015 A 
ENDBRANCH  22  25
ENDBRANCH   1  22
TORSDOF 8
ENDMDL
MODEL 2
REMARK VINA RESULT:      20.6      1.571      2.712
REMARK  8 active torsions:
REMARK  status: ('A' for Active; 'I' for Inactive)
REMARK    1  A    between atoms: N_2  and  S_1 
REMARK    2  A    between atoms: C_5  and  S_1 
REMARK    3  A    between atoms: C_11  and  C_3 
REMARK       I    between atoms: C_4  and  N_9 
REMARK    4  A    between atoms: C_6  and  C_4 
REMARK       I    between atoms: N_16  and  C_6 
REMARK    5  A    between atoms: N_9  and  C_11 
REMARK    6  A    between atoms: N_10  and  C_25 
REMARK    7  A    between atoms: C_24  and  N_16 
REMARK    8  A    between atoms: C_25  and  C_24 
ROOT
ATOM      1  N   UNL d   1     -41.998-120.783 -54.096  0.00  0.00    -0.209 N 
ATOM      2  C   UNL d   1     -41.966-120.904 -53.283  0.00  0.00     0.197 A 
ATOM      3  O   UNL d   1     -41.691-120.326 -52.779  0.00  0.00    -0.287 OA
ATOM      4  C   UNL d   1     -41.744-120.055 -54.417  0.00  0.00     0.096 A 
ATOM      5  C   UNL d   1     -41.461-119.459 -53.903  0.00  0.00     0.047 A 
ATOM      6  C   UNL d   1     -41.436-119.598 -53.092  0.00  0.00     0.126 A 
ENDROOT
BRANCH   2   7
ATOM      7  C   UNL d   1     -42.224-121.638 -52.971  0.00  0.00     0.146 C 
BRANCH   7   8
ATOM      8  N   UNL d   1     -42.144-121.794 -52.167  0.00  0.00    -0.199 NA
ATOM      9  C   UNL d   1     -41.897-122.529 -51.905  0.00  0.00     0.337 C 
ATOM     10  O   UNL d   1     -41.727-123.115 -52.463  0.00  0.00    -0.260 OA
BRANCH   9  11
ATOM     11  C   UNL d   1     -41.817-122.685 -51.106  0.00  0.00     0.337 C 
ATOM     12  O   UNL d   1     -41.369-122.179 -50.632  0.00  0.00    -0.260 OA
ATOM     13  N   UNL d   1     -42.181-123.340 -50.777  0.00  0.00    -0.201 NA
BRANCH  13  14
ATOM     14  C   UNL d   1     -42.103-123.494 -49.982  0.00  0.00     0.121 C 
BRANCH  14  15
ATOM     15  C   UNL d   1     -41.910-122.889 -49.455  0.00  0.00     0.101 C 
BRANCH  15  16
ATOM     16  N   UNL d   1     -42.059-122.990 -48.647  0.00  0.00    -0.298 N 
ATOM     17  C   UNL d   1     -42.379-122.375 -48.212  0.00  0.00     0.107 A 
ATOM     18  C   UNL d   1     -42.533-122.465 -47.397  0.00  0.00     0.142 A 
ATOM     19  O   UNL d   1     -42.360-123.182 -47.032  0.00  0.00    -0.300 OA
ATOM     20  C   UNL d   1     -42.030-123.805 -47.497  0.00  0.00     0.142 A 
ATOM     21  C   UNL d   1     -41.885-123.709 -48.278  0.00  0.00     0.107 A 
ENDBRANCH  15  16
ENDBRANCH  14  15
ENDBRANCH  13  14
ENDBRANCH   9  11
ENDBRANCH   7   8
ENDBRANCH   2   7
BRANCH   1  22
ATOM     22  S   UNL d   1     -42.278-121.370 -54.599  0.00  0.00     0.273 S 
ATOM     23  O   UNL d   1     -43.056-121.159 -54.415  0.00  0.00    -0.200 OA
ATOM     24  O   UNL d   1     -41.502-121.581 -54.782  0.00  0.00    -0.200 OA
BRANCH  22  25
ATOM     25  C   UNL d   1     -42.557-121.965 -55.109  0.00  0.00     0.104 A 
ATOM     26  C   UNL d   1     -42.317-121.981 -55.885  0.00  0.00     0.015 A 
ATOM     27  C   UNL d   1     -42.594-122.575 -56.399  0.00  0.00     0.030 A 
ATOM     28  C   UNL d   1     -43.114-123.145 -56.112  0.00  0.00     0.140 A 
ATOM     29  C   UNL d   1     -43.366-123.135 -55.312  0.00  0.00     0.030 A 
ATOM     30  F   UNL d   1     -43.392-123.735 -56.618  0.00  0.00    -0.204 F 
ATOM     31  C   UNL d   1     -43.083-122.542 -54.818  0.00  0.00     0.015 A 
ENDBRANCH  22  25
ENDBRANCH   1  22
TORSDOF 8
ENDMDL
