MODEL 1
REMARK VINA RESULT:      13.0      0.000      0.000
REMARK  4 active torsions:
REMARK  status: ('A' for Active; 'I' for Inactive)
REMARK    1  A    between atoms: N_3  and  C_1 
REMARK       I    between atoms: C_7  and  N_3 
REMARK    2  A    between atoms: S_10  and  C_5 
REMARK    3  A    between atoms: C_9  and  C_7 
REMARK    4  A    between atoms: C_13  and  S_10 
ROOT
ATOM      1  N   UNL d   1      13.440  12.421  -2.661  0.00  0.00    -0.181 NA
ATOM      2  C   UNL d   1      14.175  12.105  -2.445  0.00  0.00     0.281 C 
ATOM      3  O   UNL d   1      14.691  11.795  -3.024  0.00  0.00    -0.265 OA
ENDROOT
BRANCH   1   4
ATOM      4  C   UNL d   1      13.230  12.425  -3.433  0.00  0.00     0.219 A 
ATOM      5  S   UNL d   1      13.173  11.826  -4.000  0.00  0.00    -0.019 SA
ATOM      6  C   UNL d   1      12.925  12.168  -4.710  0.00  0.00     0.165 A 
ATOM      7  N   UNL d   1      12.830  12.952  -4.590  0.00  0.00    -0.133 NA
ATOM      8  N   UNL d   1      13.012  13.101  -3.830  0.00  0.00    -0.120 NA
BRANCH   6   9
ATOM      9  S   UNL d   1      12.787  11.782  -5.447  0.00  0.00    -0.059 SA
BRANCH   9  10
ATOM     10  C   UNL d   1      13.143  12.033  -6.109  0.00  0.00     0.037 C 
ATOM     11  C   UNL d   1      13.913  11.816  -6.274  0.00  0.00     0.008 C 
ENDBRANCH   9  10
ENDBRANCH   6   9
ENDBRANCH   1   4
BRANCH   2  12
ATOM     12  C   UNL d   1      14.388  12.107  -1.620  0.00  0.00     0.058 A 
ATOM     13  C   UNL d   1      13.853  11.902  -1.028  0.00  0.00     0.005 A 
ATOM     14  C   UNL d   1      14.099  11.915  -0.224  0.00  0.00     0.000 A 
ATOM     15  C   UNL d   1      14.863  12.128  -0.015  0.00  0.00     0.000 A 
ATOM     16  C   UNL d   1      15.403  12.333  -0.596  0.00  0.00     0.000 A 
ATOM     17  C   UNL d   1      15.165  12.323  -1.409  0.00  0.00     0.005 A 
ENDBRANCH   2  12
TORSDOF 4
ENDMDL
