MODEL 1
REMARK VINA RESULT:      10.0      0.000      0.000
REMARK  5 active torsions:
REMARK  status: ('A' for Active; 'I' for Inactive)
REMARK    1  A    between atoms: C_3  and  C_1 
REMARK    2  A    between atoms: C_4  and  C_3 
REMARK    3  A    between atoms: C_7  and  C_4 
REMARK    4  A    between atoms: C_10  and  C_7 
REMARK    5  A    between atoms: O_19  and  C_9 
ROOT
ATOM      1  C   UNL d   1      45.415 -16.000  44.531  0.00  0.00     0.199 C 
ATOM      2  O   UNL d   1      44.779 -16.311  44.955  0.00  0.00    -0.286 OA
ENDROOT
BRANCH   1   3
ATOM      3  C   UNL d   1      45.561 -15.190  44.543  0.00  0.00     0.078 A 
ATOM      4  C   UNL d   1      44.960 -14.665  44.751  0.00  0.00     0.201 A 
ATOM      5  C   UNL d   1      45.109 -13.851  44.762  0.00  0.00     0.066 A 
ATOM      6  O   UNL d   1      44.210 -14.946  44.949  0.00  0.00    -0.286 OA
ATOM      7  C   UNL d   1      45.856 -13.566  44.565  0.00  0.00     0.097 A 
ATOM      8  C   UNL d   1      46.457 -14.092  44.357  0.00  0.00     0.025 A 
ATOM      9  C   UNL d   1      46.311 -14.902  44.345  0.00  0.00     0.008 A 
BRANCH   7  10
ATOM     10  O   UNL d   1      46.007 -12.750  44.576  0.00  0.00    -0.328 OA
ATOM     11  C   UNL d   1      45.577 -12.244  44.087  0.00  0.00     0.181 C 
ENDBRANCH   7  10
ENDBRANCH   1   3
BRANCH   1  12
ATOM     12  C   UNL d   1      45.904 -16.499  44.096  0.00  0.00     0.042 C 
BRANCH  12  13
ATOM     13  C   UNL d   1      46.071 -17.265  44.372  0.00  0.00     0.003 C 
BRANCH  13  14
ATOM     14  C   UNL d   1      46.216 -17.874  43.838  0.00  0.00     0.000 A 
ATOM     15  C   UNL d   1      46.279 -17.703  43.034  0.00  0.00     0.001 A 
ATOM     16  C   UNL d   1      46.423 -18.312  42.499  0.00  0.00     0.011 A 
ATOM     17  C   UNL d   1      46.503 -19.102  42.794  0.00  0.00     0.058 A 
ATOM     18  C   UNL d   1      46.440 -19.261  43.575  0.00  0.00     0.011 A 
ATOM     19 CL   UNL d   1      46.647 -19.715  42.272  0.00  0.00    -0.082 Cl
ATOM     20  C   UNL d   1      46.296 -18.651  44.109  0.00  0.00     0.001 A 
ENDBRANCH  13  14
ENDBRANCH  12  13
ENDBRANCH   1  12
TORSDOF 5
ENDMDL
