MODEL 1
REMARK VINA RESULT:      33.5      0.000      0.000
REMARK  2 active torsions:
REMARK  status: ('A' for Active; 'I' for Inactive)
REMARK    1  A    between atoms: N_10  and  C_1 
REMARK       I    between atoms: C_12  and  N_10 
REMARK    2  A    between atoms: C_17  and  C_12 
ROOT
ATOM      1  C   UNL d   1      60.196  49.652  50.584  0.00  0.00     0.197 A 
ATOM      2  C   UNL d   1      58.891  49.671  50.352  0.00  0.00     0.057 A 
ATOM      3  C   UNL d   1      58.089  49.681  50.384  0.00  0.00     0.056 A 
ATOM      4  N   UNL d   1      60.115  49.662  49.786  0.00  0.00    -0.221 NA
ATOM      5  S   UNL d   1      59.455  49.657  50.972  0.00  0.00    -0.046 SA
ATOM      6  N   UNL d   1      56.860  49.702  49.889  0.00  0.00    -0.238 NA
ATOM      7  S   UNL d   1      57.559  49.680  50.999  0.00  0.00    -0.066 SA
ATOM      8  C   UNL d   1      59.290  49.674  49.633  0.00  0.00     0.090 A 
ATOM      9  C   UNL d   1      57.639  49.694  49.687  0.00  0.00     0.088 A 
ATOM     10  C   UNL d   1      56.761  49.694  50.673  0.00  0.00     0.111 A 
ATOM     11  C   UNL d   1      58.858  49.688  48.931  0.00  0.00     0.021 A 
ATOM     12  C   UNL d   1      58.014  49.698  48.955  0.00  0.00     0.021 A 
ATOM     13  C   UNL d   1      56.034  49.698  51.091  0.00  0.00     0.028 C 
ENDROOT
BRANCH   1  14
ATOM     14  N   UNL d   1      60.944  49.638  51.000  0.00  0.00    -0.183 NA
ATOM     15  C   UNL d   1      61.216  48.923  51.291  0.00  0.00     0.281 C 
ATOM     16  O   UNL d   1      60.717  48.242  51.148  0.00  0.00    -0.265 OA
BRANCH  15  17
ATOM     17  C   UNL d   1      61.905  48.909  51.673  0.00  0.00     0.063 C 
ATOM     18  C   UNL d   1      62.132  49.640  52.247  0.00  0.00     0.005 C 
ENDBRANCH  15  17
ENDBRANCH   1  14
TORSDOF 2
ENDMDL
MODEL 2
REMARK VINA RESULT:      34.2      1.021      1.478
REMARK  2 active torsions:
REMARK  status: ('A' for Active; 'I' for Inactive)
REMARK    1  A    between atoms: N_10  and  C_1 
REMARK       I    between atoms: C_12  and  N_10 
REMARK    2  A    between atoms: C_17  and  C_12 
ROOT
ATOM      1  C   UNL d   1      59.771  49.572  50.797  0.00  0.00     0.197 A 
ATOM      2  C   UNL d   1      58.468  49.607  50.554  0.00  0.00     0.057 A 
ATOM      3  C   UNL d   1      57.730  49.631  50.241  0.00  0.00     0.056 A 
ATOM      4  N   UNL d   1      59.413  49.564  51.515  0.00  0.00    -0.221 NA
ATOM      5  S   UNL d   1      59.215  49.599  50.173  0.00  0.00    -0.046 SA
ATOM      6  N   UNL d   1      56.405  49.661  50.270  0.00  0.00    -0.238 NA
ATOM      7  S   UNL d   1      57.452  49.655  49.479  0.00  0.00    -0.066 SA
ATOM      8  C   UNL d   1      58.588  49.586  51.367  0.00  0.00     0.090 A 
ATOM      9  C   UNL d   1      57.063  49.636  50.734  0.00  0.00     0.088 A 
ATOM     10  C   UNL d   1      56.590  49.674  49.502  0.00  0.00     0.111 A 
ATOM     11  C   UNL d   1      57.936  49.590  51.872  0.00  0.00     0.021 A 
ATOM     12  C   UNL d   1      57.155  49.615  51.551  0.00  0.00     0.021 A 
ATOM     13  C   UNL d   1      56.058  49.701  48.854  0.00  0.00     0.028 C 
ENDROOT
BRANCH   1  14
ATOM     14  N   UNL d   1      60.618  49.555  50.672  0.00  0.00    -0.183 NA
ATOM     15  C   UNL d   1      61.106  49.438  51.318  0.00  0.00     0.281 C 
ATOM     16  O   UNL d   1      60.717  49.342  52.074  0.00  0.00    -0.265 OA
BRANCH  15  17
ATOM     17  C   UNL d   1      61.886  49.423  51.203  0.00  0.00     0.063 C 
ATOM     18  C   UNL d   1      62.458  49.169  51.926  0.00  0.00     0.005 C 
ENDBRANCH  15  17
ENDBRANCH   1  14
TORSDOF 2
ENDMDL
