MODEL 1
REMARK VINA RESULT:      -1.1      0.000      0.000
REMARK  1 active torsions:
REMARK  status: ('A' for Active; 'I' for Inactive)
REMARK    1  A    between atoms: C_5  and  C_2 
ROOT
ATOM      1  N   UNL d   1      46.570 -18.667  42.460  0.00  0.00    -0.217 NA
ATOM      2  C   UNL d   1      46.550 -19.403  42.799  0.00  0.00     0.113 A 
ATOM      3  C   UNL d   1      46.615 -18.766  41.638  0.00  0.00     0.215 A 
ATOM      4  S   UNL d   1      46.621 -19.592  41.488  0.00  0.00    -0.045 SA
ATOM      5  C   UNL d   1      46.582 -19.983  42.201  0.00  0.00     0.060 A 
ATOM      6  N   UNL d   1      46.647 -18.151  41.068  0.00  0.00    -0.120 N 
ENDROOT
BRANCH   2   7
ATOM      7  C   UNL d   1      46.505 -19.591  43.623  0.00  0.00     0.118 A 
ATOM      8  O   UNL d   1      46.313 -20.330  43.971  0.00  0.00    -0.304 OA
ATOM      9  C   UNL d   1      46.344 -20.227  44.802  0.00  0.00     0.123 A 
ATOM     10  C   UNL d   1      46.549 -19.442  44.950  0.00  0.00     0.029 A 
ATOM     11  C   UNL d   1      46.647 -19.056  44.236  0.00  0.00     0.028 A 
ENDBRANCH   2   7
TORSDOF 1
ENDMDL
MODEL 2
REMARK VINA RESULT:       0.4      7.827      8.035
REMARK  1 active torsions:
REMARK  status: ('A' for Active; 'I' for Inactive)
REMARK    1  A    between atoms: C_5  and  C_2 
ROOT
ATOM      1  N   UNL d   1      43.818 -15.007  36.658  0.00  0.00    -0.217 NA
ATOM      2  C   UNL d   1      44.569 -15.311  36.689  0.00  0.00     0.113 A 
ATOM      3  C   UNL d   1      43.302 -15.622  36.451  0.00  0.00     0.215 A 
ATOM      4  S   UNL d   1      43.767 -16.314  36.356  0.00  0.00    -0.045 SA
ATOM      5  C   UNL d   1      44.545 -16.123  36.502  0.00  0.00     0.060 A 
ATOM      6  N   UNL d   1      42.471 -15.557  36.355  0.00  0.00    -0.120 N 
ENDROOT
BRANCH   2   7
ATOM      7  C   UNL d   1      45.285 -14.901  36.877  0.00  0.00     0.118 A 
ATOM      8  O   UNL d   1      45.367 -14.116  37.162  0.00  0.00    -0.304 OA
ATOM      9  C   UNL d   1      46.187 -13.974  37.260  0.00  0.00     0.123 A 
ATOM     10  C   UNL d   1      46.589 -14.659  37.038  0.00  0.00     0.029 A 
ATOM     11  C   UNL d   1      46.043 -15.221  36.806  0.00  0.00     0.028 A 
ENDBRANCH   2   7
TORSDOF 1
ENDMDL
MODEL 3
REMARK VINA RESULT:       1.5      7.888      8.003
REMARK  1 active torsions:
REMARK  status: ('A' for Active; 'I' for Inactive)
REMARK    1  A    between atoms: C_5  and  C_2 
ROOT
ATOM      1  N   UNL d   1      45.353 -14.484  37.109  0.00  0.00    -0.217 NA
ATOM      2  C   UNL d   1      45.123 -15.149  36.705  0.00  0.00     0.113 A 
ATOM      3  C   UNL d   1      46.174 -14.408  37.029  0.00  0.00     0.215 A 
ATOM      4  S   UNL d   1      46.438 -15.052  36.560  0.00  0.00    -0.045 SA
ATOM      5  C   UNL d   1      45.793 -15.507  36.361  0.00  0.00     0.060 A 
ATOM      6  N   UNL d   1      46.647 -13.798  37.358  0.00  0.00    -0.120 N 
ENDROOT
BRANCH   2   7
ATOM      7  C   UNL d   1      44.340 -15.459  36.624  0.00  0.00     0.118 A 
ATOM      8  O   UNL d   1      43.616 -15.082  36.817  0.00  0.00    -0.304 OA
ATOM      9  C   UNL d   1      43.001 -15.620  36.634  0.00  0.00     0.123 A 
ATOM     10  C   UNL d   1      43.348 -16.307  36.338  0.00  0.00     0.029 A 
ATOM     11  C   UNL d   1      44.160 -16.210  36.331  0.00  0.00     0.028 A 
ENDBRANCH   2   7
TORSDOF 1
ENDMDL
