MODEL 1
REMARK VINA RESULT:       4.2      0.000      0.000
REMARK  7 active torsions:
REMARK  status: ('A' for Active; 'I' for Inactive)
REMARK    1  A    between atoms: C_10  and  C_3 
REMARK    2  A    between atoms: N_12  and  C_4 
REMARK    3  A    between atoms: O_23  and  C_11 
REMARK    4  A    between atoms: C_25  and  N_12 
REMARK    5  A    between atoms: O_26  and  C_13 
REMARK    6  A    between atoms: C_18  and  C_28 
REMARK    7  A    between atoms: C_28  and  C_25 
ROOT
ATOM      1  C   UNL d   1     -41.599-122.242 -53.291  0.00  0.00     0.168 A 
ATOM      2  N   UNL d   1     -41.388-122.747 -52.657  0.00  0.00    -0.184 N 
ATOM      3  C   UNL d   1     -41.653-122.534 -54.033  0.00  0.00     0.057 A 
ATOM      4  C   UNL d   1     -41.338-122.443 -51.925  0.00  0.00     0.218 A 
ATOM      5  N   UNL d   1     -41.297-123.817 -53.557  0.00  0.00    -0.160 NA
ATOM      6  N   UNL d   1     -41.746-121.466 -53.151  0.00  0.00    -0.227 NA
ATOM      7  C   UNL d   1     -41.485-121.659 -51.774  0.00  0.00     0.071 A 
ATOM      8  C   UNL d   1     -41.502-123.328 -54.171  0.00  0.00     0.124 A 
ATOM      9  C   UNL d   1     -41.693-121.161 -52.398  0.00  0.00     0.087 A 
ATOM     10  C   UNL d   1     -41.849-120.342 -52.250  0.00  0.00     0.021 C 
ENDROOT
BRANCH   4  11
ATOM     11  N   UNL d   1     -41.125-122.950 -51.282  0.00  0.00    -0.380 NA
BRANCH  11  12
ATOM     12  C   UNL d   1     -41.175-123.397 -50.568  0.00  0.00     0.163 C 
BRANCH  12  13
ATOM     13  C   UNL d   1     -41.172-122.988 -49.834  0.00  0.00     0.035 C 
BRANCH  13  14
ATOM     14  C   UNL d   1     -41.746-123.197 -49.252  0.00  0.00     0.005 A 
ATOM     15  C   UNL d   1     -41.544-123.112 -48.425  0.00  0.00     0.026 A 
ATOM     16  C   UNL d   1     -42.120-123.322 -47.829  0.00  0.00     0.116 A 
ATOM     17  C   UNL d   1     -42.888-123.611 -48.068  0.00  0.00     0.116 A 
ATOM     18  C   UNL d   1     -43.073-123.689 -48.881  0.00  0.00     0.026 A 
ATOM     19  C   UNL d   1     -42.493-123.479 -49.475  0.00  0.00     0.002 A 
BRANCH  16  20
ATOM     20  O   UNL d   1     -41.932-123.243 -47.020  0.00  0.00    -0.326 OA
ATOM     21  C   UNL d   1     -41.128-123.218 -46.771  0.00  0.00     0.181 C 
ENDBRANCH  16  20
BRANCH  17  22
ATOM     22  O   UNL d   1     -43.454-123.817 -47.481  0.00  0.00    -0.326 OA
ATOM     23  C   UNL d   1     -44.281-123.809 -47.660  0.00  0.00     0.181 C 
ENDBRANCH  17  22
ENDBRANCH  13  14
ENDBRANCH  12  13
ENDBRANCH  11  12
ENDBRANCH   4  11
BRANCH   3  24
ATOM     24  C   UNL d   1     -41.858-122.044 -54.647  0.00  0.00     0.005 A 
ATOM     25  C   UNL d   1     -41.292-121.772 -55.147  0.00  0.00     0.001 A 
ATOM     26  C   UNL d   1     -41.497-121.282 -55.761  0.00  0.00     0.011 A 
ATOM     27  C   UNL d   1     -42.264-121.072 -55.867  0.00  0.00     0.058 A 
ATOM     28  C   UNL d   1     -42.827-121.353 -55.358  0.00  0.00     0.011 A 
ATOM     29 CL   UNL d   1     -42.478-120.560 -56.511  0.00  0.00    -0.082 Cl
ATOM     30  C   UNL d   1     -42.625-121.834 -54.753  0.00  0.00     0.001 A 
ENDBRANCH   3  24
TORSDOF 7
ENDMDL
MODEL 2
REMARK VINA RESULT:       6.1      3.152      6.230
REMARK  7 active torsions:
REMARK  status: ('A' for Active; 'I' for Inactive)
REMARK    1  A    between atoms: C_10  and  C_3 
REMARK    2  A    between atoms: N_12  and  C_4 
REMARK    3  A    between atoms: O_23  and  C_11 
REMARK    4  A    between atoms: C_25  and  N_12 
REMARK    5  A    between atoms: O_26  and  C_13 
REMARK    6  A    between atoms: C_18  and  C_28 
REMARK    7  A    between atoms: C_28  and  C_25 
ROOT
ATOM      1  C   UNL d   1     -42.484-122.860 -49.972  0.00  0.00     0.168 A 
ATOM      2  N   UNL d   1     -42.019-122.768 -50.663  0.00  0.00    -0.184 N 
ATOM      3  C   UNL d   1     -42.260-123.377 -49.406  0.00  0.00     0.057 A 
ATOM      4  C   UNL d   1     -42.254-122.249 -51.217  0.00  0.00     0.218 A 
ATOM      5  N   UNL d   1     -41.124-123.728 -50.172  0.00  0.00    -0.160 NA
ATOM      6  N   UNL d   1     -43.154-122.427 -49.881  0.00  0.00    -0.227 NA
ATOM      7  C   UNL d   1     -42.931-121.808 -51.133  0.00  0.00     0.071 A 
ATOM      8  C   UNL d   1     -41.574-123.817 -49.503  0.00  0.00     0.124 A 
ATOM      9  C   UNL d   1     -43.389-121.898 -50.453  0.00  0.00     0.087 A 
ATOM     10  C   UNL d   1     -44.096-121.442 -50.357  0.00  0.00     0.021 C 
ENDROOT
BRANCH   4  11
ATOM     11  N   UNL d   1     -41.787-122.154 -51.916  0.00  0.00    -0.380 NA
BRANCH  11  12
ATOM     12  C   UNL d   1     -41.455-121.814 -52.613  0.00  0.00     0.163 C 
BRANCH  12  13
ATOM     13  C   UNL d   1     -41.203-122.325 -53.230  0.00  0.00     0.035 C 
BRANCH  13  14
ATOM     14  C   UNL d   1     -41.489-122.189 -54.012  0.00  0.00     0.005 A 
ATOM     15  C   UNL d   1     -41.875-122.829 -54.428  0.00  0.00     0.026 A 
ATOM     16  C   UNL d   1     -42.168-122.699 -55.221  0.00  0.00     0.116 A 
ATOM     17  C   UNL d   1     -42.071-121.932 -55.585  0.00  0.00     0.116 A 
ATOM     18  C   UNL d   1     -41.692-121.314 -55.167  0.00  0.00     0.026 A 
ATOM     19  C   UNL d   1     -41.399-121.448 -54.374  0.00  0.00     0.002 A 
BRANCH  16  20
ATOM     20  O   UNL d   1     -42.546-123.318 -55.634  0.00  0.00    -0.326 OA
ATOM     21  C   UNL d   1     -43.097-123.816 -55.239  0.00  0.00     0.181 C 
ENDBRANCH  16  20
BRANCH  17  22
ATOM     22  O   UNL d   1     -42.360-121.805 -56.365  0.00  0.00    -0.326 OA
ATOM     23  C   UNL d   1     -42.717-121.067 -56.576  0.00  0.00     0.181 C 
ENDBRANCH  17  22
ENDBRANCH  13  14
ENDBRANCH  12  13
ENDBRANCH  11  12
ENDBRANCH   4  11
BRANCH   3  24
ATOM     24  C   UNL d   1     -42.710-123.466 -48.736  0.00  0.00     0.005 A 
ATOM     25  C   UNL d   1     -43.471-123.715 -48.797  0.00  0.00     0.001 A 
ATOM     26  C   UNL d   1     -43.922-123.804 -48.127  0.00  0.00     0.011 A 
ATOM     27  C   UNL d   1     -43.605-123.643 -47.407  0.00  0.00     0.058 A 
ATOM     28  C   UNL d   1     -42.837-123.393 -47.358  0.00  0.00     0.011 A 
ATOM     29 CL   UNL d   1     -44.077-123.736 -46.706  0.00  0.00    -0.082 Cl
ATOM     30  C   UNL d   1     -42.394-123.305 -48.017  0.00  0.00     0.001 A 
ENDBRANCH   3  24
TORSDOF 7
ENDMDL
