MODEL 1
REMARK VINA RESULT:      -5.0      0.000      0.000
REMARK  3 active torsions:
REMARK  status: ('A' for Active; 'I' for Inactive)
REMARK    1  A    between atoms: N_4  and  C_1 
REMARK    2  A    between atoms: C_3  and  N_4 
REMARK    3  A    between atoms: C_8  and  C_5 
ROOT
ATOM      1  C   UNL d   1      58.063   0.327  30.592  0.00  0.00     0.750 A 
ATOM      2  N   UNL d   1      57.393   0.119  31.025  0.00  0.00    -0.059 NA
ATOM      3  C   UNL d   1      57.394   0.191  31.845  0.00  0.00     0.103 A 
ATOM      4  N   UNL d   1      58.729   0.605  30.967  0.00  0.00    -0.058 NA
ATOM      5  C   UNL d   1      58.068   0.472  32.230  0.00  0.00     0.041 A 
ATOM      6  C   UNL d   1      58.743   0.682  31.788  0.00  0.00     0.120 A 
ENDROOT
BRANCH   1   7
ATOM      7  N   UNL d   1      58.055   0.252  29.772  0.00  0.00    -0.059 NA
BRANCH   7   8
ATOM      8  C   UNL d   1      58.511  -0.329  29.402  0.00  0.00     0.101 A 
ATOM      9  C   UNL d   1      58.412  -1.124  29.600  0.00  0.00     0.041 A 
ATOM     10  C   UNL d   1      58.873  -1.703  29.225  0.00  0.00     0.104 A 
ATOM     11  N   UNL d   1      58.774  -2.498  29.422  0.00  0.00    -0.148 N 
ATOM     12  C   UNL d   1      59.429  -1.485  28.657  0.00  0.00     0.021 A 
ATOM     13  C   UNL d   1      59.528  -0.690  28.460  0.00  0.00     0.003 A 
ATOM     14  C   UNL d   1      59.071  -0.113  28.830  0.00  0.00     0.018 A 
ATOM     15  C   UNL d   1      59.170   0.682  28.633  0.00  0.00     0.002 C 
ENDBRANCH   7   8
ENDBRANCH   1   7
BRANCH   3  16
ATOM     16  C   UNL d   1      56.727  -0.017  32.276  0.00  0.00     0.037 A 
ATOM     17  C   UNL d   1      56.168   0.555  32.455  0.00  0.00     0.100 A 
ATOM     18  N   UNL d   1      55.494   0.357  32.888  0.00  0.00    -0.242 NA
ATOM     19  C   UNL d   1      55.384  -0.426  33.143  0.00  0.00     0.099 A 
ATOM     20  C   UNL d   1      55.953  -1.003  32.961  0.00  0.00     0.021 A 
ATOM     21  C   UNL d   1      56.619  -0.795  32.529  0.00  0.00     0.005 A 
ENDBRANCH   3  16
TORSDOF 3
ENDMDL
MODEL 2
REMARK VINA RESULT:      -4.8      1.354      1.870
REMARK  3 active torsions:
REMARK  status: ('A' for Active; 'I' for Inactive)
REMARK    1  A    between atoms: N_4  and  C_1 
REMARK    2  A    between atoms: C_3  and  N_4 
REMARK    3  A    between atoms: C_8  and  C_5 
ROOT
ATOM      1  C   UNL d   1      57.326   0.124  30.976  0.00  0.00     0.750 A 
ATOM      2  N   UNL d   1      56.973   0.397  31.670  0.00  0.00    -0.059 NA
ATOM      3  C   UNL d   1      56.660  -0.138  32.211  0.00  0.00     0.103 A 
ATOM      4  N   UNL d   1      57.368  -0.672  30.820  0.00  0.00    -0.058 NA
ATOM      5  C   UNL d   1      56.700  -0.948  32.055  0.00  0.00     0.041 A 
ATOM      6  C   UNL d   1      57.058  -1.220  31.353  0.00  0.00     0.120 A 
ENDROOT
BRANCH   1   7
ATOM      7  N   UNL d   1      57.638   0.666  30.440  0.00  0.00    -0.059 NA
BRANCH   7   8
ATOM      8  C   UNL d   1      58.446   0.662  30.267  0.00  0.00     0.101 A 
ATOM      9  C   UNL d   1      59.002   0.674  30.876  0.00  0.00     0.041 A 
ATOM     10  C   UNL d   1      59.812   0.670  30.695  0.00  0.00     0.104 A 
ATOM     11  N   UNL d   1      60.369   0.682  31.304  0.00  0.00    -0.148 N 
ATOM     12  C   UNL d   1      60.060   0.654  29.909  0.00  0.00     0.021 A 
ATOM     13  C   UNL d   1      59.503   0.642  29.301  0.00  0.00     0.003 A 
ATOM     14  C   UNL d   1      58.699   0.646  29.477  0.00  0.00     0.018 A 
ATOM     15  C   UNL d   1      58.142   0.634  28.869  0.00  0.00     0.002 C 
ENDBRANCH   7   8
ENDBRANCH   1   7
BRANCH   3  16
ATOM     16  C   UNL d   1      56.309   0.134  32.902  0.00  0.00     0.037 A 
ATOM     17  C   UNL d   1      56.779   0.345  33.538  0.00  0.00     0.100 A 
ATOM     18  N   UNL d   1      56.437   0.620  34.237  0.00  0.00    -0.242 NA
ATOM     19  C   UNL d   1      55.611   0.680  34.293  0.00  0.00     0.099 A 
ATOM     20  C   UNL d   1      55.136   0.465  33.647  0.00  0.00     0.021 A 
ATOM     21  C   UNL d   1      55.487   0.194  32.956  0.00  0.00     0.005 A 
ENDBRANCH   3  16
TORSDOF 3
ENDMDL
MODEL 3
REMARK VINA RESULT:      -3.6      1.473      4.827
REMARK  3 active torsions:
REMARK  status: ('A' for Active; 'I' for Inactive)
REMARK    1  A    between atoms: N_4  and  C_1 
REMARK    2  A    between atoms: C_3  and  N_4 
REMARK    3  A    between atoms: C_8  and  C_5 
ROOT
ATOM      1  C   UNL d   1      56.031  -0.035  32.464  0.00  0.00     0.750 A 
ATOM      2  N   UNL d   1      56.650   0.270  32.012  0.00  0.00    -0.059 NA
ATOM      3  C   UNL d   1      57.119  -0.235  31.562  0.00  0.00     0.103 A 
ATOM      4  N   UNL d   1      55.878  -0.833  32.470  0.00  0.00    -0.058 NA
ATOM      5  C   UNL d   1      56.967  -1.046  31.566  0.00  0.00     0.041 A 
ATOM      6  C   UNL d   1      56.340  -1.350  32.024  0.00  0.00     0.120 A 
ENDROOT
BRANCH   1   7
ATOM      7  N   UNL d   1      55.566   0.477  32.911  0.00  0.00    -0.059 NA
BRANCH   7   8
ATOM      8  C   UNL d   1      55.683   0.541  33.726  0.00  0.00     0.101 A 
ATOM      9  C   UNL d   1      56.448   0.575  34.035  0.00  0.00     0.041 A 
ATOM     10  C   UNL d   1      56.559   0.640  34.855  0.00  0.00     0.104 A 
ATOM     11  N   UNL d   1      57.323   0.674  35.164  0.00  0.00    -0.148 N 
ATOM     12  C   UNL d   1      55.908   0.669  35.359  0.00  0.00     0.021 A 
ATOM     13  C   UNL d   1      55.144   0.634  35.050  0.00  0.00     0.003 A 
ATOM     14  C   UNL d   1      55.031   0.570  34.237  0.00  0.00     0.018 A 
ATOM     15  C   UNL d   1      54.267   0.536  33.928  0.00  0.00     0.002 C 
ENDBRANCH   7   8
ENDBRANCH   1   7
BRANCH   3  16
ATOM     16  C   UNL d   1      57.735   0.069  31.112  0.00  0.00     0.037 A 
ATOM     17  C   UNL d   1      58.406   0.355  31.486  0.00  0.00     0.100 A 
ATOM     18  N   UNL d   1      59.031   0.662  31.044  0.00  0.00    -0.242 NA
ATOM     19  C   UNL d   1      58.978   0.680  30.216  0.00  0.00     0.099 A 
ATOM     20  C   UNL d   1      58.297   0.390  29.839  0.00  0.00     0.021 A 
ATOM     21  C   UNL d   1      57.681   0.086  30.289  0.00  0.00     0.005 A 
ENDBRANCH   3  16
TORSDOF 3
ENDMDL
MODEL 4
REMARK VINA RESULT:      -3.3      1.186      1.910
REMARK  3 active torsions:
REMARK  status: ('A' for Active; 'I' for Inactive)
REMARK    1  A    between atoms: N_4  and  C_1 
REMARK    2  A    between atoms: C_3  and  N_4 
REMARK    3  A    between atoms: C_8  and  C_5 
ROOT
ATOM      1  C   UNL d   1      58.141  -0.711  29.568  0.00  0.00     0.750 A 
ATOM      2  N   UNL d   1      57.892  -0.727  30.354  0.00  0.00    -0.059 NA
ATOM      3  C   UNL d   1      57.620  -0.039  30.714  0.00  0.00     0.103 A 
ATOM      4  N   UNL d   1      58.121  -0.019  29.142  0.00  0.00    -0.058 NA
ATOM      5  C   UNL d   1      57.598   0.666  30.285  0.00  0.00     0.041 A 
ATOM      6  C   UNL d   1      57.851   0.678  29.490  0.00  0.00     0.120 A 
ENDROOT
BRANCH   1   7
ATOM      7  N   UNL d   1      58.411  -1.404  29.215  0.00  0.00    -0.059 NA
BRANCH   7   8
ATOM      8  C   UNL d   1      59.220  -1.570  29.190  0.00  0.00     0.101 A 
ATOM      9  C   UNL d   1      59.771  -0.955  29.192  0.00  0.00     0.041 A 
ATOM     10  C   UNL d   1      60.583  -1.128  29.167  0.00  0.00     0.104 A 
ATOM     11  N   UNL d   1      61.134  -0.514  29.169  0.00  0.00    -0.148 N 
ATOM     12  C   UNL d   1      60.837  -1.911  29.139  0.00  0.00     0.021 A 
ATOM     13  C   UNL d   1      60.287  -2.526  29.136  0.00  0.00     0.003 A 
ATOM     14  C   UNL d   1      59.481  -2.357  29.161  0.00  0.00     0.018 A 
ATOM     15  C   UNL d   1      58.930  -2.971  29.159  0.00  0.00     0.002 C 
ENDBRANCH   7   8
ENDBRANCH   1   7
BRANCH   3  16
ATOM     16  C   UNL d   1      57.372  -0.055  31.497  0.00  0.00     0.037 A 
ATOM     17  C   UNL d   1      57.750   0.416  32.050  0.00  0.00     0.100 A 
ATOM     18  N   UNL d   1      57.509   0.408  32.839  0.00  0.00    -0.242 NA
ATOM     19  C   UNL d   1      56.879  -0.081  33.071  0.00  0.00     0.099 A 
ATOM     20  C   UNL d   1      56.498  -0.557  32.508  0.00  0.00     0.021 A 
ATOM     21  C   UNL d   1      56.746  -0.541  31.726  0.00  0.00     0.005 A 
ENDBRANCH   3  16
TORSDOF 3
ENDMDL
MODEL 5
REMARK VINA RESULT:      -3.2      1.054      4.250
REMARK  3 active torsions:
REMARK  status: ('A' for Active; 'I' for Inactive)
REMARK    1  A    between atoms: N_4  and  C_1 
REMARK    2  A    between atoms: C_3  and  N_4 
REMARK    3  A    between atoms: C_8  and  C_5 
ROOT
ATOM      1  C   UNL d   1      57.328  -0.301  30.941  0.00  0.00     0.750 A 
ATOM      2  N   UNL d   1      57.793  -0.880  30.582  0.00  0.00    -0.059 NA
ATOM      3  C   UNL d   1      58.287  -0.681  29.955  0.00  0.00     0.103 A 
ATOM      4  N   UNL d   1      57.352   0.468  30.681  0.00  0.00    -0.058 NA
ATOM      5  C   UNL d   1      58.315   0.099  29.688  0.00  0.00     0.041 A 
ATOM      6  C   UNL d   1      57.843   0.682  30.054  0.00  0.00     0.120 A 
ENDROOT
BRANCH   1   7
ATOM      7  N   UNL d   1      56.836  -0.508  31.569  0.00  0.00    -0.059 NA
BRANCH   7   8
ATOM      8  C   UNL d   1      56.932  -0.152  32.307  0.00  0.00     0.101 A 
ATOM      9  C   UNL d   1      57.680   0.086  32.561  0.00  0.00     0.041 A 
ATOM     10  C   UNL d   1      57.770   0.444  33.305  0.00  0.00     0.104 A 
ATOM     11  N   UNL d   1      58.518   0.682  33.558  0.00  0.00    -0.148 N 
ATOM     12  C   UNL d   1      57.113   0.561  33.788  0.00  0.00     0.021 A 
ATOM     13  C   UNL d   1      56.365   0.324  33.535  0.00  0.00     0.003 A 
ATOM     14  C   UNL d   1      56.273  -0.032  32.797  0.00  0.00     0.018 A 
ATOM     15  C   UNL d   1      55.525  -0.270  32.544  0.00  0.00     0.002 C 
ENDBRANCH   7   8
ENDBRANCH   1   7
BRANCH   3  16
ATOM     16  C   UNL d   1      58.750  -1.258  29.598  0.00  0.00     0.037 A 
ATOM     17  C   UNL d   1      59.554  -1.130  29.506  0.00  0.00     0.100 A 
ATOM     18  N   UNL d   1      60.029  -1.702  29.148  0.00  0.00    -0.242 NA
ATOM     19  C   UNL d   1      59.687  -2.411  28.880  0.00  0.00     0.099 A 
ATOM     20  C   UNL d   1      58.872  -2.537  28.974  0.00  0.00     0.021 A 
ATOM     21  C   UNL d   1      58.409  -1.961  29.332  0.00  0.00     0.005 A 
ENDBRANCH   3  16
TORSDOF 3
ENDMDL
