MODEL 1
REMARK VINA RESULT:      68.4      0.000      0.000
REMARK  9 active torsions:
REMARK  status: ('A' for Active; 'I' for Inactive)
REMARK    1  A    between atoms: C_6  and  N_1 
REMARK    2  A    between atoms: C_2  and  O_5 
REMARK    3  A    between atoms: C_8  and  C_3 
REMARK    4  A    between atoms: C_4  and  C_9 
REMARK    5  A    between atoms: O_5  and  C_4 
REMARK    6  A    between atoms: C_7  and  C_8 
REMARK    7  A    between atoms: C_13  and  C_7 
REMARK    8  A    between atoms: C_10  and  C_13 
REMARK    9  A    between atoms: O_25  and  C_23 
ROOT
ATOM      1  C   UNL d   1      60.745  48.484  51.013  0.00  0.00     0.108 A 
ATOM      2  C   UNL d   1      60.246  49.142  50.997  0.00  0.00     0.062 A 
ATOM      3  C   UNL d   1      61.281  48.387  51.644  0.00  0.00     0.049 A 
ATOM      4  C   UNL d   1      60.282  49.704  51.611  0.00  0.00     0.007 A 
ATOM      5  C   UNL d   1      61.313  48.946  52.250  0.00  0.00     0.096 A 
ATOM      6  C   UNL d   1      60.814  49.604  52.233  0.00  0.00     0.024 A 
ENDROOT
BRANCH   1   7
ATOM      7  O   UNL d   1      60.715  47.922  50.407  0.00  0.00    -0.273 OA
BRANCH   7   8
ATOM      8  C   UNL d   1      61.417  47.619  50.094  0.00  0.00     0.300 C 
ATOM      9  O   UNL d   1      62.052  48.119  49.934  0.00  0.00    -0.259 OA
BRANCH   8  10
ATOM     10  C   UNL d   1      61.478  46.811  49.941  0.00  0.00     0.065 A 
ATOM     11  C   UNL d   1      61.069  46.280  50.419  0.00  0.00     0.029 A 
ATOM     12  C   UNL d   1      61.128  45.476  50.269  0.00  0.00     0.127 A 
ATOM     13  C   UNL d   1      61.595  45.203  49.643  0.00  0.00     0.024 A 
ATOM     14  C   UNL d   1      61.998  45.740  49.174  0.00  0.00     0.002 A 
ATOM     15  C   UNL d   1      61.940  46.542  49.322  0.00  0.00     0.005 A 
BRANCH  12  16
ATOM     16  N   UNL d   1      60.718  44.939  50.747  0.00  0.00    -0.114 N 
ATOM     17  O   UNL d   1      60.937  44.841  51.535  0.00  0.00    -0.532 OA
ATOM     18  O   UNL d   1      60.083  44.497  50.432  0.00  0.00    -0.532 OA
ENDBRANCH  12  16
ENDBRANCH   8  10
ENDBRANCH   7   8
ENDBRANCH   1   7
BRANCH   2  19
ATOM     19  C   UNL d   1      59.711  49.241  50.371  0.00  0.00     0.198 C 
ATOM     20  O   UNL d   1      59.981  49.218  49.591  0.00  0.00    -0.286 OA
BRANCH  19  21
ATOM     21  C   UNL d   1      58.910  49.363  50.529  0.00  0.00     0.043 C 
BRANCH  21  22
ATOM     22  C   UNL d   1      58.421  49.681  49.945  0.00  0.00     0.010 C 
BRANCH  22  23
ATOM     23  C   UNL d   1      57.608  49.545  49.973  0.00  0.00     0.030 A 
ATOM     24  S   UNL d   1      57.101  49.704  50.606  0.00  0.00    -0.086 SA
ATOM     25  C   UNL d   1      56.336  49.482  50.395  0.00  0.00     0.035 A 
ATOM     26  C   UNL d   1      56.360  49.182  49.627  0.00  0.00     0.007 A 
ATOM     27  C   UNL d   1      57.145  49.220  49.364  0.00  0.00     0.007 A 
ENDBRANCH  22  23
ENDBRANCH  21  22
ENDBRANCH  19  21
ENDBRANCH   2  19
BRANCH   5  28
ATOM     28  O   UNL d   1      61.846  48.846  52.872  0.00  0.00    -0.328 OA
ATOM     29  C   UNL d   1      62.121  49.506  53.291  0.00  0.00     0.181 C 
ENDBRANCH   5  28
TORSDOF 9
ENDMDL
