MODEL 1
REMARK VINA RESULT:      44.9      0.000      0.000
REMARK  7 active torsions:
REMARK  status: ('A' for Active; 'I' for Inactive)
REMARK    1  A    between atoms: C_9  and  N_1 
REMARK    2  A    between atoms: O_18  and  C_6 
REMARK    3  A    between atoms: C_7  and  C_8 
REMARK    4  A    between atoms: C_8  and  O_12 
REMARK    5  A    between atoms: O_12  and  C_9 
REMARK    6  A    between atoms: O_20  and  C_10 
REMARK    7  A    between atoms: O_19  and  C_11 
ROOT
ATOM      1  C   UNL d   1     -56.015 -99.388 -44.945  0.00  0.00     0.302 C 
ATOM      2  O   UNL d   1     -55.474 -98.766 -45.011  0.00  0.00    -0.259 OA
ENDROOT
BRANCH   1   3
ATOM      3  C   UNL d   1     -56.809 -99.231 -44.781  0.00  0.00     0.068 A 
ATOM      4  C   UNL d   1     -57.354 -99.137 -45.417  0.00  0.00     0.032 A 
ATOM      5  C   UNL d   1     -58.135 -98.982 -45.237  0.00  0.00     0.118 A 
ATOM      6  C   UNL d   1     -58.394 -98.916 -44.458  0.00  0.00     0.138 A 
ATOM      7  C   UNL d   1     -57.851 -99.010 -43.845  0.00  0.00     0.118 A 
ATOM      8  C   UNL d   1     -57.062 -99.166 -44.009  0.00  0.00     0.032 A 
BRANCH   5   9
ATOM      9  O   UNL d   1     -58.688 -98.887 -45.862  0.00  0.00    -0.326 OA
ATOM     10  C   UNL d   1     -59.493 -98.819 -45.688  0.00  0.00     0.181 C 
ENDBRANCH   5   9
BRANCH   6  11
ATOM     11  O   UNL d   1     -59.196 -98.757 -44.298  0.00  0.00    -0.324 OA
ATOM     12  C   UNL d   1     -59.633 -99.231 -43.790  0.00  0.00     0.182 C 
ENDBRANCH   6  11
BRANCH   7  13
ATOM     13  O   UNL d   1     -58.111 -98.943 -43.053  0.00  0.00    -0.326 OA
ATOM     14  C   UNL d   1     -58.906 -98.881 -42.878  0.00  0.00     0.181 C 
ENDBRANCH   7  13
ENDBRANCH   1   3
BRANCH   1  15
ATOM     15  O   UNL d   1     -55.763-100.168 -45.043  0.00  0.00    -0.251 OA
BRANCH  15  16
ATOM     16  C   UNL d   1     -55.019-100.398 -44.764  0.00  0.00     0.233 C 
BRANCH  16  17
ATOM     17  N   UNL d   1     -54.956-101.015 -44.215  0.00  0.00    -0.150 N 
ATOM     18  N   UNL d   1     -54.946-101.800 -44.475  0.00  0.00    -0.055 NA
ATOM     19  N   UNL d   1     -54.883-102.412 -43.927  0.00  0.00    -0.130 NA
ATOM     20  C   UNL d   1     -54.830-102.245 -43.126  0.00  0.00     0.109 A 
ATOM     21  C   UNL d   1     -54.839-101.460 -42.866  0.00  0.00     0.077 A 
ATOM     22  C   UNL d   1     -54.767-102.857 -42.579  0.00  0.00     0.021 A 
ATOM     23  C   UNL d   1     -54.902-100.834 -43.404  0.00  0.00     0.285 A 
ATOM     24  C   UNL d   1     -54.785-101.290 -42.060  0.00  0.00     0.006 A 
ATOM     25  O   UNL d   1     -54.912-100.057 -43.147  0.00  0.00    -0.265 OA
ATOM     26  C   UNL d   1     -54.722-101.903 -41.513  0.00  0.00     0.000 A 
ATOM     27  C   UNL d   1     -54.713-102.691 -41.775  0.00  0.00     0.002 A 
ENDBRANCH  16  17
ENDBRANCH  15  16
ENDBRANCH   1  15
TORSDOF 7
ENDMDL
