MODEL 1
REMARK VINA RESULT:      33.1      0.000      0.000
REMARK  3 active torsions:
REMARK  status: ('A' for Active; 'I' for Inactive)
REMARK    1  A    between atoms: S_4  and  C_1 
REMARK    2  A    between atoms: N_2  and  C_5 
REMARK    3  A    between atoms: C_9  and  S_4 
ROOT
ATOM      1  C   UNL d   1     -53.061  25.226  33.685  0.00  0.00     0.133 A 
ATOM      2  C   UNL d   1     -52.240  25.103  33.505  0.00  0.00     0.051 A 
ATOM      3  C   UNL d   1     -53.548  24.536  33.667  0.00  0.00     0.024 A 
ATOM      4  C   UNL d   1     -51.960  24.360  33.329  0.00  0.00     0.008 A 
ATOM      5  C   UNL d   1     -53.240  23.812  33.488  0.00  0.00     0.002 A 
ATOM      6  C   UNL d   1     -52.461  23.701  33.318  0.00  0.00     0.001 A 
ENDROOT
BRANCH   2   7
ATOM      7  S   UNL d   1     -51.699  25.738  33.503  0.00  0.00    -0.082 SA
BRANCH   7   8
ATOM      8  C   UNL d   1     -50.898  25.585  33.477  0.00  0.00     0.068 A 
ATOM      9  C   UNL d   1     -50.457  24.890  33.487  0.00  0.00     0.110 A 
ATOM     10  N   UNL d   1     -49.689  25.083  33.449  0.00  0.00    -0.147 NA
ATOM     11  C   UNL d   1     -50.795  24.120  33.530  0.00  0.00     0.023 C 
ATOM     12  N   UNL d   1     -49.598  25.866  33.414  0.00  0.00    -0.147 NA
ATOM     13  C   UNL d   1     -50.366  26.208  33.431  0.00  0.00     0.110 A 
ATOM     14  C   UNL d   1     -50.558  27.013  33.407  0.00  0.00     0.023 C 
ENDBRANCH   7   8
ENDBRANCH   2   7
BRANCH   1  15
ATOM     15  N   UNL d   1     -53.403  25.961  33.872  0.00  0.00    -0.113 N 
ATOM     16  O   UNL d   1     -53.865  26.323  33.346  0.00  0.00    -0.532 OA
ATOM     17  O   UNL d   1     -53.247  26.304  34.620  0.00  0.00    -0.532 OA
ENDBRANCH   1  15
TORSDOF 3
ENDMDL
MODEL 2
REMARK VINA RESULT:      35.8      1.826      2.707
REMARK  3 active torsions:
REMARK  status: ('A' for Active; 'I' for Inactive)
REMARK    1  A    between atoms: S_4  and  C_1 
REMARK    2  A    between atoms: N_2  and  C_5 
REMARK    3  A    between atoms: C_9  and  S_4 
ROOT
ATOM      1  C   UNL d   1     -51.333  26.399  34.396  0.00  0.00     0.133 A 
ATOM      2  C   UNL d   1     -51.681  25.634  34.280  0.00  0.00     0.051 A 
ATOM      3  C   UNL d   1     -51.316  26.679  35.193  0.00  0.00     0.024 A 
ATOM      4  C   UNL d   1     -51.976  25.211  34.910  0.00  0.00     0.008 A 
ATOM      5  C   UNL d   1     -51.617  26.235  35.797  0.00  0.00     0.002 A 
ATOM      6  C   UNL d   1     -51.946  25.510  35.681  0.00  0.00     0.001 A 
ENDROOT
BRANCH   2   7
ATOM      7  S   UNL d   1     -51.733  25.293  33.520  0.00  0.00    -0.082 SA
BRANCH   7   8
ATOM      8  C   UNL d   1     -52.026  24.536  33.437  0.00  0.00     0.068 A 
ATOM      9  C   UNL d   1     -52.787  24.230  33.383  0.00  0.00     0.110 A 
ATOM     10  N   UNL d   1     -52.734  23.442  33.307  0.00  0.00    -0.147 NA
ATOM     11  C   UNL d   1     -53.486  24.701  33.407  0.00  0.00     0.023 C 
ATOM     12  N   UNL d   1     -51.979  23.212  33.308  0.00  0.00    -0.147 NA
ATOM     13  C   UNL d   1     -51.506  23.902  33.391  0.00  0.00     0.110 A 
ATOM     14  C   UNL d   1     -50.680  23.944  33.421  0.00  0.00     0.023 C 
ENDBRANCH   7   8
ENDBRANCH   2   7
BRANCH   1  15
ATOM     15  N   UNL d   1     -51.017  26.875  33.791  0.00  0.00    -0.113 N 
ATOM     16  O   UNL d   1     -51.501  27.264  33.306  0.00  0.00    -0.532 OA
ATOM     17  O   UNL d   1     -50.185  26.931  33.710  0.00  0.00    -0.532 OA
ENDBRANCH   1  15
TORSDOF 3
ENDMDL
