MODEL 1
REMARK VINA RESULT:      -3.3      0.000      0.000
REMARK  1 active torsions:
REMARK  status: ('A' for Active; 'I' for Inactive)
REMARK    1  A    between atoms: C_2  and  C_1 
ROOT
ATOM      1  C   UNL d   1      45.379 -13.451  44.208  0.00  0.00     0.169 A 
ATOM      2  N   UNL d   1      44.722 -13.932  44.166  0.00  0.00    -0.142 NA
ATOM      3  N   UNL d   1      44.854 -14.605  44.626  0.00  0.00    -0.146 NA
ATOM      4  C   UNL d   1      45.936 -13.814  44.697  0.00  0.00     0.050 A 
ATOM      5  C   UNL d   1      45.612 -14.527  44.955  0.00  0.00     0.124 A 
ENDROOT
BRANCH   1   6
ATOM      6  C   UNL d   1      45.477 -12.722  43.828  0.00  0.00     0.231 C 
ATOM      7  O   UNL d   1      45.896 -12.119  44.202  0.00  0.00    -0.643 OA
ATOM      8  O   UNL d   1      45.157 -12.600  43.081  0.00  0.00    -0.643 OA
ENDBRANCH   1   6
TORSDOF 1
ENDMDL
MODEL 2
REMARK VINA RESULT:      -2.8      1.629      2.155
REMARK  1 active torsions:
REMARK  status: ('A' for Active; 'I' for Inactive)
REMARK    1  A    between atoms: C_2  and  C_1 
ROOT
ATOM      1  C   UNL d   1      45.449 -13.332  44.214  0.00  0.00     0.169 A 
ATOM      2  N   UNL d   1      45.830 -12.625  44.358  0.00  0.00    -0.142 NA
ATOM      3  N   UNL d   1      45.609 -12.080  43.777  0.00  0.00    -0.146 NA
ATOM      4  C   UNL d   1      44.983 -13.242  43.539  0.00  0.00     0.050 A 
ATOM      5  C   UNL d   1      45.082 -12.470  43.269  0.00  0.00     0.124 A 
ENDROOT
BRANCH   1   6
ATOM      6  C   UNL d   1      45.515 -14.023  44.663  0.00  0.00     0.231 C 
ATOM      7  O   UNL d   1      44.835 -14.404  44.932  0.00  0.00    -0.643 OA
ATOM      8  O   UNL d   1      46.257 -14.330  44.841  0.00  0.00    -0.643 OA
ENDBRANCH   1   6
TORSDOF 1
ENDMDL
MODEL 3
REMARK VINA RESULT:      -2.7      7.662      7.880
REMARK  1 active torsions:
REMARK  status: ('A' for Active; 'I' for Inactive)
REMARK    1  A    between atoms: C_2  and  C_1 
ROOT
ATOM      1  C   UNL d   1      45.036 -15.256  36.777  0.00  0.00     0.169 A 
ATOM      2  N   UNL d   1      45.079 -14.508  37.100  0.00  0.00    -0.142 NA
ATOM      3  N   UNL d   1      45.862 -14.246  37.061  0.00  0.00    -0.146 NA
ATOM      4  C   UNL d   1      45.792 -15.475  36.529  0.00  0.00     0.050 A 
ATOM      5  C   UNL d   1      46.302 -14.852  36.705  0.00  0.00     0.124 A 
ENDROOT
BRANCH   1   6
ATOM      6  C   UNL d   1      44.355 -15.719  36.707  0.00  0.00     0.231 C 
ATOM      7  O   UNL d   1      44.395 -16.452  36.330  0.00  0.00    -0.643 OA
ATOM      8  O   UNL d   1      43.640 -15.451  37.012  0.00  0.00    -0.643 OA
ENDBRANCH   1   6
TORSDOF 1
ENDMDL
MODEL 4
REMARK VINA RESULT:      -2.6      7.578      7.769
REMARK  1 active torsions:
REMARK  status: ('A' for Active; 'I' for Inactive)
REMARK    1  A    between atoms: C_2  and  C_1 
ROOT
ATOM      1  C   UNL d   1      45.197 -15.202  36.755  0.00  0.00     0.169 A 
ATOM      2  N   UNL d   1      45.139 -15.896  36.330  0.00  0.00    -0.142 NA
ATOM      3  N   UNL d   1      44.363 -16.174  36.380  0.00  0.00    -0.146 NA
ATOM      4  C   UNL d   1      44.457 -15.034  37.080  0.00  0.00     0.050 A 
ATOM      5  C   UNL d   1      43.942 -15.634  36.848  0.00  0.00     0.124 A 
ENDROOT
BRANCH   1   6
ATOM      6  C   UNL d   1      45.877 -14.741  36.849  0.00  0.00     0.231 C 
ATOM      7  O   UNL d   1      46.618 -15.069  36.695  0.00  0.00    -0.643 OA
ATOM      8  O   UNL d   1      45.815 -13.959  37.094  0.00  0.00    -0.643 OA
ENDBRANCH   1   6
TORSDOF 1
ENDMDL
MODEL 5
REMARK VINA RESULT:      -2.3      7.506      7.807
REMARK  1 active torsions:
REMARK  status: ('A' for Active; 'I' for Inactive)
REMARK    1  A    between atoms: C_2  and  C_1 
ROOT
ATOM      1  C   UNL d   1      45.001 -15.293  36.722  0.00  0.00     0.169 A 
ATOM      2  N   UNL d   1      44.250 -15.026  36.893  0.00  0.00    -0.142 NA
ATOM      3  N   UNL d   1      43.718 -15.652  36.801  0.00  0.00    -0.146 NA
ATOM      4  C   UNL d   1      44.953 -16.092  36.520  0.00  0.00     0.050 A 
ATOM      5  C   UNL d   1      44.161 -16.313  36.569  0.00  0.00     0.124 A 
ENDROOT
BRANCH   1   6
ATOM      6  C   UNL d   1      45.696 -14.845  36.745  0.00  0.00     0.231 C 
ATOM      7  O   UNL d   1      45.706 -14.125  37.146  0.00  0.00    -0.643 OA
ATOM      8  O   UNL d   1      46.375 -15.117  36.369  0.00  0.00    -0.643 OA
ENDBRANCH   1   6
TORSDOF 1
ENDMDL
MODEL 6
REMARK VINA RESULT:      -1.3      5.550      6.048
REMARK  1 active torsions:
REMARK  status: ('A' for Active; 'I' for Inactive)
REMARK    1  A    between atoms: C_2  and  C_1 
ROOT
ATOM      1  C   UNL d   1      46.355 -19.306  43.642  0.00  0.00     0.169 A 
ATOM      2  N   UNL d   1      46.153 -18.997  44.370  0.00  0.00    -0.142 NA
ATOM      3  N   UNL d   1      46.300 -19.566  44.951  0.00  0.00    -0.146 NA
ATOM      4  C   UNL d   1      46.632 -20.075  43.755  0.00  0.00     0.050 A 
ATOM      5  C   UNL d   1      46.599 -20.235  44.563  0.00  0.00     0.124 A 
ENDROOT
BRANCH   1   6
ATOM      6  C   UNL d   1      46.294 -18.920  42.913  0.00  0.00     0.231 C 
ATOM      7  O   UNL d   1      45.931 -19.301  42.278  0.00  0.00    -0.643 OA
ATOM      8  O   UNL d   1      46.593 -18.160  42.822  0.00  0.00    -0.643 OA
ENDBRANCH   1   6
TORSDOF 1
ENDMDL
