MODEL 1
REMARK VINA RESULT:      56.3      0.000      0.000
REMARK  7 active torsions:
REMARK  status: ('A' for Active; 'I' for Inactive)
REMARK    1  A    between atoms: C_6  and  N_2 
REMARK    2  A    between atoms: C_7  and  C_3 
REMARK    3  A    between atoms: C_15  and  C_6 
REMARK    4  A    between atoms: C_21  and  C_7 
REMARK    5  A    between atoms: C_8  and  O_14 
REMARK    6  A    between atoms: O_14  and  C_15 
REMARK    7  A    between atoms: C_19  and  C_21 
ROOT
ATOM      1  N   UNL d   1     -51.463  26.002  33.363  0.00  0.00    -0.227 NA
ATOM      2  N   UNL d   1     -50.221  26.555  33.328  0.00  0.00    -0.287 N 
ATOM      3  C   UNL d   1     -51.039  26.723  33.347  0.00  0.00     0.148 A 
ATOM      4  C   UNL d   1     -50.139  25.722  33.332  0.00  0.00     0.083 A 
ATOM      5  C   UNL d   1     -50.895  25.387  33.354  0.00  0.00     0.099 A 
ATOM      6  C   UNL d   1     -49.474  25.227  33.320  0.00  0.00     0.019 A 
ATOM      7  C   UNL d   1     -50.990  24.567  33.363  0.00  0.00     0.021 A 
ATOM      8  C   UNL d   1     -49.567  24.408  33.328  0.00  0.00     0.002 A 
ATOM      9  C   UNL d   1     -50.325  24.078  33.350  0.00  0.00     0.002 A 
ENDROOT
BRANCH   2  10
ATOM     10  C   UNL d   1     -49.606  27.101  33.308  0.00  0.00     0.108 C 
BRANCH  10  11
ATOM     11  C   UNL d   1     -49.351  27.472  34.006  0.00  0.00     0.142 C 
BRANCH  11  12
ATOM     12  O   UNL d   1     -49.168  28.272  33.999  0.00  0.00    -0.304 OA
BRANCH  12  13
ATOM     13  C   UNL d   1     -48.689  28.589  34.588  0.00  0.00     0.100 A 
ATOM     14  C   UNL d   1     -48.620  28.199  35.314  0.00  0.00     0.025 A 
ATOM     15  C   UNL d   1     -48.141  28.517  35.902  0.00  0.00     0.002 A 
ATOM     16  C   UNL d   1     -47.728  29.227  35.769  0.00  0.00     0.000 A 
ATOM     17  C   UNL d   1     -47.803  29.612  35.038  0.00  0.00     0.002 A 
ATOM     18  C   UNL d   1     -47.251  29.540  36.361  0.00  0.00     0.000 C 
ATOM     19  C   UNL d   1     -48.285  29.290  34.449  0.00  0.00     0.025 A 
ENDBRANCH  12  13
ENDBRANCH  11  12
ENDBRANCH  10  11
ENDBRANCH   2  10
BRANCH   3  20
ATOM     20  C   UNL d   1     -51.703  27.212  33.360  0.00  0.00     0.041 C 
BRANCH  20  21
ATOM     21  C   UNL d   1     -51.609  28.032  33.332  0.00  0.00     0.049 C 
BRANCH  21  22
ATOM     22  C   UNL d   1     -52.274  28.520  33.309  0.00  0.00     0.234 C 
ATOM     23  O   UNL d   1     -52.960  28.301  33.708  0.00  0.00    -0.283 OA
ENDBRANCH  21  22
ENDBRANCH  20  21
ENDBRANCH   3  20
TORSDOF 7
ENDMDL
MODEL 2
REMARK VINA RESULT:      57.0      2.097      4.955
REMARK  7 active torsions:
REMARK  status: ('A' for Active; 'I' for Inactive)
REMARK    1  A    between atoms: C_6  and  N_2 
REMARK    2  A    between atoms: C_7  and  C_3 
REMARK    3  A    between atoms: C_15  and  C_6 
REMARK    4  A    between atoms: C_21  and  C_7 
REMARK    5  A    between atoms: C_8  and  O_14 
REMARK    6  A    between atoms: O_14  and  C_15 
REMARK    7  A    between atoms: C_19  and  C_21 
ROOT
ATOM      1  N   UNL d   1     -47.940  30.987  35.130  0.00  0.00    -0.227 NA
ATOM      2  N   UNL d   1     -48.362  29.906  34.419  0.00  0.00    -0.287 N 
ATOM      3  C   UNL d   1     -48.331  30.741  34.432  0.00  0.00     0.148 A 
ATOM      4  C   UNL d   1     -47.987  29.634  35.117  0.00  0.00     0.083 A 
ATOM      5  C   UNL d   1     -47.731  30.292  35.547  0.00  0.00     0.099 A 
ATOM      6  C   UNL d   1     -47.847  28.872  35.413  0.00  0.00     0.019 A 
ATOM      7  C   UNL d   1     -47.339  30.195  36.267  0.00  0.00     0.021 A 
ATOM      8  C   UNL d   1     -47.455  28.774  36.132  0.00  0.00     0.002 A 
ATOM      9  C   UNL d   1     -47.201  29.435  36.559  0.00  0.00     0.002 A 
ENDROOT
BRANCH   2  10
ATOM     10  C   UNL d   1     -48.697  29.434  33.835  0.00  0.00     0.108 C 
BRANCH  10  11
ATOM     11  C   UNL d   1     -49.435  29.073  33.958  0.00  0.00     0.142 C 
BRANCH  11  12
ATOM     12  O   UNL d   1     -49.874  28.815  33.316  0.00  0.00    -0.304 OA
BRANCH  12  13
ATOM     13  C   UNL d   1     -50.193  28.056  33.313  0.00  0.00     0.100 A 
ATOM     14  C   UNL d   1     -51.015  27.958  33.314  0.00  0.00     0.025 A 
ATOM     15  C   UNL d   1     -51.334  27.200  33.312  0.00  0.00     0.002 A 
ATOM     16  C   UNL d   1     -50.834  26.535  33.308  0.00  0.00     0.000 A 
ATOM     17  C   UNL d   1     -50.011  26.642  33.307  0.00  0.00     0.002 A 
ATOM     18  C   UNL d   1     -51.158  25.779  33.306  0.00  0.00     0.000 C 
ATOM     19  C   UNL d   1     -49.694  27.405  33.309  0.00  0.00     0.025 A 
ENDBRANCH  12  13
ENDBRANCH  11  12
ENDBRANCH  10  11
ENDBRANCH   2  10
BRANCH   3  20
ATOM     20  C   UNL d   1     -48.469  31.500  34.139  0.00  0.00     0.041 C 
BRANCH  20  21
ATOM     21  C   UNL d   1     -47.973  31.812  33.558  0.00  0.00     0.049 C 
BRANCH  21  22
ATOM     22  C   UNL d   1     -47.755  32.607  33.588  0.00  0.00     0.234 C 
ATOM     23  O   UNL d   1     -48.310  33.179  33.797  0.00  0.00    -0.283 OA
ENDBRANCH  21  22
ENDBRANCH  20  21
ENDBRANCH   3  20
TORSDOF 7
ENDMDL
MODEL 3
REMARK VINA RESULT:      57.5      3.320      4.365
REMARK  7 active torsions:
REMARK  status: ('A' for Active; 'I' for Inactive)
REMARK    1  A    between atoms: C_6  and  N_2 
REMARK    2  A    between atoms: C_7  and  C_3 
REMARK    3  A    between atoms: C_15  and  C_6 
REMARK    4  A    between atoms: C_21  and  C_7 
REMARK    5  A    between atoms: C_8  and  O_14 
REMARK    6  A    between atoms: O_14  and  C_15 
REMARK    7  A    between atoms: C_19  and  C_21 
ROOT
ATOM      1  N   UNL d   1     -51.300  25.022  33.601  0.00  0.00    -0.227 NA
ATOM      2  N   UNL d   1     -51.642  25.887  34.594  0.00  0.00    -0.287 N 
ATOM      3  C   UNL d   1     -51.893  25.221  34.157  0.00  0.00     0.148 A 
ATOM      4  C   UNL d   1     -50.886  26.102  34.304  0.00  0.00     0.083 A 
ATOM      5  C   UNL d   1     -50.681  25.575  33.700  0.00  0.00     0.099 A 
ATOM      6  C   UNL d   1     -50.362  26.710  34.512  0.00  0.00     0.019 A 
ATOM      7  C   UNL d   1     -49.959  25.651  33.307  0.00  0.00     0.021 A 
ATOM      8  C   UNL d   1     -49.640  26.786  34.120  0.00  0.00     0.002 A 
ATOM      9  C   UNL d   1     -49.439  26.257  33.517  0.00  0.00     0.002 A 
ENDROOT
BRANCH   2  10
ATOM     10  C   UNL d   1     -52.054  26.266  35.196  0.00  0.00     0.108 C 
BRANCH  10  11
ATOM     11  C   UNL d   1     -51.888  26.094  35.991  0.00  0.00     0.142 C 
BRANCH  11  12
ATOM     12  O   UNL d   1     -52.378  26.383  36.582  0.00  0.00    -0.304 OA
BRANCH  12  13
ATOM     13  C   UNL d   1     -52.424  25.994  37.305  0.00  0.00     0.100 A 
ATOM     14  C   UNL d   1     -51.835  26.114  37.873  0.00  0.00     0.025 A 
ATOM     15  C   UNL d   1     -51.881  25.726  38.596  0.00  0.00     0.002 A 
ATOM     16  C   UNL d   1     -52.517  25.215  38.758  0.00  0.00     0.000 A 
ATOM     17  C   UNL d   1     -53.104  25.100  38.184  0.00  0.00     0.002 A 
ATOM     18  C   UNL d   1     -52.558  24.829  39.483  0.00  0.00     0.000 C 
ATOM     19  C   UNL d   1     -53.055  25.492  37.458  0.00  0.00     0.025 A 
ENDBRANCH  12  13
ENDBRANCH  11  12
ENDBRANCH  10  11
ENDBRANCH   2  10
BRANCH   3  20
ATOM     20  C   UNL d   1     -52.413  24.615  33.947  0.00  0.00     0.041 C 
BRANCH  20  21
ATOM     21  C   UNL d   1     -52.130  23.954  33.543  0.00  0.00     0.049 C 
BRANCH  21  22
ATOM     22  C   UNL d   1     -52.655  23.362  33.306  0.00  0.00     0.234 C 
ATOM     23  O   UNL d   1     -53.465  23.464  33.411  0.00  0.00    -0.283 OA
ENDBRANCH  21  22
ENDBRANCH  20  21
ENDBRANCH   3  20
TORSDOF 7
ENDMDL
