MODEL 1
REMARK VINA RESULT:      -9.3      0.000      0.000
REMARK  5 active torsions:
REMARK  status: ('A' for Active; 'I' for Inactive)
REMARK    1  A    between atoms: C_4  and  N_1 
REMARK    2  A    between atoms: C_8  and  C_2 
REMARK    3  A    between atoms: C_13  and  C_6 
REMARK    4  A    between atoms: C_7  and  C_8 
REMARK    5  A    between atoms: O_24  and  C_22 
ROOT
ATOM      1  N   UNL d   1      53.609  33.808  54.114  0.00  0.00    -0.255 N 
ATOM      2  C   UNL d   1      53.572  32.655  53.431  0.00  0.00     0.101 A 
ATOM      3  C   UNL d   1      54.356  33.456  54.161  0.00  0.00     0.305 A 
ATOM      4  C   UNL d   1      54.333  32.751  53.743  0.00  0.00     0.256 A 
ATOM      5  C   UNL d   1      53.124  33.309  53.661  0.00  0.00     0.075 A 
ATOM      6  O   UNL d   1      55.010  33.764  54.561  0.00  0.00    -0.263 OA
ATOM      7  O   UNL d   1      54.966  32.222  53.648  0.00  0.00    -0.281 OA
ENDROOT
BRANCH   2   8
ATOM      8  C   UNL d   1      53.309  32.020  52.972  0.00  0.00     0.223 C 
ATOM      9  O   UNL d   1      53.102  32.145  52.185  0.00  0.00    -0.284 OA
BRANCH   8  10
ATOM     10  C   UNL d   1      53.255  31.268  53.301  0.00  0.00     0.139 A 
ATOM     11  O   UNL d   1      53.397  31.075  54.089  0.00  0.00    -0.304 OA
ATOM     12  C   UNL d   1      53.278  30.257  54.177  0.00  0.00     0.100 A 
ATOM     13  C   UNL d   1      53.338  29.759  54.828  0.00  0.00     0.025 A 
ATOM     14  C   UNL d   1      53.065  29.959  53.440  0.00  0.00     0.025 A 
ATOM     15  C   UNL d   1      53.185  28.957  54.746  0.00  0.00     0.002 A 
ATOM     16  C   UNL d   1      52.969  28.648  54.006  0.00  0.00     0.000 A 
ATOM     17  C   UNL d   1      52.910  29.148  53.358  0.00  0.00     0.002 A 
ATOM     18  C   UNL d   1      53.050  30.576  52.901  0.00  0.00     0.030 A 
ENDBRANCH   8  10
ENDBRANCH   2   8
BRANCH   5  19
ATOM     19  C   UNL d   1      52.331  33.447  53.474  0.00  0.00     0.018 A 
ATOM     20  C   UNL d   1      52.134  33.822  52.775  0.00  0.00     0.026 A 
ATOM     21  C   UNL d   1      51.344  33.961  52.587  0.00  0.00     0.094 A 
ATOM     22  C   UNL d   1      50.748  33.717  53.112  0.00  0.00     0.024 A 
ATOM     23  C   UNL d   1      50.957  33.337  53.819  0.00  0.00     0.002 A 
ATOM     24  C   UNL d   1      51.743  33.203  54.000  0.00  0.00     0.002 A 
BRANCH  21  25
ATOM     25  O   UNL d   1      51.145  34.340  51.880  0.00  0.00    -0.328 OA
ATOM     26  C   UNL d   1      50.362  34.356  51.624  0.00  0.00     0.181 C 
ENDBRANCH  21  25
ENDBRANCH   5  19
BRANCH   1  27
ATOM     27  C   UNL d   1      53.385  34.529  54.459  0.00  0.00     0.179 A 
ATOM     28  N   UNL d   1      53.048  34.622  55.208  0.00  0.00    -0.108 NA
ATOM     29  O   UNL d   1      52.916  35.426  55.322  0.00  0.00    -0.210 OA
ATOM     30  C   UNL d   1      53.167  35.829  54.654  0.00  0.00     0.128 A 
ATOM     31  C   UNL d   1      53.460  35.277  54.113  0.00  0.00     0.067 A 
ATOM     32  C   UNL d   1      53.135  36.650  54.535  0.00  0.00     0.029 C 
ENDBRANCH   1  27
TORSDOF 5
ENDMDL
MODEL 2
REMARK VINA RESULT:      -7.2      1.264      2.688
REMARK  5 active torsions:
REMARK  status: ('A' for Active; 'I' for Inactive)
REMARK    1  A    between atoms: C_4  and  N_1 
REMARK    2  A    between atoms: C_8  and  C_2 
REMARK    3  A    between atoms: C_13  and  C_6 
REMARK    4  A    between atoms: C_7  and  C_8 
REMARK    5  A    between atoms: O_24  and  C_22 
ROOT
ATOM      1  N   UNL d   1      52.689  33.080  53.264  0.00  0.00    -0.255 N 
ATOM      2  C   UNL d   1      53.229  31.857  53.163  0.00  0.00     0.101 A 
ATOM      3  C   UNL d   1      52.122  32.573  52.941  0.00  0.00     0.305 A 
ATOM      4  C   UNL d   1      52.452  31.825  52.879  0.00  0.00     0.256 A 
ATOM      5  C   UNL d   1      53.375  32.634  53.401  0.00  0.00     0.075 A 
ATOM      6  O   UNL d   1      51.355  32.786  52.719  0.00  0.00    -0.263 OA
ATOM      7  O   UNL d   1      52.073  31.149  52.582  0.00  0.00    -0.281 OA
ENDROOT
BRANCH   2   8
ATOM      8  C   UNL d   1      53.762  31.226  53.201  0.00  0.00     0.223 C 
ATOM      9  O   UNL d   1      54.433  31.232  52.725  0.00  0.00    -0.284 OA
BRANCH   8  10
ATOM     10  C   UNL d   1      53.621  30.598  53.713  0.00  0.00     0.139 A 
ATOM     11  O   UNL d   1      53.380  30.659  54.498  0.00  0.00    -0.304 OA
ATOM     12  C   UNL d   1      53.305  29.890  54.803  0.00  0.00     0.100 A 
ATOM     13  C   UNL d   1      53.086  29.611  55.544  0.00  0.00     0.025 A 
ATOM     14  C   UNL d   1      53.502  29.366  54.199  0.00  0.00     0.025 A 
ATOM     15  C   UNL d   1      53.061  28.803  55.687  0.00  0.00     0.002 A 
ATOM     16  C   UNL d   1      53.258  28.268  55.084  0.00  0.00     0.000 A 
ATOM     17  C   UNL d   1      53.477  28.549  54.345  0.00  0.00     0.002 A 
ATOM     18  C   UNL d   1      53.695  29.797  53.530  0.00  0.00     0.030 A 
ENDBRANCH   8  10
ENDBRANCH   2   8
BRANCH   5  19
ATOM     19  C   UNL d   1      54.081  32.922  53.721  0.00  0.00     0.018 A 
ATOM     20  C   UNL d   1      54.167  32.988  54.532  0.00  0.00     0.026 A 
ATOM     21  C   UNL d   1      54.869  33.274  54.853  0.00  0.00     0.094 A 
ATOM     22  C   UNL d   1      55.491  33.496  54.348  0.00  0.00     0.024 A 
ATOM     23  C   UNL d   1      55.395  33.425  53.527  0.00  0.00     0.002 A 
ATOM     24  C   UNL d   1      54.695  33.140  53.215  0.00  0.00     0.002 A 
BRANCH  21  25
ATOM     25  O   UNL d   1      54.955  33.341  55.672  0.00  0.00    -0.328 OA
ATOM     26  C   UNL d   1      55.291  34.017  56.000  0.00  0.00     0.181 C 
ENDBRANCH  21  25
ENDBRANCH   5  19
BRANCH   1  27
ATOM     27  C   UNL d   1      52.589  33.889  53.422  0.00  0.00     0.179 A 
ATOM     28  N   UNL d   1      52.779  34.508  52.909  0.00  0.00    -0.108 NA
ATOM     29  O   UNL d   1      52.590  35.212  53.291  0.00  0.00    -0.210 OA
ATOM     30  C   UNL d   1      52.287  35.035  54.031  0.00  0.00     0.128 A 
ATOM     31  C   UNL d   1      52.283  34.214  54.120  0.00  0.00     0.067 A 
ATOM     32  C   UNL d   1      52.026  35.582  54.598  0.00  0.00     0.029 C 
ENDBRANCH   1  27
TORSDOF 5
ENDMDL
