MODEL 1
REMARK VINA RESULT:      -7.4      0.000      0.000
REMARK  3 active torsions:
REMARK  status: ('A' for Active; 'I' for Inactive)
REMARK    1  A    between atoms: C_3  and  C_1 
REMARK       I    between atoms: N_4  and  C_1 
REMARK    2  A    between atoms: N_2  and  C_7 
REMARK    3  A    between atoms: C_16  and  N_4 
ROOT
ATOM      1  C   UNL d   1     -47.881  13.152  22.799  0.00  0.00     0.064 A 
ATOM      2  C   UNL d   1     -48.257  13.085  22.063  0.00  0.00     0.019 A 
ATOM      3  C   UNL d   1     -48.106  13.770  23.309  0.00  0.00     0.019 A 
ATOM      4  C   UNL d   1     -49.062  14.229  22.349  0.00  0.00     0.085 A 
ATOM      5  C   UNL d   1     -48.844  13.620  21.839  0.00  0.00     0.021 A 
ATOM      6  C   UNL d   1     -48.694  14.305  23.086  0.00  0.00     0.021 A 
ENDROOT
BRANCH   4   7
ATOM      7  N   UNL d   1     -49.649  14.764  22.126  0.00  0.00    -0.208 NA
ATOM      8  C   UNL d   1     -50.430  14.623  22.319  0.00  0.00     0.285 C 
ATOM      9  O   UNL d   1     -51.018  15.159  22.095  0.00  0.00    -0.265 OA
BRANCH   8  10
ATOM     10  C   UNL d   1     -50.630  13.943  22.737  0.00  0.00     0.087 A 
ATOM     11  S   UNL d   1     -50.618  13.760  23.536  0.00  0.00    -0.082 SA
ATOM     12  C   UNL d   1     -50.879  12.994  23.635  0.00  0.00     0.036 A 
ATOM     13  C   UNL d   1     -51.061  12.685  22.888  0.00  0.00     0.008 A 
ATOM     14  C   UNL d   1     -50.905  13.277  22.336  0.00  0.00     0.012 A 
ENDBRANCH   8  10
ENDBRANCH   4   7
BRANCH   1  15
ATOM     15  N   UNL d   1     -47.293  12.616  23.022  0.00  0.00    -0.301 N 
ATOM     16  C   UNL d   1     -47.481  11.963  23.474  0.00  0.00     0.100 A 
ATOM     17  C   UNL d   1     -46.894  11.427  23.697  0.00  0.00     0.100 A 
ATOM     18  N   UNL d   1     -46.119  11.546  23.468  0.00  0.00    -0.299 N 
ATOM     19  C   UNL d   1     -45.926  12.204  23.012  0.00  0.00     0.100 A 
ATOM     20  C   UNL d   1     -45.533  11.011  23.691  0.00  0.00     0.100 C 
ATOM     21  C   UNL d   1     -46.513  12.740  22.789  0.00  0.00     0.100 A 
ENDBRANCH   1  15
TORSDOF 3
ENDMDL
MODEL 2
REMARK VINA RESULT:      -6.7      0.842      1.231
REMARK  3 active torsions:
REMARK  status: ('A' for Active; 'I' for Inactive)
REMARK    1  A    between atoms: C_3  and  C_1 
REMARK       I    between atoms: N_4  and  C_1 
REMARK    2  A    between atoms: N_2  and  C_7 
REMARK    3  A    between atoms: C_16  and  N_4 
ROOT
ATOM      1  C   UNL d   1     -47.723  13.776  22.847  0.00  0.00     0.064 A 
ATOM      2  C   UNL d   1     -48.211  13.884  23.509  0.00  0.00     0.019 A 
ATOM      3  C   UNL d   1     -47.898  14.194  22.148  0.00  0.00     0.019 A 
ATOM      4  C   UNL d   1     -49.025  14.806  22.783  0.00  0.00     0.085 A 
ATOM      5  C   UNL d   1     -48.858  14.396  23.477  0.00  0.00     0.021 A 
ATOM      6  C   UNL d   1     -48.546  14.706  22.117  0.00  0.00     0.021 A 
ENDROOT
BRANCH   4   7
ATOM      7  N   UNL d   1     -49.672  15.318  22.751  0.00  0.00    -0.208 NA
ATOM      8  C   UNL d   1     -50.409  15.037  22.540  0.00  0.00     0.285 C 
ATOM      9  O   UNL d   1     -51.056  15.549  22.509  0.00  0.00    -0.265 OA
BRANCH   8  10
ATOM     10  C   UNL d   1     -50.505  14.240  22.359  0.00  0.00     0.087 A 
ATOM     11  S   UNL d   1     -50.328  13.798  21.692  0.00  0.00    -0.082 SA
ATOM     12  C   UNL d   1     -50.547  13.023  21.824  0.00  0.00     0.036 A 
ATOM     13  C   UNL d   1     -50.868  12.972  22.587  0.00  0.00     0.008 A 
ATOM     14  C   UNL d   1     -50.839  13.728  22.913  0.00  0.00     0.012 A 
ENDBRANCH   8  10
ENDBRANCH   4   7
BRANCH   1  15
ATOM     15  N   UNL d   1     -47.076  13.264  22.878  0.00  0.00    -0.301 N 
ATOM     16  C   UNL d   1     -46.365  13.477  22.539  0.00  0.00     0.100 A 
ATOM     17  C   UNL d   1     -45.718  12.966  22.571  0.00  0.00     0.100 A 
ATOM     18  N   UNL d   1     -45.783  12.241  22.942  0.00  0.00    -0.299 N 
ATOM     19  C   UNL d   1     -46.500  12.023  23.285  0.00  0.00     0.100 A 
ATOM     20  C   UNL d   1     -45.138  11.730  22.974  0.00  0.00     0.100 C 
ATOM     21  C   UNL d   1     -47.146  12.534  23.254  0.00  0.00     0.100 A 
ENDBRANCH   1  15
TORSDOF 3
ENDMDL
MODEL 3
REMARK VINA RESULT:      -6.5      1.169      1.670
REMARK  3 active torsions:
REMARK  status: ('A' for Active; 'I' for Inactive)
REMARK    1  A    between atoms: C_3  and  C_1 
REMARK       I    between atoms: N_4  and  C_1 
REMARK    2  A    between atoms: N_2  and  C_7 
REMARK    3  A    between atoms: C_16  and  N_4 
ROOT
ATOM      1  C   UNL d   1     -46.756  12.619  23.170  0.00  0.00     0.064 A 
ATOM      2  C   UNL d   1     -47.451  12.611  23.621  0.00  0.00     0.019 A 
ATOM      3  C   UNL d   1     -46.634  13.244  22.633  0.00  0.00     0.019 A 
ATOM      4  C   UNL d   1     -47.885  13.827  23.008  0.00  0.00     0.085 A 
ATOM      5  C   UNL d   1     -48.013  13.212  23.541  0.00  0.00     0.021 A 
ATOM      6  C   UNL d   1     -47.195  13.844  22.553  0.00  0.00     0.021 A 
ENDROOT
BRANCH   4   7
ATOM      7  N   UNL d   1     -48.446  14.426  22.928  0.00  0.00    -0.208 NA
ATOM      8  C   UNL d   1     -49.090  14.325  22.437  0.00  0.00     0.285 C 
ATOM      9  O   UNL d   1     -49.652  14.925  22.357  0.00  0.00    -0.265 OA
BRANCH   8  10
ATOM     10  C   UNL d   1     -49.179  13.619  22.022  0.00  0.00     0.087 A 
ATOM     11  S   UNL d   1     -48.794  13.309  21.368  0.00  0.00    -0.082 SA
ATOM     12  C   UNL d   1     -49.117  12.580  21.195  0.00  0.00     0.036 A 
ATOM     13  C   UNL d   1     -49.715  12.424  21.746  0.00  0.00     0.008 A 
ATOM     14  C   UNL d   1     -49.749  13.071  22.256  0.00  0.00     0.012 A 
ENDBRANCH   8  10
ENDBRANCH   4   7
BRANCH   1  15
ATOM     15  N   UNL d   1     -46.194  12.018  23.250  0.00  0.00    -0.301 N 
ATOM     16  C   UNL d   1     -46.394  11.314  23.612  0.00  0.00     0.100 A 
ATOM     17  C   UNL d   1     -45.833  10.714  23.692  0.00  0.00     0.100 A 
ATOM     18  N   UNL d   1     -45.073  10.819  23.410  0.00  0.00    -0.299 N 
ATOM     19  C   UNL d   1     -44.869  11.529  23.045  0.00  0.00     0.100 A 
ATOM     20  C   UNL d   1     -44.513  10.220  23.490  0.00  0.00     0.100 C 
ATOM     21  C   UNL d   1     -45.430  12.129  22.965  0.00  0.00     0.100 A 
ENDBRANCH   1  15
TORSDOF 3
ENDMDL
MODEL 4
REMARK VINA RESULT:      -6.1      1.523      2.108
REMARK  3 active torsions:
REMARK  status: ('A' for Active; 'I' for Inactive)
REMARK    1  A    between atoms: C_3  and  C_1 
REMARK       I    between atoms: N_4  and  C_1 
REMARK    2  A    between atoms: N_2  and  C_7 
REMARK    3  A    between atoms: C_16  and  N_4 
ROOT
ATOM      1  C   UNL d   1     -47.336  12.429  22.934  0.00  0.00     0.064 A 
ATOM      2  C   UNL d   1     -47.723  11.746  22.665  0.00  0.00     0.019 A 
ATOM      3  C   UNL d   1     -47.739  12.939  23.454  0.00  0.00     0.019 A 
ATOM      4  C   UNL d   1     -48.886  12.085  23.423  0.00  0.00     0.085 A 
ATOM      5  C   UNL d   1     -48.494  11.575  22.909  0.00  0.00     0.021 A 
ATOM      6  C   UNL d   1     -48.510  12.768  23.697  0.00  0.00     0.021 A 
ENDROOT
BRANCH   4   7
ATOM      7  N   UNL d   1     -49.656  11.914  23.666  0.00  0.00    -0.208 NA
ATOM      8  C   UNL d   1     -50.294  12.178  23.230  0.00  0.00     0.285 C 
ATOM      9  O   UNL d   1     -51.064  12.007  23.473  0.00  0.00    -0.265 OA
BRANCH   8  10
ATOM     10  C   UNL d   1     -50.165  12.617  22.544  0.00  0.00     0.087 A 
ATOM     11  S   UNL d   1     -49.942  12.404  21.785  0.00  0.00    -0.082 SA
ATOM     12  C   UNL d   1     -49.900  13.078  21.326  0.00  0.00     0.036 A 
ATOM     13  C   UNL d   1     -50.100  13.727  21.800  0.00  0.00     0.008 A 
ATOM     14  C   UNL d   1     -50.263  13.436  22.554  0.00  0.00     0.012 A 
ENDBRANCH   8  10
ENDBRANCH   4   7
BRANCH   1  15
ATOM     15  N   UNL d   1     -46.566  12.600  22.691  0.00  0.00    -0.301 N 
ATOM     16  C   UNL d   1     -46.416  13.252  22.223  0.00  0.00     0.100 A 
ATOM     17  C   UNL d   1     -45.647  13.423  21.981  0.00  0.00     0.100 A 
ATOM     18  N   UNL d   1     -45.026  12.941  22.205  0.00  0.00    -0.299 N 
ATOM     19  C   UNL d   1     -45.174  12.282  22.677  0.00  0.00     0.100 A 
ATOM     20  C   UNL d   1     -44.257  13.112  21.963  0.00  0.00     0.100 C 
ATOM     21  C   UNL d   1     -45.943  12.111  22.920  0.00  0.00     0.100 A 
ENDBRANCH   1  15
TORSDOF 3
ENDMDL
MODEL 5
REMARK VINA RESULT:      -5.7      9.499     10.227
REMARK  3 active torsions:
REMARK  status: ('A' for Active; 'I' for Inactive)
REMARK    1  A    between atoms: C_3  and  C_1 
REMARK       I    between atoms: N_4  and  C_1 
REMARK    2  A    between atoms: N_2  and  C_7 
REMARK    3  A    between atoms: C_16  and  N_4 
ROOT
ATOM      1  C   UNL d   1     -39.899  14.602  19.666  0.00  0.00     0.064 A 
ATOM      2  C   UNL d   1     -40.048  15.407  19.534  0.00  0.00     0.019 A 
ATOM      3  C   UNL d   1     -40.164  14.047  19.105  0.00  0.00     0.019 A 
ATOM      4  C   UNL d   1     -40.710  15.100  18.305  0.00  0.00     0.085 A 
ATOM      5  C   UNL d   1     -40.452  15.654  18.857  0.00  0.00     0.021 A 
ATOM      6  C   UNL d   1     -40.567  14.295  18.428  0.00  0.00     0.021 A 
ENDROOT
BRANCH   4   7
ATOM      7  N   UNL d   1     -41.113  15.348  17.629  0.00  0.00    -0.208 NA
ATOM      8  C   UNL d   1     -40.703  15.520  16.945  0.00  0.00     0.285 C 
ATOM      9  O   UNL d   1     -41.106  15.768  16.268  0.00  0.00    -0.265 OA
BRANCH   8  10
ATOM     10  C   UNL d   1     -39.882  15.446  16.932  0.00  0.00     0.087 A 
ATOM     11  S   UNL d   1     -39.279  15.922  17.216  0.00  0.00    -0.082 SA
ATOM     12  C   UNL d   1     -38.564  15.569  17.045  0.00  0.00     0.036 A 
ATOM     13  C   UNL d   1     -38.715  14.858  16.646  0.00  0.00     0.008 A 
ATOM     14  C   UNL d   1     -39.533  14.787  16.579  0.00  0.00     0.012 A 
ENDBRANCH   8  10
ENDBRANCH   4   7
BRANCH   1  15
ATOM     15  N   UNL d   1     -39.496  14.354  20.343  0.00  0.00    -0.301 N 
ATOM     16  C   UNL d   1     -39.848  14.415  21.078  0.00  0.00     0.100 A 
ATOM     17  C   UNL d   1     -39.445  14.168  21.754  0.00  0.00     0.100 A 
ATOM     18  N   UNL d   1     -38.690  13.859  21.695  0.00  0.00    -0.299 N 
ATOM     19  C   UNL d   1     -38.333  13.796  20.956  0.00  0.00     0.100 A 
ATOM     20  C   UNL d   1     -38.288  13.612  22.371  0.00  0.00     0.100 C 
ATOM     21  C   UNL d   1     -38.736  14.044  20.280  0.00  0.00     0.100 A 
ENDBRANCH   1  15
TORSDOF 3
ENDMDL
MODEL 6
REMARK VINA RESULT:      -5.3      9.300     10.246
REMARK  3 active torsions:
REMARK  status: ('A' for Active; 'I' for Inactive)
REMARK    1  A    between atoms: C_3  and  C_1 
REMARK       I    between atoms: N_4  and  C_1 
REMARK    2  A    between atoms: N_2  and  C_7 
REMARK    3  A    between atoms: C_16  and  N_4 
ROOT
ATOM      1  C   UNL d   1     -39.978  15.395  20.071  0.00  0.00     0.064 A 
ATOM      2  C   UNL d   1     -39.281  15.797  20.269  0.00  0.00     0.019 A 
ATOM      3  C   UNL d   1     -40.466  15.113  20.684  0.00  0.00     0.019 A 
ATOM      4  C   UNL d   1     -39.561  15.637  21.661  0.00  0.00     0.085 A 
ATOM      5  C   UNL d   1     -39.073  15.918  21.059  0.00  0.00     0.021 A 
ATOM      6  C   UNL d   1     -40.258  15.234  21.475  0.00  0.00     0.021 A 
ENDROOT
BRANCH   4   7
ATOM      7  N   UNL d   1     -39.354  15.758  22.450  0.00  0.00    -0.208 NA
ATOM      8  C   UNL d   1     -38.871  15.223  22.836  0.00  0.00     0.285 C 
ATOM      9  O   UNL d   1     -38.664  15.344  23.626  0.00  0.00    -0.265 OA
BRANCH   8  10
ATOM     10  C   UNL d   1     -38.592  14.562  22.433  0.00  0.00     0.087 A 
ATOM     11  S   UNL d   1     -37.986  14.459  21.890  0.00  0.00    -0.082 SA
ATOM     12  C   UNL d   1     -37.960  13.673  21.672  0.00  0.00     0.036 A 
ATOM     13  C   UNL d   1     -38.556  13.271  22.083  0.00  0.00     0.008 A 
ATOM     14  C   UNL d   1     -38.945  13.826  22.552  0.00  0.00     0.012 A 
ENDBRANCH   8  10
ENDBRANCH   4   7
BRANCH   1  15
ATOM     15  N   UNL d   1     -40.185  15.274  19.281  0.00  0.00    -0.301 N 
ATOM     16  C   UNL d   1     -40.368  15.909  18.801  0.00  0.00     0.100 A 
ATOM     17  C   UNL d   1     -40.575  15.788  18.012  0.00  0.00     0.100 A 
ATOM     18  N   UNL d   1     -40.600  15.033  17.702  0.00  0.00    -0.299 N 
ATOM     19  C   UNL d   1     -40.416  14.390  18.184  0.00  0.00     0.100 A 
ATOM     20  C   UNL d   1     -40.806  14.912  16.914  0.00  0.00     0.100 C 
ATOM     21  C   UNL d   1     -40.209  14.510  18.973  0.00  0.00     0.100 A 
ENDBRANCH   1  15
TORSDOF 3
ENDMDL
MODEL 7
REMARK VINA RESULT:      -4.9      9.900     10.790
REMARK  3 active torsions:
REMARK  status: ('A' for Active; 'I' for Inactive)
REMARK    1  A    between atoms: C_3  and  C_1 
REMARK       I    between atoms: N_4  and  C_1 
REMARK    2  A    between atoms: N_2  and  C_7 
REMARK    3  A    between atoms: C_16  and  N_4 
ROOT
ATOM      1  C   UNL d   1     -38.669  15.114  19.802  0.00  0.00     0.064 A 
ATOM      2  C   UNL d   1     -38.805  14.341  19.536  0.00  0.00     0.019 A 
ATOM      3  C   UNL d   1     -38.421  15.689  19.253  0.00  0.00     0.019 A 
ATOM      4  C   UNL d   1     -38.454  14.717  18.203  0.00  0.00     0.085 A 
ATOM      5  C   UNL d   1     -38.699  14.143  18.741  0.00  0.00     0.021 A 
ATOM      6  C   UNL d   1     -38.314  15.491  18.458  0.00  0.00     0.021 A 
ENDROOT
BRANCH   4   7
ATOM      7  N   UNL d   1     -38.347  14.520  17.409  0.00  0.00    -0.208 NA
ATOM      8  C   UNL d   1     -38.968  14.580  16.883  0.00  0.00     0.285 C 
ATOM      9  O   UNL d   1     -38.862  14.383  16.088  0.00  0.00    -0.265 OA
BRANCH   8  10
ATOM     10  C   UNL d   1     -39.704  14.839  17.148  0.00  0.00     0.087 A 
ATOM     11  S   UNL d   1     -40.299  14.472  17.575  0.00  0.00    -0.082 SA
ATOM     12  C   UNL d   1     -40.911  15.001  17.680  0.00  0.00     0.036 A 
ATOM     13  C   UNL d   1     -40.702  15.715  17.315  0.00  0.00     0.008 A 
ATOM     14  C   UNL d   1     -39.953  15.609  16.987  0.00  0.00     0.012 A 
ENDBRANCH   8  10
ENDBRANCH   4   7
BRANCH   1  15
ATOM     15  N   UNL d   1     -38.775  15.311  20.597  0.00  0.00    -0.301 N 
ATOM     16  C   UNL d   1     -38.217  15.097  21.153  0.00  0.00     0.100 A 
ATOM     17  C   UNL d   1     -38.324  15.294  21.947  0.00  0.00     0.100 A 
ATOM     18  N   UNL d   1     -38.989  15.705  22.185  0.00  0.00    -0.299 N 
ATOM     19  C   UNL d   1     -39.554  15.922  21.626  0.00  0.00     0.100 A 
ATOM     20  C   UNL d   1     -39.095  15.901  22.978  0.00  0.00     0.100 C 
ATOM     21  C   UNL d   1     -39.447  15.725  20.832  0.00  0.00     0.100 A 
ENDBRANCH   1  15
TORSDOF 3
ENDMDL
