MODEL 1
REMARK VINA RESULT:      -8.0      0.000      0.000
REMARK  5 active torsions:
REMARK  status: ('A' for Active; 'I' for Inactive)
REMARK    1  A    between atoms: C_2  and  C_1 
REMARK    2  A    between atoms: C_7  and  C_2 
REMARK    3  A    between atoms: C_9  and  N_3 
REMARK    4  A    between atoms: N_5  and  C_7 
REMARK    5  A    between atoms: O_24  and  C_20 
ROOT
ATOM      1  N   UNL d   1      51.936  33.817  53.315  0.00  0.00    -0.301 N 
ATOM      2  N   UNL d   1      50.476  34.203  52.630  0.00  0.00    -0.297 N 
ATOM      3  C   UNL d   1      51.901  34.350  52.688  0.00  0.00     0.100 A 
ATOM      4  C   UNL d   1      51.241  33.477  53.601  0.00  0.00     0.100 A 
ATOM      5  C   UNL d   1      51.168  34.546  52.341  0.00  0.00     0.100 A 
ATOM      6  C   UNL d   1      50.516  33.674  53.255  0.00  0.00     0.100 A 
ENDROOT
BRANCH   2   7
ATOM      7  C   UNL d   1      49.754  34.398  52.287  0.00  0.00     0.123 C 
BRANCH   7   8
ATOM      8  C   UNL d   1      49.295  35.008  52.598  0.00  0.00     0.216 C 
ATOM      9  O   UNL d   1      49.550  35.417  53.267  0.00  0.00    -0.285 OA
BRANCH   8  10
ATOM     10  C   UNL d   1      48.575  35.213  52.238  0.00  0.00     0.080 A 
ATOM     11  C   UNL d   1      48.041  35.683  52.629  0.00  0.00     0.202 A 
ATOM     12  C   UNL d   1      47.330  35.886  52.276  0.00  0.00     0.084 A 
ATOM     13  O   UNL d   1      48.216  35.956  53.387  0.00  0.00    -0.286 OA
ATOM     14  C   UNL d   1      47.149  35.613  51.510  0.00  0.00     0.199 A 
ATOM     15  C   UNL d   1      47.697  35.133  51.112  0.00  0.00     0.042 A 
ATOM     16  O   UNL d   1      46.438  35.817  51.158  0.00  0.00    -0.286 OA
ATOM     17  C   UNL d   1      48.409  34.931  51.472  0.00  0.00     0.010 A 
ENDBRANCH   8  10
ENDBRANCH   7   8
ENDBRANCH   2   7
BRANCH   1  18
ATOM     18  C   UNL d   1      52.658  33.626  53.654  0.00  0.00     0.064 A 
ATOM     19  C   UNL d   1      53.092  33.000  53.359  0.00  0.00     0.020 A 
ATOM     20  C   UNL d   1      53.823  32.807  53.703  0.00  0.00     0.026 A 
ATOM     21  C   UNL d   1      54.107  33.249  54.340  0.00  0.00     0.094 A 
ATOM     22  C   UNL d   1      53.659  33.886  54.635  0.00  0.00     0.026 A 
ATOM     23  C   UNL d   1      52.938  34.070  54.290  0.00  0.00     0.020 A 
BRANCH  21  24
ATOM     24  O   UNL d   1      54.836  33.054  54.680  0.00  0.00    -0.328 OA
ATOM     25  C   UNL d   1      55.196  33.588  55.195  0.00  0.00     0.181 C 
ENDBRANCH  21  24
ENDBRANCH   1  18
TORSDOF 5
ENDMDL
MODEL 2
REMARK VINA RESULT:      -7.9      1.020      5.757
REMARK  5 active torsions:
REMARK  status: ('A' for Active; 'I' for Inactive)
REMARK    1  A    between atoms: C_2  and  C_1 
REMARK    2  A    between atoms: C_7  and  C_2 
REMARK    3  A    between atoms: C_9  and  N_3 
REMARK    4  A    between atoms: N_5  and  C_7 
REMARK    5  A    between atoms: O_24  and  C_20 
ROOT
ATOM      1  N   UNL d   1      49.907  34.488  52.260  0.00  0.00    -0.301 N 
ATOM      2  N   UNL d   1      51.348  33.922  52.851  0.00  0.00    -0.297 N 
ATOM      3  C   UNL d   1      49.974  34.276  53.053  0.00  0.00     0.100 A 
ATOM      4  C   UNL d   1      50.560  34.417  51.762  0.00  0.00     0.100 A 
ATOM      5  C   UNL d   1      50.698  33.991  53.353  0.00  0.00     0.100 A 
ATOM      6  C   UNL d   1      51.275  34.134  52.062  0.00  0.00     0.100 A 
ENDROOT
BRANCH   2   7
ATOM      7  C   UNL d   1      52.061  33.640  53.148  0.00  0.00     0.123 C 
BRANCH   7   8
ATOM      8  C   UNL d   1      52.638  34.164  53.417  0.00  0.00     0.216 C 
ATOM      9  O   UNL d   1      52.634  34.949  53.162  0.00  0.00    -0.285 OA
BRANCH   8  10
ATOM     10  C   UNL d   1      53.225  33.904  53.944  0.00  0.00     0.080 A 
ATOM     11  C   UNL d   1      53.503  34.400  54.524  0.00  0.00     0.202 A 
ATOM     12  C   UNL d   1      54.082  34.145  55.045  0.00  0.00     0.084 A 
ATOM     13  O   UNL d   1      53.199  35.164  54.588  0.00  0.00    -0.286 OA
ATOM     14  C   UNL d   1      54.391  33.375  54.985  0.00  0.00     0.199 A 
ATOM     15  C   UNL d   1      54.106  32.870  54.391  0.00  0.00     0.042 A 
ATOM     16  O   UNL d   1      54.970  33.121  55.506  0.00  0.00    -0.286 OA
ATOM     17  C   UNL d   1      53.524  33.130  53.870  0.00  0.00     0.010 A 
ENDBRANCH   8  10
ENDBRANCH   7   8
ENDBRANCH   2   7
BRANCH   1  18
ATOM     18  C   UNL d   1      49.193  34.769  51.968  0.00  0.00     0.064 A 
ATOM     19  C   UNL d   1      48.923  34.512  51.241  0.00  0.00     0.020 A 
ATOM     20  C   UNL d   1      48.201  34.797  50.945  0.00  0.00     0.026 A 
ATOM     21  C   UNL d   1      47.760  35.337  51.386  0.00  0.00     0.094 A 
ATOM     22  C   UNL d   1      48.042  35.594  52.127  0.00  0.00     0.026 A 
ATOM     23  C   UNL d   1      48.756  35.309  52.412  0.00  0.00     0.020 A 
BRANCH  21  24
ATOM     24  O   UNL d   1      47.041  35.619  51.090  0.00  0.00    -0.328 OA
ATOM     25  C   UNL d   1      46.365  35.575  51.560  0.00  0.00     0.181 C 
ENDBRANCH  21  24
ENDBRANCH   1  18
TORSDOF 5
ENDMDL
MODEL 3
REMARK VINA RESULT:      -7.7      1.511      5.776
REMARK  5 active torsions:
REMARK  status: ('A' for Active; 'I' for Inactive)
REMARK    1  A    between atoms: C_2  and  C_1 
REMARK    2  A    between atoms: C_7  and  C_2 
REMARK    3  A    between atoms: C_9  and  N_3 
REMARK    4  A    between atoms: N_5  and  C_7 
REMARK    5  A    between atoms: O_24  and  C_20 
ROOT
ATOM      1  N   UNL d   1      50.272  34.217  52.675  0.00  0.00    -0.301 N 
ATOM      2  N   UNL d   1      51.611  33.383  53.184  0.00  0.00    -0.297 N 
ATOM      3  C   UNL d   1      50.191  33.585  53.196  0.00  0.00     0.100 A 
ATOM      4  C   UNL d   1      51.022  34.433  52.408  0.00  0.00     0.100 A 
ATOM      5  C   UNL d   1      50.863  33.163  53.454  0.00  0.00     0.100 A 
ATOM      6  C   UNL d   1      51.685  34.013  52.665  0.00  0.00     0.100 A 
ENDROOT
BRANCH   2   7
ATOM      7  C   UNL d   1      52.272  32.966  53.440  0.00  0.00     0.123 C 
BRANCH   7   8
ATOM      8  C   UNL d   1      52.691  32.486  52.917  0.00  0.00     0.216 C 
ATOM      9  O   UNL d   1      52.847  32.748  52.151  0.00  0.00    -0.285 OA
BRANCH   8  10
ATOM     10  C   UNL d   1      52.956  31.737  53.160  0.00  0.00     0.080 A 
ATOM     11  C   UNL d   1      53.630  31.667  53.608  0.00  0.00     0.202 A 
ATOM     12  C   UNL d   1      53.894  30.929  53.848  0.00  0.00     0.084 A 
ATOM     13  O   UNL d   1      54.051  32.344  53.821  0.00  0.00    -0.286 OA
ATOM     14  C   UNL d   1      53.472  30.243  53.636  0.00  0.00     0.199 A 
ATOM     15  C   UNL d   1      52.784  30.317  53.178  0.00  0.00     0.042 A 
ATOM     16  O   UNL d   1      53.736  29.507  53.877  0.00  0.00    -0.286 OA
ATOM     17  C   UNL d   1      52.523  31.061  52.938  0.00  0.00     0.010 A 
ENDBRANCH   8  10
ENDBRANCH   7   8
ENDBRANCH   2   7
BRANCH   1  18
ATOM     18  C   UNL d   1      49.609  34.630  52.422  0.00  0.00     0.064 A 
ATOM     19  C   UNL d   1      49.323  34.516  51.665  0.00  0.00     0.020 A 
ATOM     20  C   UNL d   1      48.653  34.935  51.411  0.00  0.00     0.026 A 
ATOM     21  C   UNL d   1      48.279  35.463  51.922  0.00  0.00     0.094 A 
ATOM     22  C   UNL d   1      48.577  35.575  52.693  0.00  0.00     0.026 A 
ATOM     23  C   UNL d   1      49.239  35.158  52.937  0.00  0.00     0.020 A 
BRANCH  21  24
ATOM     24  O   UNL d   1      47.611  35.879  51.666  0.00  0.00    -0.328 OA
ATOM     25  C   UNL d   1      47.207  36.362  52.198  0.00  0.00     0.181 C 
ENDBRANCH  21  24
ENDBRANCH   1  18
TORSDOF 5
ENDMDL
MODEL 4
REMARK VINA RESULT:      -5.9     10.285     10.954
REMARK  5 active torsions:
REMARK  status: ('A' for Active; 'I' for Inactive)
REMARK    1  A    between atoms: C_2  and  C_1 
REMARK    2  A    between atoms: C_7  and  C_2 
REMARK    3  A    between atoms: C_9  and  N_3 
REMARK    4  A    between atoms: N_5  and  C_7 
REMARK    5  A    between atoms: O_24  and  C_20 
ROOT
ATOM      1  N   UNL d   1      44.609  29.397  61.241  0.00  0.00    -0.301 N 
ATOM      2  N   UNL d   1      44.621  29.916  59.667  0.00  0.00    -0.297 N 
ATOM      3  C   UNL d   1      44.314  28.913  60.644  0.00  0.00     0.100 A 
ATOM      4  C   UNL d   1      44.911  30.141  61.052  0.00  0.00     0.100 A 
ATOM      5  C   UNL d   1      44.318  29.171  59.851  0.00  0.00     0.100 A 
ATOM      6  C   UNL d   1      44.914  30.393  60.265  0.00  0.00     0.100 A 
ENDROOT
BRANCH   2   7
ATOM      7  C   UNL d   1      44.624  30.169  58.884  0.00  0.00     0.123 C 
BRANCH   7   8
ATOM      8  C   UNL d   1      45.075  29.772  58.319  0.00  0.00     0.216 C 
ATOM      9  O   UNL d   1      45.681  29.265  58.556  0.00  0.00    -0.285 OA
BRANCH   8  10
ATOM     10  C   UNL d   1      44.920  29.882  57.511  0.00  0.00     0.080 A 
ATOM     11  C   UNL d   1      44.999  29.263  56.991  0.00  0.00     0.202 A 
ATOM     12  C   UNL d   1      44.847  29.368  56.193  0.00  0.00     0.084 A 
ATOM     13  O   UNL d   1      45.236  28.523  57.270  0.00  0.00    -0.286 OA
ATOM     14  C   UNL d   1      44.608  30.113  55.906  0.00  0.00     0.199 A 
ATOM     15  C   UNL d   1      44.527  30.745  56.439  0.00  0.00     0.042 A 
ATOM     16  O   UNL d   1      44.456  30.218  55.109  0.00  0.00    -0.286 OA
ATOM     17  C   UNL d   1      44.682  30.633  57.241  0.00  0.00     0.010 A 
ENDBRANCH   8  10
ENDBRANCH   7   8
ENDBRANCH   2   7
BRANCH   1  18
ATOM     18  C   UNL d   1      44.604  29.140  62.021  0.00  0.00     0.064 A 
ATOM     19  C   UNL d   1      44.348  29.643  62.612  0.00  0.00     0.020 A 
ATOM     20  C   UNL d   1      44.342  29.382  63.401  0.00  0.00     0.026 A 
ATOM     21  C   UNL d   1      44.596  28.618  63.583  0.00  0.00     0.094 A 
ATOM     22  C   UNL d   1      44.856  28.112  62.975  0.00  0.00     0.026 A 
ATOM     23  C   UNL d   1      44.858  28.376  62.199  0.00  0.00     0.020 A 
BRANCH  21  24
ATOM     24  O   UNL d   1      44.590  28.361  64.370  0.00  0.00    -0.328 OA
ATOM     25  C   UNL d   1      44.454  27.565  64.534  0.00  0.00     0.181 C 
ENDBRANCH  21  24
ENDBRANCH   1  18
TORSDOF 5
ENDMDL
MODEL 5
REMARK VINA RESULT:      -5.7     10.236     11.133
REMARK  5 active torsions:
REMARK  status: ('A' for Active; 'I' for Inactive)
REMARK    1  A    between atoms: C_2  and  C_1 
REMARK    2  A    between atoms: C_7  and  C_2 
REMARK    3  A    between atoms: C_9  and  N_3 
REMARK    4  A    between atoms: N_5  and  C_7 
REMARK    5  A    between atoms: O_24  and  C_20 
ROOT
ATOM      1  N   UNL d   1      44.385  30.254  60.856  0.00  0.00    -0.301 N 
ATOM      2  N   UNL d   1      44.417  29.452  59.405  0.00  0.00    -0.297 N 
ATOM      3  C   UNL d   1      44.314  30.672  60.150  0.00  0.00     0.100 A 
ATOM      4  C   UNL d   1      44.472  29.434  60.837  0.00  0.00     0.100 A 
ATOM      5  C   UNL d   1      44.329  30.272  59.419  0.00  0.00     0.100 A 
ATOM      6  C   UNL d   1      44.487  29.040  60.111  0.00  0.00     0.100 A 
ENDROOT
BRANCH   2   7
ATOM      7  C   UNL d   1      44.432  29.058  58.683  0.00  0.00     0.123 C 
BRANCH   7   8
ATOM      8  C   UNL d   1      45.148  28.826  58.349  0.00  0.00     0.216 C 
ATOM      9  O   UNL d   1      45.840  29.238  58.528  0.00  0.00    -0.285 OA
BRANCH   8  10
ATOM     10  C   UNL d   1      45.176  28.177  57.831  0.00  0.00     0.080 A 
ATOM     11  C   UNL d   1      45.081  28.287  57.032  0.00  0.00     0.202 A 
ATOM     12  C   UNL d   1      45.108  27.648  56.519  0.00  0.00     0.084 A 
ATOM     13  O   UNL d   1      44.956  29.047  56.736  0.00  0.00    -0.286 OA
ATOM     14  C   UNL d   1      45.234  26.879  56.813  0.00  0.00     0.199 A 
ATOM     15  C   UNL d   1      45.331  26.770  57.631  0.00  0.00     0.042 A 
ATOM     16  O   UNL d   1      45.261  26.242  56.300  0.00  0.00    -0.286 OA
ATOM     17  C   UNL d   1      45.303  27.415  58.142  0.00  0.00     0.010 A 
ENDBRANCH   8  10
ENDBRANCH   7   8
ENDBRANCH   2   7
BRANCH   1  18
ATOM     18  C   UNL d   1      44.370  30.650  61.574  0.00  0.00     0.064 A 
ATOM     19  C   UNL d   1      44.393  31.467  61.588  0.00  0.00     0.020 A 
ATOM     20  C   UNL d   1      44.377  31.868  62.315  0.00  0.00     0.026 A 
ATOM     21  C   UNL d   1      44.338  31.440  63.020  0.00  0.00     0.094 A 
ATOM     22  C   UNL d   1      44.315  30.607  62.998  0.00  0.00     0.026 A 
ATOM     23  C   UNL d   1      44.331  30.219  62.276  0.00  0.00     0.020 A 
BRANCH  21  24
ATOM     24  O   UNL d   1      44.323  31.841  63.743  0.00  0.00    -0.328 OA
ATOM     25  C   UNL d   1      44.315  31.409  64.445  0.00  0.00     0.181 C 
ENDBRANCH  21  24
ENDBRANCH   1  18
TORSDOF 5
ENDMDL
MODEL 6
REMARK VINA RESULT:      -5.5     10.116     10.931
REMARK  5 active torsions:
REMARK  status: ('A' for Active; 'I' for Inactive)
REMARK    1  A    between atoms: C_2  and  C_1 
REMARK    2  A    between atoms: C_7  and  C_2 
REMARK    3  A    between atoms: C_9  and  N_3 
REMARK    4  A    between atoms: N_5  and  C_7 
REMARK    5  A    between atoms: O_24  and  C_20 
ROOT
ATOM      1  N   UNL d   1      44.542  25.757  56.821  0.00  0.00    -0.301 N 
ATOM      2  N   UNL d   1      44.391  27.333  57.313  0.00  0.00    -0.297 N 
ATOM      3  C   UNL d   1      44.565  25.944  57.623  0.00  0.00     0.100 A 
ATOM      4  C   UNL d   1      44.444  26.358  56.264  0.00  0.00     0.100 A 
ATOM      5  C   UNL d   1      44.489  26.736  57.873  0.00  0.00     0.100 A 
ATOM      6  C   UNL d   1      44.369  27.141  56.516  0.00  0.00     0.100 A 
ENDROOT
BRANCH   2   7
ATOM      7  C   UNL d   1      44.316  28.114  57.561  0.00  0.00     0.123 C 
BRANCH   7   8
ATOM      8  C   UNL d   1      44.983  28.588  57.654  0.00  0.00     0.216 C 
ATOM      9  O   UNL d   1      45.728  28.242  57.735  0.00  0.00    -0.285 OA
BRANCH   8  10
ATOM     10  C   UNL d   1      44.909  29.415  57.667  0.00  0.00     0.080 A 
ATOM     11  C   UNL d   1      45.044  29.829  58.353  0.00  0.00     0.202 A 
ATOM     12  C   UNL d   1      44.971  30.644  58.368  0.00  0.00     0.084 A 
ATOM     13  O   UNL d   1      45.257  29.422  59.039  0.00  0.00    -0.286 OA
ATOM     14  C   UNL d   1      44.756  31.059  57.678  0.00  0.00     0.199 A 
ATOM     15  C   UNL d   1      44.618  30.634  56.977  0.00  0.00     0.042 A 
ATOM     16  O   UNL d   1      44.684  31.874  57.693  0.00  0.00    -0.286 OA
ATOM     17  C   UNL d   1      44.693  29.814  56.968  0.00  0.00     0.010 A 
ENDBRANCH   8  10
ENDBRANCH   7   8
ENDBRANCH   2   7
BRANCH   1  18
ATOM     18  C   UNL d   1      44.617  24.977  56.577  0.00  0.00     0.064 A 
ATOM     19  C   UNL d   1      44.977  24.808  55.863  0.00  0.00     0.020 A 
ATOM     20  C   UNL d   1      45.052  24.018  55.617  0.00  0.00     0.026 A 
ATOM     21  C   UNL d   1      44.764  23.410  56.094  0.00  0.00     0.094 A 
ATOM     22  C   UNL d   1      44.399  23.590  56.821  0.00  0.00     0.026 A 
ATOM     23  C   UNL d   1      44.328  24.373  57.057  0.00  0.00     0.020 A 
BRANCH  21  24
ATOM     24  O   UNL d   1      44.841  22.624  55.847  0.00  0.00    -0.328 OA
ATOM     25  C   UNL d   1      45.594  22.303  55.746  0.00  0.00     0.181 C 
ENDBRANCH  21  24
ENDBRANCH   1  18
TORSDOF 5
ENDMDL
MODEL 7
REMARK VINA RESULT:      -5.4     10.475     11.436
REMARK  5 active torsions:
REMARK  status: ('A' for Active; 'I' for Inactive)
REMARK    1  A    between atoms: C_2  and  C_1 
REMARK    2  A    between atoms: C_7  and  C_2 
REMARK    3  A    between atoms: C_9  and  N_3 
REMARK    4  A    between atoms: N_5  and  C_7 
REMARK    5  A    between atoms: O_24  and  C_20 
ROOT
ATOM      1  N   UNL d   1      44.746  28.042  58.942  0.00  0.00    -0.301 N 
ATOM      2  N   UNL d   1      44.458  28.974  60.282  0.00  0.00    -0.297 N 
ATOM      3  C   UNL d   1      44.585  27.685  59.667  0.00  0.00     0.100 A 
ATOM      4  C   UNL d   1      44.763  28.865  58.887  0.00  0.00     0.100 A 
ATOM      5  C   UNL d   1      44.440  28.152  60.343  0.00  0.00     0.100 A 
ATOM      6  C   UNL d   1      44.619  29.323  59.558  0.00  0.00     0.100 A 
ENDROOT
BRANCH   2   7
ATOM      7  C   UNL d   1      44.314  29.433  60.950  0.00  0.00     0.123 C 
BRANCH   7   8
ATOM      8  C   UNL d   1      44.788  30.086  61.118  0.00  0.00     0.216 C 
ATOM      9  O   UNL d   1      45.382  30.311  60.592  0.00  0.00    -0.285 OA
BRANCH   8  10
ATOM     10  C   UNL d   1      44.669  30.519  61.817  0.00  0.00     0.080 A 
ATOM     11  C   UNL d   1      44.561  31.323  61.787  0.00  0.00     0.202 A 
ATOM     12  C   UNL d   1      44.444  31.752  62.474  0.00  0.00     0.084 A 
ATOM     13  O   UNL d   1      44.572  31.709  61.058  0.00  0.00    -0.286 OA
ATOM     14  C   UNL d   1      44.433  31.367  63.213  0.00  0.00     0.199 A 
ATOM     15  C   UNL d   1      44.542  30.544  63.241  0.00  0.00     0.042 A 
ATOM     16  O   UNL d   1      44.315  31.797  63.900  0.00  0.00    -0.286 OA
ATOM     17  C   UNL d   1      44.660  30.118  62.547  0.00  0.00     0.010 A 
ENDBRANCH   8  10
ENDBRANCH   7   8
ENDBRANCH   2   7
BRANCH   1  18
ATOM     18  C   UNL d   1      44.889  27.580  58.279  0.00  0.00     0.064 A 
ATOM     19  C   UNL d   1      44.739  27.882  57.534  0.00  0.00     0.020 A 
ATOM     20  C   UNL d   1      44.884  27.415  56.864  0.00  0.00     0.026 A 
ATOM     21  C   UNL d   1      45.178  26.649  56.952  0.00  0.00     0.094 A 
ATOM     22  C   UNL d   1      45.328  26.348  57.714  0.00  0.00     0.026 A 
ATOM     23  C   UNL d   1      45.183  26.815  58.372  0.00  0.00     0.020 A 
BRANCH  21  24
ATOM     24  O   UNL d   1      45.322  26.185  56.282  0.00  0.00    -0.328 OA
ATOM     25  C   UNL d   1      44.744  25.655  56.025  0.00  0.00     0.181 C 
ENDBRANCH  21  24
ENDBRANCH   1  18
TORSDOF 5
ENDMDL
MODEL 8
REMARK VINA RESULT:      -5.2     10.711     11.635
REMARK  5 active torsions:
REMARK  status: ('A' for Active; 'I' for Inactive)
REMARK    1  A    between atoms: C_2  and  C_1 
REMARK    2  A    between atoms: C_7  and  C_2 
REMARK    3  A    between atoms: C_9  and  N_3 
REMARK    4  A    between atoms: N_5  and  C_7 
REMARK    5  A    between atoms: O_24  and  C_20 
ROOT
ATOM      1  N   UNL d   1      44.661  24.631  55.602  0.00  0.00    -0.301 N 
ATOM      2  N   UNL d   1      44.528  26.018  56.499  0.00  0.00    -0.297 N 
ATOM      3  C   UNL d   1      44.382  25.323  55.254  0.00  0.00     0.100 A 
ATOM      4  C   UNL d   1      44.874  24.631  56.399  0.00  0.00     0.100 A 
ATOM      5  C   UNL d   1      44.314  26.022  55.702  0.00  0.00     0.100 A 
ATOM      6  C   UNL d   1      44.806  25.326  56.840  0.00  0.00     0.100 A 
ENDROOT
BRANCH   2   7
ATOM      7  C   UNL d   1      44.461  26.710  56.940  0.00  0.00     0.123 C 
BRANCH   7   8
ATOM      8  C   UNL d   1      45.115  27.198  57.053  0.00  0.00     0.216 C 
ATOM      9  O   UNL d   1      45.811  27.061  56.632  0.00  0.00    -0.285 OA
BRANCH   8  10
ATOM     10  C   UNL d   1      45.075  27.830  57.590  0.00  0.00     0.080 A 
ATOM     11  C   UNL d   1      45.096  28.597  57.323  0.00  0.00     0.202 A 
ATOM     12  C   UNL d   1      45.057  29.222  57.851  0.00  0.00     0.084 A 
ATOM     13  O   UNL d   1      45.158  28.745  56.514  0.00  0.00    -0.286 OA
ATOM     14  C   UNL d   1      44.995  29.077  58.669  0.00  0.00     0.199 A 
ATOM     15  C   UNL d   1      44.973  28.293  58.940  0.00  0.00     0.042 A 
ATOM     16  O   UNL d   1      44.955  29.702  59.196  0.00  0.00    -0.286 OA
ATOM     17  C   UNL d   1      45.013  27.668  58.405  0.00  0.00     0.010 A 
ENDBRANCH   8  10
ENDBRANCH   7   8
ENDBRANCH   2   7
BRANCH   1  18
ATOM     18  C   UNL d   1      44.727  23.943  55.158  0.00  0.00     0.064 A 
ATOM     19  C   UNL d   1      44.366  23.896  54.427  0.00  0.00     0.020 A 
ATOM     20  C   UNL d   1      44.433  23.200  53.979  0.00  0.00     0.026 A 
ATOM     21  C   UNL d   1      44.863  22.561  54.273  0.00  0.00     0.094 A 
ATOM     22  C   UNL d   1      45.229  22.617  55.020  0.00  0.00     0.026 A 
ATOM     23  C   UNL d   1      45.158  23.307  55.457  0.00  0.00     0.020 A 
BRANCH  21  24
ATOM     24  O   UNL d   1      44.929  21.869  53.825  0.00  0.00    -0.328 OA
ATOM     25  C   UNL d   1      44.894  21.915  53.002  0.00  0.00     0.181 C 
ENDBRANCH  21  24
ENDBRANCH   1  18
TORSDOF 5
ENDMDL
