MODEL 1
REMARK VINA RESULT:      -2.7      0.000      0.000
REMARK  3 active torsions:
REMARK  status: ('A' for Active; 'I' for Inactive)
REMARK    1  A    between atoms: S_5  and  C_1 
REMARK    2  A    between atoms: C_11  and  S_5 
REMARK    3  A    between atoms: C_9  and  C_11 
ROOT
ATOM      1  C   UNL d   1      32.480  17.915 -23.705  0.00  0.00     0.068 A 
ATOM      2  C   UNL d   1      32.599  18.384 -24.372  0.00  0.00     0.068 A 
ATOM      3  C   UNL d   1      31.840  17.401 -23.671  0.00  0.00     0.013 A 
ATOM      4  C   UNL d   1      32.073  18.336 -25.005  0.00  0.00     0.012 A 
ATOM      5  C   UNL d   1      31.321  17.356 -24.300  0.00  0.00     0.007 A 
ATOM      6 CL   UNL d   1      33.008  17.960 -23.065  0.00  0.00    -0.082 Cl
ATOM      7 CL   UNL d   1      33.241  18.903 -24.412  0.00  0.00    -0.082 Cl
ATOM      8  C   UNL d   1      31.432  17.822 -24.972  0.00  0.00     0.001 A 
ENDROOT
BRANCH   5   9
ATOM      9  C   UNL d   1      30.677  16.839 -24.267  0.00  0.00     0.038 C 
BRANCH   9  10
ATOM     10  S   UNL d   1      29.884  17.036 -24.424  0.00  0.00    -0.048 SA
BRANCH  10  11
ATOM     11  C   UNL d   1      29.277  16.492 -24.240  0.00  0.00     0.194 A 
ATOM     12  N   UNL d   1      28.796  16.507 -23.570  0.00  0.00    -0.218 NA
ATOM     13  C   UNL d   1      28.272  15.866 -23.613  0.00  0.00     0.122 A 
ATOM     14  C   UNL d   1      28.433  15.453 -24.315  0.00  0.00     0.122 A 
ATOM     15  N   UNL d   1      29.053  15.840 -24.700  0.00  0.00    -0.218 NA
ENDBRANCH  10  11
ENDBRANCH   9  10
ENDBRANCH   5   9
TORSDOF 3
ENDMDL
MODEL 2
REMARK VINA RESULT:      -2.6      2.465      3.870
REMARK  3 active torsions:
REMARK  status: ('A' for Active; 'I' for Inactive)
REMARK    1  A    between atoms: S_5  and  C_1 
REMARK    2  A    between atoms: C_11  and  S_5 
REMARK    3  A    between atoms: C_9  and  C_11 
ROOT
ATOM      1  C   UNL d   1      29.335  15.864 -23.211  0.00  0.00     0.068 A 
ATOM      2  C   UNL d   1      28.722  15.973 -23.751  0.00  0.00     0.068 A 
ATOM      3  C   UNL d   1      30.085  16.159 -23.374  0.00  0.00     0.013 A 
ATOM      4  C   UNL d   1      28.864  16.377 -24.456  0.00  0.00     0.012 A 
ATOM      5  C   UNL d   1      30.221  16.559 -24.073  0.00  0.00     0.007 A 
ATOM      6 CL   UNL d   1      29.196  15.457 -22.501  0.00  0.00    -0.082 Cl
ATOM      7 CL   UNL d   1      27.966  15.679 -23.594  0.00  0.00    -0.082 Cl
ATOM      8  C   UNL d   1      29.614  16.672 -24.619  0.00  0.00     0.001 A 
ENDROOT
BRANCH   5   9
ATOM      9  C   UNL d   1      30.976  16.856 -24.237  0.00  0.00     0.038 C 
BRANCH   9  10
ATOM     10  S   UNL d   1      31.151  17.625 -24.502  0.00  0.00    -0.048 SA
BRANCH  10  11
ATOM     11  C   UNL d   1      31.943  17.890 -24.508  0.00  0.00     0.194 A 
ATOM     12  N   UNL d   1      32.285  18.412 -23.968  0.00  0.00    -0.218 NA
ATOM     13  C   UNL d   1      33.078  18.523 -24.182  0.00  0.00     0.122 A 
ATOM     14  C   UNL d   1      33.225  18.064 -24.858  0.00  0.00     0.122 A 
ATOM     15  N   UNL d   1      32.524  17.675 -25.058  0.00  0.00    -0.218 NA
ENDBRANCH  10  11
ENDBRANCH   9  10
ENDBRANCH   5   9
TORSDOF 3
ENDMDL
MODEL 3
REMARK VINA RESULT:      -2.6      3.226      4.016
REMARK  3 active torsions:
REMARK  status: ('A' for Active; 'I' for Inactive)
REMARK    1  A    between atoms: S_5  and  C_1 
REMARK    2  A    between atoms: C_11  and  S_5 
REMARK    3  A    between atoms: C_9  and  C_11 
ROOT
ATOM      1  C   UNL d   1      32.705  21.035 -21.390  0.00  0.00     0.068 A 
ATOM      2  C   UNL d   1      32.944  21.605 -21.935  0.00  0.00     0.068 A 
ATOM      3  C   UNL d   1      32.735  20.238 -21.588  0.00  0.00     0.013 A 
ATOM      4  C   UNL d   1      33.212  21.373 -22.680  0.00  0.00     0.012 A 
ATOM      5  C   UNL d   1      33.001  20.012 -22.327  0.00  0.00     0.007 A 
ATOM      6 CL   UNL d   1      32.435  21.264 -20.640  0.00  0.00    -0.082 Cl
ATOM      7 CL   UNL d   1      32.917  22.409 -21.743  0.00  0.00    -0.082 Cl
ATOM      8  C   UNL d   1      33.241  20.576 -22.878  0.00  0.00     0.001 A 
ENDROOT
BRANCH   5   9
ATOM      9  C   UNL d   1      33.030  19.210 -22.526  0.00  0.00     0.038 C 
BRANCH   9  10
ATOM     10  S   UNL d   1      32.832  18.883 -23.266  0.00  0.00    -0.048 SA
BRANCH  10  11
ATOM     11  C   UNL d   1      32.703  18.061 -23.334  0.00  0.00     0.194 A 
ATOM     12  N   UNL d   1      32.019  17.698 -23.618  0.00  0.00    -0.218 NA
ATOM     13  C   UNL d   1      32.130  16.877 -23.589  0.00  0.00     0.122 A 
ATOM     14  C   UNL d   1      32.889  16.734 -23.284  0.00  0.00     0.122 A 
ATOM     15  N   UNL d   1      33.241  17.465 -23.128  0.00  0.00    -0.218 NA
ENDBRANCH  10  11
ENDBRANCH   9  10
ENDBRANCH   5   9
TORSDOF 3
ENDMDL
MODEL 4
REMARK VINA RESULT:      -2.5      2.685      3.426
REMARK  3 active torsions:
REMARK  status: ('A' for Active; 'I' for Inactive)
REMARK    1  A    between atoms: S_5  and  C_1 
REMARK    2  A    between atoms: C_11  and  S_5 
REMARK    3  A    between atoms: C_9  and  C_11 
ROOT
ATOM      1  C   UNL d   1      33.183  20.079 -21.617  0.00  0.00     0.068 A 
ATOM      2  C   UNL d   1      33.217  20.677 -22.183  0.00  0.00     0.068 A 
ATOM      3  C   UNL d   1      33.173  19.291 -21.850  0.00  0.00     0.013 A 
ATOM      4  C   UNL d   1      33.241  20.483 -22.984  0.00  0.00     0.012 A 
ATOM      5  C   UNL d   1      33.196  19.102 -22.645  0.00  0.00     0.007 A 
ATOM      6 CL   UNL d   1      33.159  20.271 -20.810  0.00  0.00    -0.082 Cl
ATOM      7 CL   UNL d   1      33.228  21.472 -21.955  0.00  0.00    -0.082 Cl
ATOM      8  C   UNL d   1      33.231  19.695 -23.218  0.00  0.00     0.001 A 
ENDROOT
BRANCH   5   9
ATOM      9  C   UNL d   1      33.186  18.310 -22.881  0.00  0.00     0.038 C 
BRANCH   9  10
ATOM     10  S   UNL d   1      32.685  17.978 -23.456  0.00  0.00    -0.048 SA
BRANCH  10  11
ATOM     11  C   UNL d   1      32.592  17.149 -23.496  0.00  0.00     0.194 A 
ATOM     12  N   UNL d   1      31.876  16.738 -23.472  0.00  0.00    -0.218 NA
ATOM     13  C   UNL d   1      32.041  15.927 -23.528  0.00  0.00     0.122 A 
ATOM     14  C   UNL d   1      32.865  15.839 -23.585  0.00  0.00     0.122 A 
ATOM     15  N   UNL d   1      33.202  16.593 -23.565  0.00  0.00    -0.218 NA
ENDBRANCH  10  11
ENDBRANCH   9  10
ENDBRANCH   5   9
TORSDOF 3
ENDMDL
MODEL 5
REMARK VINA RESULT:      -2.2      7.064      8.052
REMARK  3 active torsions:
REMARK  status: ('A' for Active; 'I' for Inactive)
REMARK    1  A    between atoms: S_5  and  C_1 
REMARK    2  A    between atoms: C_11  and  S_5 
REMARK    3  A    between atoms: C_9  and  C_11 
ROOT
ATOM      1  C   UNL d   1      32.911  21.500 -20.813  0.00  0.00     0.068 A 
ATOM      2  C   UNL d   1      32.950  22.037 -21.437  0.00  0.00     0.068 A 
ATOM      3  C   UNL d   1      32.992  21.762 -20.038  0.00  0.00     0.013 A 
ATOM      4  C   UNL d   1      33.072  22.838 -21.282  0.00  0.00     0.012 A 
ATOM      5  C   UNL d   1      33.112  22.557 -19.888  0.00  0.00     0.007 A 
ATOM      6 CL   UNL d   1      32.789  20.693 -20.965  0.00  0.00    -0.082 Cl
ATOM      7 CL   UNL d   1      32.870  21.780 -22.219  0.00  0.00    -0.082 Cl
ATOM      8  C   UNL d   1      33.153  23.100 -20.507  0.00  0.00     0.001 A 
ENDROOT
BRANCH   5   9
ATOM      9  C   UNL d   1      33.193  22.821 -19.109  0.00  0.00     0.038 C 
BRANCH   9  10
ATOM     10  S   UNL d   1      32.585  23.128 -18.631  0.00  0.00    -0.048 SA
BRANCH  10  11
ATOM     11  C   UNL d   1      32.698  23.190 -17.806  0.00  0.00     0.194 A 
ATOM     12  N   UNL d   1      32.290  23.694 -17.297  0.00  0.00    -0.218 NA
ATOM     13  C   UNL d   1      32.578  23.575 -16.528  0.00  0.00     0.122 A 
ATOM     14  C   UNL d   1      33.168  22.991 -16.566  0.00  0.00     0.122 A 
ATOM     15  N   UNL d   1      33.241  22.756 -17.355  0.00  0.00    -0.218 NA
ENDBRANCH  10  11
ENDBRANCH   9  10
ENDBRANCH   5   9
TORSDOF 3
ENDMDL
MODEL 6
REMARK VINA RESULT:      -1.0      4.836      5.789
REMARK  3 active torsions:
REMARK  status: ('A' for Active; 'I' for Inactive)
REMARK    1  A    between atoms: S_5  and  C_1 
REMARK    2  A    between atoms: C_11  and  S_5 
REMARK    3  A    between atoms: C_9  and  C_11 
ROOT
ATOM      1  C   UNL d   1      32.239  22.865 -20.945  0.00  0.00     0.068 A 
ATOM      2  C   UNL d   1      32.598  22.832 -20.204  0.00  0.00     0.068 A 
ATOM      3  C   UNL d   1      32.377  22.272 -21.497  0.00  0.00     0.013 A 
ATOM      4  C   UNL d   1      33.097  22.201 -20.018  0.00  0.00     0.012 A 
ATOM      5  C   UNL d   1      32.872  21.649 -21.309  0.00  0.00     0.007 A 
ATOM      6 CL   UNL d   1      31.736  23.497 -21.135  0.00  0.00    -0.082 Cl
ATOM      7 CL   UNL d   1      32.463  23.425 -19.644  0.00  0.00    -0.082 Cl
ATOM      8  C   UNL d   1      33.235  21.608 -20.570  0.00  0.00     0.001 A 
ENDROOT
BRANCH   5   9
ATOM      9  C   UNL d   1      33.011  21.053 -21.864  0.00  0.00     0.038 C 
BRANCH   9  10
ATOM     10  S   UNL d   1      33.085  20.240 -21.700  0.00  0.00    -0.048 SA
BRANCH  10  11
ATOM     11  C   UNL d   1      33.129  19.693 -22.329  0.00  0.00     0.194 A 
ATOM     12  N   UNL d   1      33.227  19.876 -23.127  0.00  0.00    -0.218 NA
ATOM     13  C   UNL d   1      33.241  19.167 -23.556  0.00  0.00     0.122 A 
ATOM     14  C   UNL d   1      33.150  18.542 -23.017  0.00  0.00     0.122 A 
ATOM     15  N   UNL d   1      33.081  18.868 -22.261  0.00  0.00    -0.218 NA
ENDBRANCH  10  11
ENDBRANCH   9  10
ENDBRANCH   5   9
TORSDOF 3
ENDMDL
MODEL 7
REMARK VINA RESULT:      -0.3      2.914      4.245
REMARK  3 active torsions:
REMARK  status: ('A' for Active; 'I' for Inactive)
REMARK    1  A    between atoms: S_5  and  C_1 
REMARK    2  A    between atoms: C_11  and  S_5 
REMARK    3  A    between atoms: C_9  and  C_11 
ROOT
ATOM      1  C   UNL d   1      28.324  16.098 -23.489  0.00  0.00     0.068 A 
ATOM      2  C   UNL d   1      28.179  15.763 -22.751  0.00  0.00     0.068 A 
ATOM      3  C   UNL d   1      29.091  16.126 -23.785  0.00  0.00     0.013 A 
ATOM      4  C   UNL d   1      28.804  15.456 -22.309  0.00  0.00     0.012 A 
ATOM      5  C   UNL d   1      29.708  15.821 -23.345  0.00  0.00     0.007 A 
ATOM      6 CL   UNL d   1      27.697  16.408 -23.936  0.00  0.00    -0.082 Cl
ATOM      7 CL   UNL d   1      27.410  15.732 -22.447  0.00  0.00    -0.082 Cl
ATOM      8  C   UNL d   1      29.571  15.484 -22.605  0.00  0.00     0.001 A 
ENDROOT
BRANCH   5   9
ATOM      9  C   UNL d   1      30.479  15.849 -23.642  0.00  0.00     0.038 C 
BRANCH   9  10
ATOM     10  S   UNL d   1      31.167  16.002 -23.201  0.00  0.00    -0.048 SA
BRANCH  10  11
ATOM     11  C   UNL d   1      31.917  15.870 -23.544  0.00  0.00     0.194 A 
ATOM     12  N   UNL d   1      32.146  16.083 -24.307  0.00  0.00    -0.218 NA
ATOM     13  C   UNL d   1      32.934  15.849 -24.416  0.00  0.00     0.122 A 
ATOM     14  C   UNL d   1      33.191  15.489 -23.713  0.00  0.00     0.122 A 
ATOM     15  N   UNL d   1      32.563  15.503 -23.177  0.00  0.00    -0.218 NA
ENDBRANCH  10  11
ENDBRANCH   9  10
ENDBRANCH   5   9
TORSDOF 3
ENDMDL
MODEL 8
REMARK VINA RESULT:       0.1      3.045      4.192
REMARK  3 active torsions:
REMARK  status: ('A' for Active; 'I' for Inactive)
REMARK    1  A    between atoms: S_5  and  C_1 
REMARK    2  A    between atoms: C_11  and  S_5 
REMARK    3  A    between atoms: C_9  and  C_11 
ROOT
ATOM      1  C   UNL d   1      31.755  16.708 -23.713  0.00  0.00     0.068 A 
ATOM      2  C   UNL d   1      31.760  16.828 -24.528  0.00  0.00     0.068 A 
ATOM      3  C   UNL d   1      32.123  17.249 -23.215  0.00  0.00     0.013 A 
ATOM      4  C   UNL d   1      32.135  17.493 -24.842  0.00  0.00     0.012 A 
ATOM      5  C   UNL d   1      32.493  17.905 -23.529  0.00  0.00     0.007 A 
ATOM      6 CL   UNL d   1      31.379  16.041 -23.393  0.00  0.00    -0.082 Cl
ATOM      7 CL   UNL d   1      31.392  16.289 -25.036  0.00  0.00    -0.082 Cl
ATOM      8  C   UNL d   1      32.503  18.033 -24.344  0.00  0.00     0.001 A 
ENDROOT
BRANCH   5   9
ATOM      9  C   UNL d   1      32.863  18.450 -23.028  0.00  0.00     0.038 C 
BRANCH   9  10
ATOM     10  S   UNL d   1      32.893  19.274 -23.140  0.00  0.00    -0.048 SA
BRANCH  10  11
ATOM     11  C   UNL d   1      33.029  19.775 -22.486  0.00  0.00     0.194 A 
ATOM     12  N   UNL d   1      33.099  20.597 -22.510  0.00  0.00    -0.218 NA
ATOM     13  C   UNL d   1      33.231  20.868 -21.738  0.00  0.00     0.122 A 
ATOM     14  C   UNL d   1      33.241  20.207 -21.235  0.00  0.00     0.122 A 
ATOM     15  N   UNL d   1      33.116  19.535 -21.698  0.00  0.00    -0.218 NA
ENDBRANCH  10  11
ENDBRANCH   9  10
ENDBRANCH   5   9
TORSDOF 3
ENDMDL
MODEL 9
REMARK VINA RESULT:       0.2      1.497      2.144
REMARK  3 active torsions:
REMARK  status: ('A' for Active; 'I' for Inactive)
REMARK    1  A    between atoms: S_5  and  C_1 
REMARK    2  A    between atoms: C_11  and  S_5 
REMARK    3  A    between atoms: C_9  and  C_11 
ROOT
ATOM      1  C   UNL d   1      32.551  19.271 -22.908  0.00  0.00     0.068 A 
ATOM      2  C   UNL d   1      32.988  18.933 -22.296  0.00  0.00     0.068 A 
ATOM      3  C   UNL d   1      32.302  18.809 -23.541  0.00  0.00     0.013 A 
ATOM      4  C   UNL d   1      33.175  18.130 -22.321  0.00  0.00     0.012 A 
ATOM      5  C   UNL d   1      32.490  18.014 -23.561  0.00  0.00     0.007 A 
ATOM      6 CL   UNL d   1      32.361  20.079 -22.887  0.00  0.00    -0.082 Cl
ATOM      7 CL   UNL d   1      33.241  19.393 -21.657  0.00  0.00    -0.082 Cl
ATOM      8  C   UNL d   1      32.926  17.668 -22.953  0.00  0.00     0.001 A 
ENDROOT
BRANCH   5   9
ATOM      9  C   UNL d   1      32.240  17.548 -24.198  0.00  0.00     0.038 C 
BRANCH   9  10
ATOM     10  S   UNL d   1      31.585  17.701 -24.687  0.00  0.00    -0.048 SA
BRANCH  10  11
ATOM     11  C   UNL d   1      31.034  17.093 -24.845  0.00  0.00     0.194 A 
ATOM     12  N   UNL d   1      30.217  17.184 -24.918  0.00  0.00    -0.218 NA
ATOM     13  C   UNL d   1      29.887  16.440 -25.074  0.00  0.00     0.122 A 
ATOM     14  C   UNL d   1      30.506  15.887 -25.096  0.00  0.00     0.122 A 
ATOM     15  N   UNL d   1      31.212  16.292 -24.955  0.00  0.00    -0.218 NA
ENDBRANCH  10  11
ENDBRANCH   9  10
ENDBRANCH   5   9
TORSDOF 3
ENDMDL
