MODEL 1
REMARK VINA RESULT:      82.4      0.000      0.000
REMARK  6 active torsions:
REMARK  status: ('A' for Active; 'I' for Inactive)
REMARK    1  A    between atoms: N_4  and  C_2 
REMARK    2  A    between atoms: C_9  and  N_4 
REMARK    3  A    between atoms: O_16  and  C_8 
REMARK    4  A    between atoms: O_24  and  C_10 
REMARK    5  A    between atoms: C_22  and  O_16 
REMARK    6  A    between atoms: C_26  and  C_22 
ROOT
ATOM      1  C   UNL d   1     -55.381-101.765 -40.008  0.00  0.00     0.056 A 
ATOM      2  C   UNL d   1     -55.254-101.783 -39.196  0.00  0.00     0.166 A 
ATOM      3  C   UNL d   1     -55.902-102.303 -40.357  0.00  0.00     0.088 A 
ATOM      4  C   UNL d   1     -54.989-101.210 -40.474  0.00  0.00     0.031 A 
ATOM      5  N   UNL d   1     -55.648-102.340 -38.723  0.00  0.00    -0.205 NA
ATOM      6  C   UNL d   1     -56.029-102.285 -41.171  0.00  0.00     0.046 A 
ATOM      7  C   UNL d   1     -55.637-101.731 -41.635  0.00  0.00     0.124 A 
ATOM      8  C   UNL d   1     -55.116-101.193 -41.286  0.00  0.00     0.117 A 
ATOM      9  N   UNL d   1     -56.295-102.857 -39.893  0.00  0.00    -0.224 NA
ATOM     10  C   UNL d   1     -56.169-102.878 -39.072  0.00  0.00     0.200 A 
ENDROOT
BRANCH   2  11
ATOM     11  N   UNL d   1     -54.728-101.240 -38.844  0.00  0.00    -0.224 NA
BRANCH  11  12
ATOM     12  C   UNL d   1     -54.737-101.139 -38.031  0.00  0.00     0.110 A 
ATOM     13  C   UNL d   1     -54.762-101.787 -37.520  0.00  0.00     0.158 A 
ATOM     14  C   UNL d   1     -54.771-101.687 -36.703  0.00  0.00     0.038 A 
ATOM     15  F   UNL d   1     -54.779-102.557 -37.838  0.00  0.00    -0.203 F 
ATOM     16  C   UNL d   1     -54.753-100.917 -36.384  0.00  0.00     0.037 A 
ATOM     17  C   UNL d   1     -54.728-100.260 -36.897  0.00  0.00     0.008 A 
ATOM     18 BR   UNL d   1     -54.762-100.813 -35.557  0.00  0.00    -0.049 Br
ATOM     19  C   UNL d   1     -54.720-100.369 -37.712  0.00  0.00     0.022 A 
ENDBRANCH  11  12
ENDBRANCH   2  11
BRANCH   8  20
ATOM     20  O   UNL d   1     -54.722-100.633 -41.762  0.00  0.00    -0.326 OA
ATOM     21  C   UNL d   1     -54.745 -99.832 -41.565  0.00  0.00     0.181 C 
ENDBRANCH   8  20
BRANCH   7  22
ATOM     22  O   UNL d   1     -55.765-101.710 -42.461  0.00  0.00    -0.303 OA
BRANCH  22  23
ATOM     23  C   UNL d   1     -56.103-101.043 -42.814  0.00  0.00     0.123 C 
BRANCH  23  24
ATOM     24  C   UNL d   1     -55.758-100.722 -43.494  0.00  0.00     0.028 A 
ATOM     25  C   UNL d   1     -55.781 -99.903 -43.626  0.00  0.00     0.021 A 
ATOM     26  C   UNL d   1     -55.436 -99.589 -44.304  0.00  0.00     0.080 A 
ATOM     27  N   UNL d   1     -55.065-100.081 -44.860  0.00  0.00    -0.301 N 
ATOM     28  C   UNL d   1     -55.043-100.896 -44.728  0.00  0.00     0.080 A 
ATOM     29  C   UNL d   1     -54.714 -99.756 -45.551  0.00  0.00     0.100 C 
ATOM     30  C   UNL d   1     -55.390-101.218 -44.045  0.00  0.00     0.021 A 
ENDBRANCH  23  24
ENDBRANCH  22  23
ENDBRANCH   7  22
TORSDOF 6
ENDMDL
