MODEL 1
REMARK VINA RESULT:      60.1      0.000      0.000
REMARK  5 active torsions:
REMARK  status: ('A' for Active; 'I' for Inactive)
REMARK    1  A    between atoms: N_2  and  S_1 
REMARK    2  A    between atoms: C_4  and  S_1 
REMARK    3  A    between atoms: C_3  and  C_6 
REMARK    4  A    between atoms: C_12  and  N_5 
REMARK    5  A    between atoms: O_24  and  C_20 
ROOT
ATOM      1  N   UNL d   1     -49.624  25.401  33.508  0.00  0.00    -0.226 N 
ATOM      2  N   UNL d   1     -51.133  24.744  33.532  0.00  0.00    -0.301 N 
ATOM      3  C   UNL d   1     -50.284  25.873  33.348  0.00  0.00     0.111 A 
ATOM      4  C   UNL d   1     -49.724  24.592  33.681  0.00  0.00     0.111 A 
ATOM      5  C   UNL d   1     -50.483  24.268  33.692  0.00  0.00     0.100 A 
ATOM      6  C   UNL d   1     -51.031  25.541  33.361  0.00  0.00     0.100 A 
ENDROOT
BRANCH   1   7
ATOM      7  S   UNL d   1     -48.876  25.720  33.498  0.00  0.00     0.271 S 
ATOM      8  O   UNL d   1     -48.117  26.044  33.487  0.00  0.00    -0.200 OA
ATOM      9  O   UNL d   1     -48.561  24.987  33.320  0.00  0.00    -0.200 OA
BRANCH   7  10
ATOM     10  C   UNL d   1     -49.190  26.462  33.677  0.00  0.00     0.104 A 
ATOM     11  C   UNL d   1     -48.790  26.976  34.186  0.00  0.00     0.017 A 
ATOM     12  C   UNL d   1     -49.104  27.717  34.365  0.00  0.00     0.072 A 
ATOM     13  C   UNL d   1     -49.821  27.952  34.037  0.00  0.00     0.004 A 
ATOM     14  C   UNL d   1     -50.231  27.443  33.524  0.00  0.00     0.001 A 
ATOM     15  C   UNL d   1     -49.914  26.695  33.343  0.00  0.00     0.013 A 
BRANCH  12  16
ATOM     16  C   UNL d   1     -48.700  28.225  34.873  0.00  0.00     0.419 C 
ATOM     17  F   UNL d   1     -47.947  28.106  35.266  0.00  0.00    -0.166 F 
ATOM     18  F   UNL d   1     -48.922  29.010  35.148  0.00  0.00    -0.166 F 
ATOM     19  F   UNL d   1     -48.328  28.687  35.339  0.00  0.00    -0.166 F 
ENDBRANCH  12  16
ENDBRANCH   7  10
ENDBRANCH   1   7
BRANCH   2  20
ATOM     20  C   UNL d   1     -51.890  24.421  33.542  0.00  0.00     0.064 A 
ATOM     21  C   UNL d   1     -52.541  24.899  33.705  0.00  0.00     0.020 A 
ATOM     22  C   UNL d   1     -53.300  24.575  33.715  0.00  0.00     0.026 A 
ATOM     23  C   UNL d   1     -53.408  23.773  33.563  0.00  0.00     0.094 A 
ATOM     24  C   UNL d   1     -52.750  23.295  33.400  0.00  0.00     0.026 A 
ATOM     25  C   UNL d   1     -51.992  23.622  33.391  0.00  0.00     0.020 A 
BRANCH  23  26
ATOM     26  O   UNL d   1     -54.165  23.446  33.573  0.00  0.00    -0.328 OA
ATOM     27  C   UNL d   1     -54.512  23.220  34.293  0.00  0.00     0.181 C 
ENDBRANCH  23  26
ENDBRANCH   2  20
TORSDOF 5
ENDMDL
