MODEL 1
REMARK VINA RESULT:      24.0      0.000      0.000
REMARK  1 active torsions:
REMARK  status: ('A' for Active; 'I' for Inactive)
REMARK    1  A    between atoms: C_12  and  N_2 
ROOT
ATOM      1  C   UNL d   1      58.340  49.707  51.332  0.00  0.00     0.267 A 
ATOM      2  N   UNL d   1      57.570  49.707  51.116  0.00  0.00    -0.271 N 
ATOM      3  C   UNL d   1      58.887  49.707  50.911  0.00  0.00     0.081 A 
ATOM      4  C   UNL d   1      58.982  49.707  50.094  0.00  0.00     0.105 A 
ATOM      5  O   UNL d   1      58.532  49.708  49.547  0.00  0.00    -0.305 OA
ATOM      6  C   UNL d   1      57.286  49.707  50.330  0.00  0.00     0.090 A 
ATOM      7  C   UNL d   1      57.727  49.707  49.604  0.00  0.00     0.116 A 
ATOM      8  C   UNL d   1      59.544  49.707  51.410  0.00  0.00     0.028 A 
ATOM      9  O   UNL d   1      58.496  49.707  52.141  0.00  0.00    -0.267 OA
ATOM     10  C   UNL d   1      59.736  49.708  49.768  0.00  0.00     0.026 A 
ATOM     11  C   UNL d   1      60.301  49.707  51.085  0.00  0.00     0.103 A 
ATOM     12  N   UNL d   1      60.959  49.707  51.575  0.00  0.00    -0.148 N 
ATOM     13  C   UNL d   1      60.398  49.708  50.259  0.00  0.00     0.023 A 
ATOM     14  C   UNL d   1      56.435  49.707  50.306  0.00  0.00     0.020 A 
ATOM     15  C   UNL d   1      57.325  49.707  48.858  0.00  0.00     0.026 A 
ATOM     16  C   UNL d   1      56.034  49.707  49.556  0.00  0.00     0.002 A 
ATOM     17  C   UNL d   1      56.483  49.707  48.830  0.00  0.00     0.002 A 
ENDROOT
BRANCH   2  18
ATOM     18  C   UNL d   1      57.011  49.707  51.716  0.00  0.00     0.083 C 
ATOM     19  C   UNL d   1      56.220  49.625  51.537  0.00  0.00     0.021 C 
ENDBRANCH   2  18
TORSDOF 1
ENDMDL
