MODEL 1
REMARK VINA RESULT:      -3.5      0.000      0.000
REMARK  5 active torsions:
REMARK  status: ('A' for Active; 'I' for Inactive)
REMARK    1  A    between atoms: N_2  and  S_1 
REMARK    2  A    between atoms: C_4  and  S_1 
REMARK    3  A    between atoms: C_3  and  C_6 
REMARK    4  A    between atoms: C_12  and  N_5 
REMARK    5  A    between atoms: O_24  and  C_20 
ROOT
ATOM      1  N   UNL d   1      58.612   0.145  29.789  0.00  0.00    -0.226 N 
ATOM      2  N   UNL d   1      57.677  -0.079  31.125  0.00  0.00    -0.301 N 
ATOM      3  C   UNL d   1      58.650   0.682  30.417  0.00  0.00     0.111 A 
ATOM      4  C   UNL d   1      58.099  -0.511  29.835  0.00  0.00     0.111 A 
ATOM      5  C   UNL d   1      57.632  -0.617  30.507  0.00  0.00     0.100 A 
ATOM      6  C   UNL d   1      58.184   0.566  31.078  0.00  0.00     0.100 A 
ENDROOT
BRANCH   1   7
ATOM      7  S   UNL d   1      59.072   0.250  29.127  0.00  0.00     0.271 S 
ATOM      8  O   UNL d   1      59.538   0.357  28.455  0.00  0.00    -0.200 OA
ATOM      9  O   UNL d   1      58.473   0.680  28.775  0.00  0.00    -0.200 OA
BRANCH   7  10
ATOM     10  C   UNL d   1      59.679  -0.184  29.479  0.00  0.00     0.104 A 
ATOM     11  C   UNL d   1      59.767  -0.990  29.318  0.00  0.00     0.017 A 
ATOM     12  C   UNL d   1      60.374  -1.424  29.670  0.00  0.00     0.072 A 
ATOM     13  C   UNL d   1      60.898  -1.056  30.187  0.00  0.00     0.004 A 
ATOM     14  C   UNL d   1      60.818  -0.246  30.356  0.00  0.00     0.001 A 
ATOM     15  C   UNL d   1      60.205   0.192  30.000  0.00  0.00     0.013 A 
BRANCH  12  16
ATOM     16  C   UNL d   1      60.457  -2.227  29.505  0.00  0.00     0.419 C 
ATOM     17  F   UNL d   1      60.007  -2.888  29.811  0.00  0.00    -0.166 F 
ATOM     18  F   UNL d   1      61.016  -2.620  28.981  0.00  0.00    -0.166 F 
ATOM     19  F   UNL d   1      60.531  -2.962  29.356  0.00  0.00    -0.166 F 
ENDBRANCH  12  16
ENDBRANCH   7  10
ENDBRANCH   1   7
BRANCH   2  20
ATOM     20  C   UNL d   1      57.211  -0.186  31.797  0.00  0.00     0.064 A 
ATOM     21  C   UNL d   1      57.269   0.341  32.427  0.00  0.00     0.020 A 
ATOM     22  C   UNL d   1      56.802   0.235  33.099  0.00  0.00     0.026 A 
ATOM     23  C   UNL d   1      56.278  -0.399  33.141  0.00  0.00     0.094 A 
ATOM     24  C   UNL d   1      56.223  -0.928  32.503  0.00  0.00     0.026 A 
ATOM     25  C   UNL d   1      56.691  -0.818  31.833  0.00  0.00     0.020 A 
BRANCH  23  26
ATOM     26  O   UNL d   1      55.810  -0.509  33.811  0.00  0.00    -0.328 OA
ATOM     27  C   UNL d   1      55.153  -0.018  33.946  0.00  0.00     0.181 C 
ENDBRANCH  23  26
ENDBRANCH   2  20
TORSDOF 5
ENDMDL
MODEL 2
REMARK VINA RESULT:      -3.5      8.710      9.882
REMARK  5 active torsions:
REMARK  status: ('A' for Active; 'I' for Inactive)
REMARK    1  A    between atoms: N_2  and  S_1 
REMARK    2  A    between atoms: C_4  and  S_1 
REMARK    3  A    between atoms: C_3  and  C_6 
REMARK    4  A    between atoms: C_12  and  N_5 
REMARK    5  A    between atoms: O_24  and  C_20 
ROOT
ATOM      1  N   UNL d   1      60.071  -9.406  34.398  0.00  0.00    -0.226 N 
ATOM      2  N   UNL d   1      59.091  -9.538  33.083  0.00  0.00    -0.301 N 
ATOM      3  C   UNL d   1      59.325  -9.755  34.471  0.00  0.00     0.111 A 
ATOM      4  C   UNL d   1      60.326  -9.121  33.657  0.00  0.00     0.111 A 
ATOM      5  C   UNL d   1      59.830  -9.189  33.002  0.00  0.00     0.100 A 
ATOM      6  C   UNL d   1      58.842  -9.818  33.815  0.00  0.00     0.100 A 
ENDROOT
BRANCH   1   7
ATOM      7  S   UNL d   1      60.560  -9.338  35.045  0.00  0.00     0.271 S 
ATOM      8  O   UNL d   1      61.056  -9.269  35.700  0.00  0.00    -0.200 OA
ATOM      9  O   UNL d   1      61.121  -9.802  34.674  0.00  0.00    -0.200 OA
BRANCH   7  10
ATOM     10  C   UNL d   1      59.995  -8.869  35.422  0.00  0.00     0.104 A 
ATOM     11  C   UNL d   1      60.022  -8.045  35.356  0.00  0.00     0.017 A 
ATOM     12  C   UNL d   1      59.457  -7.577  35.734  0.00  0.00     0.072 A 
ATOM     13  C   UNL d   1      58.861  -7.927  36.181  0.00  0.00     0.004 A 
ATOM     14  C   UNL d   1      58.826  -8.754  36.253  0.00  0.00     0.001 A 
ATOM     15  C   UNL d   1      59.396  -9.227  35.872  0.00  0.00     0.013 A 
BRANCH  12  16
ATOM     16  C   UNL d   1      59.489  -6.756  35.664  0.00  0.00     0.419 C 
ATOM     17  F   UNL d   1      60.070  -6.211  35.982  0.00  0.00    -0.166 F 
ATOM     18  F   UNL d   1      58.950  -6.223  35.256  0.00  0.00    -0.166 F 
ATOM     19  F   UNL d   1      59.520  -6.005  35.603  0.00  0.00    -0.166 F 
ENDBRANCH  12  16
ENDBRANCH   7  10
ENDBRANCH   1   7
BRANCH   2  20
ATOM     20  C   UNL d   1      58.596  -9.606  32.428  0.00  0.00     0.064 A 
ATOM     21  C   UNL d   1      57.779  -9.640  32.529  0.00  0.00     0.020 A 
ATOM     22  C   UNL d   1      57.283  -9.709  31.874  0.00  0.00     0.026 A 
ATOM     23  C   UNL d   1      57.604  -9.744  31.116  0.00  0.00     0.094 A 
ATOM     24  C   UNL d   1      58.427  -9.710  31.018  0.00  0.00     0.026 A 
ATOM     25  C   UNL d   1      58.920  -9.641  31.676  0.00  0.00     0.020 A 
BRANCH  23  26
ATOM     26  O   UNL d   1      57.111  -9.813  30.458  0.00  0.00    -0.328 OA
ATOM     27  C   UNL d   1      57.426  -9.741  29.693  0.00  0.00     0.181 C 
ENDBRANCH  23  26
ENDBRANCH   2  20
TORSDOF 5
ENDMDL
