MODEL 1
REMARK VINA RESULT:      -9.1      0.000      0.000
REMARK  1 active torsions:
REMARK  status: ('A' for Active; 'I' for Inactive)
REMARK    1  A    between atoms: C_7  and  C_5 
ROOT
ATOM      1  C   UNL d   1     -47.985  12.843  23.164  0.00  0.00     0.110 A 
ATOM      2  C   UNL d   1     -48.478  11.650  23.524  0.00  0.00     0.332 A 
ATOM      3  C   UNL d   1     -47.355  12.348  23.352  0.00  0.00     0.060 A 
ATOM      4  S   UNL d   1     -47.654  11.614  23.574  0.00  0.00    -0.018 SA
ATOM      5  C   UNL d   1     -47.856  13.620  22.920  0.00  0.00     0.027 A 
ATOM      6  O   UNL d   1     -48.683  12.410  23.270  0.00  0.00    -0.268 OA
ATOM      7  C   UNL d   1     -46.574  12.646  23.292  0.00  0.00     0.051 A 
ATOM      8  C   UNL d   1     -47.087  13.911  22.862  0.00  0.00     0.044 A 
ATOM      9  O   UNL d   1     -49.008  11.039  23.696  0.00  0.00    -0.251 OA
ATOM     10  C   UNL d   1     -46.445  13.424  23.048  0.00  0.00     0.196 A 
ATOM     11  O   UNL d   1     -45.673  13.718  22.990  0.00  0.00    -0.286 OA
ENDROOT
BRANCH   5  12
ATOM     12  C   UNL d   1     -48.498  14.107  22.733  0.00  0.00     0.004 A 
ATOM     13  C   UNL d   1     -48.824  14.599  23.309  0.00  0.00     0.030 A 
ATOM     14  C   UNL d   1     -49.466  15.087  23.123  0.00  0.00     0.140 A 
ATOM     15  F   UNL d   1     -49.795  15.582  23.698  0.00  0.00    -0.204 F 
ATOM     16  C   UNL d   1     -49.781  15.081  22.361  0.00  0.00     0.030 A 
ATOM     17  C   UNL d   1     -49.455  14.588  21.785  0.00  0.00     0.002 A 
ATOM     18  C   UNL d   1     -48.813  14.101  21.971  0.00  0.00     0.000 A 
ENDBRANCH   5  12
TORSDOF 1
ENDMDL
MODEL 2
REMARK VINA RESULT:      -9.0      0.754      1.998
REMARK  1 active torsions:
REMARK  status: ('A' for Active; 'I' for Inactive)
REMARK    1  A    between atoms: C_7  and  C_5 
ROOT
ATOM      1  C   UNL d   1     -47.956  12.708  23.283  0.00  0.00     0.110 A 
ATOM      2  C   UNL d   1     -46.624  12.652  23.417  0.00  0.00     0.332 A 
ATOM      3  C   UNL d   1     -47.755  11.959  23.558  0.00  0.00     0.060 A 
ATOM      4  S   UNL d   1     -46.936  11.921  23.642  0.00  0.00    -0.018 SA
ATOM      5  C   UNL d   1     -48.743  12.913  23.146  0.00  0.00     0.027 A 
ATOM      6  O   UNL d   1     -47.254  13.139  23.196  0.00  0.00    -0.268 OA
ATOM      7  C   UNL d   1     -48.365  11.401  23.698  0.00  0.00     0.051 A 
ATOM      8  C   UNL d   1     -49.341  12.362  23.284  0.00  0.00     0.044 A 
ATOM      9  O   UNL d   1     -45.825  12.864  23.413  0.00  0.00    -0.251 OA
ATOM     10  C   UNL d   1     -49.152  11.606  23.560  0.00  0.00     0.196 A 
ATOM     11  O   UNL d   1     -49.754  11.054  23.698  0.00  0.00    -0.286 OA
ENDROOT
BRANCH   5  12
ATOM     12  C   UNL d   1     -48.932  13.669  22.869  0.00  0.00     0.004 A 
ATOM     13  C   UNL d   1     -49.091  14.276  23.404  0.00  0.00     0.030 A 
ATOM     14  C   UNL d   1     -49.280  15.032  23.128  0.00  0.00     0.140 A 
ATOM     15  F   UNL d   1     -49.440  15.644  23.661  0.00  0.00    -0.204 F 
ATOM     16  C   UNL d   1     -49.310  15.180  22.317  0.00  0.00     0.030 A 
ATOM     17  C   UNL d   1     -49.151  14.573  21.782  0.00  0.00     0.002 A 
ATOM     18  C   UNL d   1     -48.962  13.817  22.058  0.00  0.00     0.000 A 
ENDBRANCH   5  12
TORSDOF 1
ENDMDL
MODEL 3
REMARK VINA RESULT:      -8.6      1.733      1.998
REMARK  1 active torsions:
REMARK  status: ('A' for Active; 'I' for Inactive)
REMARK    1  A    between atoms: C_7  and  C_5 
ROOT
ATOM      1  C   UNL d   1     -47.693  12.903  23.018  0.00  0.00     0.110 A 
ATOM      2  C   UNL d   1     -46.942  11.882  23.451  0.00  0.00     0.332 A 
ATOM      3  C   UNL d   1     -46.922  13.174  23.121  0.00  0.00     0.060 A 
ATOM      4  S   UNL d   1     -46.457  12.548  23.387  0.00  0.00    -0.018 SA
ATOM      5  C   UNL d   1     -48.288  13.409  22.754  0.00  0.00     0.027 A 
ATOM      6  O   UNL d   1     -47.706  12.101  23.223  0.00  0.00    -0.268 OA
ATOM      7  C   UNL d   1     -46.748  13.976  22.952  0.00  0.00     0.051 A 
ATOM      8  C   UNL d   1     -48.114  14.198  22.589  0.00  0.00     0.044 A 
ATOM      9  O   UNL d   1     -46.710  11.127  23.698  0.00  0.00    -0.251 OA
ATOM     10  C   UNL d   1     -47.344  14.482  22.688  0.00  0.00     0.196 A 
ATOM     11  O   UNL d   1     -47.171  15.275  22.521  0.00  0.00    -0.286 OA
ENDROOT
BRANCH   5  12
ATOM     12  C   UNL d   1     -49.059  13.126  22.655  0.00  0.00     0.004 A 
ATOM     13  C   UNL d   1     -49.298  12.827  21.924  0.00  0.00     0.030 A 
ATOM     14  C   UNL d   1     -50.069  12.543  21.826  0.00  0.00     0.140 A 
ATOM     15  F   UNL d   1     -50.313  12.243  21.094  0.00  0.00    -0.204 F 
ATOM     16  C   UNL d   1     -50.599  12.559  22.457  0.00  0.00     0.030 A 
ATOM     17  C   UNL d   1     -50.359  12.857  23.188  0.00  0.00     0.002 A 
ATOM     18  C   UNL d   1     -49.589  13.141  23.287  0.00  0.00     0.000 A 
ENDBRANCH   5  12
TORSDOF 1
ENDMDL
MODEL 4
REMARK VINA RESULT:      -8.4      1.987      3.386
REMARK  1 active torsions:
REMARK  status: ('A' for Active; 'I' for Inactive)
REMARK    1  A    between atoms: C_7  and  C_5 
ROOT
ATOM      1  C   UNL d   1     -49.070  14.024  22.632  0.00  0.00     0.110 A 
ATOM      2  C   UNL d   1     -49.533  15.154  23.182  0.00  0.00     0.332 A 
ATOM      3  C   UNL d   1     -49.830  14.158  22.347  0.00  0.00     0.060 A 
ATOM      4  S   UNL d   1     -50.118  14.853  22.683  0.00  0.00    -0.018 SA
ATOM      5  C   UNL d   1     -48.637  13.365  22.391  0.00  0.00     0.027 A 
ATOM      6  O   UNL d   1     -48.884  14.642  23.150  0.00  0.00    -0.268 OA
ATOM      7  C   UNL d   1     -50.163  13.612  21.805  0.00  0.00     0.051 A 
ATOM      8  C   UNL d   1     -48.966  12.829  21.858  0.00  0.00     0.044 A 
ATOM      9  O   UNL d   1     -49.581  15.845  23.635  0.00  0.00    -0.251 OA
ATOM     10  C   UNL d   1     -49.730  12.952  21.564  0.00  0.00     0.196 A 
ATOM     11  O   UNL d   1     -50.059  12.413  21.029  0.00  0.00    -0.286 OA
ENDROOT
BRANCH   5  12
ATOM     12  C   UNL d   1     -47.874  13.241  22.685  0.00  0.00     0.004 A 
ATOM     13  C   UNL d   1     -47.231  13.628  22.341  0.00  0.00     0.030 A 
ATOM     14  C   UNL d   1     -46.468  13.504  22.634  0.00  0.00     0.140 A 
ATOM     15  F   UNL d   1     -45.821  13.891  22.292  0.00  0.00    -0.204 F 
ATOM     16  C   UNL d   1     -46.348  12.994  23.271  0.00  0.00     0.030 A 
ATOM     17  C   UNL d   1     -46.990  12.607  23.615  0.00  0.00     0.002 A 
ATOM     18  C   UNL d   1     -47.754  12.730  23.321  0.00  0.00     0.000 A 
ENDBRANCH   5  12
TORSDOF 1
ENDMDL
MODEL 5
REMARK VINA RESULT:      -8.2      1.867      3.143
REMARK  1 active torsions:
REMARK  status: ('A' for Active; 'I' for Inactive)
REMARK    1  A    between atoms: C_7  and  C_5 
ROOT
ATOM      1  C   UNL d   1     -49.336  13.435  22.849  0.00  0.00     0.110 A 
ATOM      2  C   UNL d   1     -50.088  14.516  22.604  0.00  0.00     0.332 A 
ATOM      3  C   UNL d   1     -50.118  13.254  23.033  0.00  0.00     0.060 A 
ATOM      4  S   UNL d   1     -50.583  13.917  22.884  0.00  0.00    -0.018 SA
ATOM      5  C   UNL d   1     -48.738  12.875  22.942  0.00  0.00     0.027 A 
ATOM      6  O   UNL d   1     -49.317  14.218  22.582  0.00  0.00    -0.268 OA
ATOM      7  C   UNL d   1     -50.300  12.487  23.320  0.00  0.00     0.051 A 
ATOM      8  C   UNL d   1     -48.920  12.121  23.224  0.00  0.00     0.044 A 
ATOM      9  O   UNL d   1     -50.317  15.280  22.384  0.00  0.00    -0.251 OA
ATOM     10  C   UNL d   1     -49.701  11.928  23.413  0.00  0.00     0.196 A 
ATOM     11  O   UNL d   1     -49.882  11.170  23.696  0.00  0.00    -0.286 OA
ENDROOT
BRANCH   5  12
ATOM     12  C   UNL d   1     -47.956  13.069  22.753  0.00  0.00     0.004 A 
ATOM     13  C   UNL d   1     -47.468  13.415  23.320  0.00  0.00     0.030 A 
ATOM     14  C   UNL d   1     -46.687  13.609  23.131  0.00  0.00     0.140 A 
ATOM     15  F   UNL d   1     -46.193  13.957  23.698  0.00  0.00    -0.204 F 
ATOM     16  C   UNL d   1     -46.394  13.457  22.375  0.00  0.00     0.030 A 
ATOM     17  C   UNL d   1     -46.883  13.110  21.808  0.00  0.00     0.002 A 
ATOM     18  C   UNL d   1     -47.664  12.916  21.997  0.00  0.00     0.000 A 
ENDBRANCH   5  12
TORSDOF 1
ENDMDL
MODEL 6
REMARK VINA RESULT:      -6.7      8.437      9.512
REMARK  1 active torsions:
REMARK  status: ('A' for Active; 'I' for Inactive)
REMARK    1  A    between atoms: C_7  and  C_5 
ROOT
ATOM      1  C   UNL d   1     -39.703  14.360  18.363  0.00  0.00     0.110 A 
ATOM      2  C   UNL d   1     -38.618  13.584  18.239  0.00  0.00     0.332 A 
ATOM      3  C   UNL d   1     -39.597  14.189  17.565  0.00  0.00     0.060 A 
ATOM      4  S   UNL d   1     -38.930  13.712  17.485  0.00  0.00    -0.018 SA
ATOM      5  C   UNL d   1     -40.330  14.831  18.617  0.00  0.00     0.027 A 
ATOM      6  O   UNL d   1     -39.096  13.984  18.782  0.00  0.00    -0.268 OA
ATOM      7  C   UNL d   1     -40.139  14.503  17.008  0.00  0.00     0.051 A 
ATOM      8  C   UNL d   1     -40.862  15.138  18.066  0.00  0.00     0.044 A 
ATOM      9  O   UNL d   1     -37.948  13.135  18.423  0.00  0.00    -0.251 OA
ATOM     10  C   UNL d   1     -40.767  14.974  17.262  0.00  0.00     0.196 A 
ATOM     11  O   UNL d   1     -41.302  15.284  16.710  0.00  0.00    -0.286 OA
ENDROOT
BRANCH   5  12
ATOM     12  C   UNL d   1     -40.426  14.995  19.422  0.00  0.00     0.004 A 
ATOM     13  C   UNL d   1     -40.838  14.469  19.904  0.00  0.00     0.030 A 
ATOM     14  C   UNL d   1     -40.934  14.633  20.709  0.00  0.00     0.140 A 
ATOM     15  F   UNL d   1     -41.347  14.107  21.197  0.00  0.00    -0.204 F 
ATOM     16  C   UNL d   1     -40.618  15.324  21.030  0.00  0.00     0.030 A 
ATOM     17  C   UNL d   1     -40.205  15.850  20.548  0.00  0.00     0.002 A 
ATOM     18  C   UNL d   1     -40.110  15.686  19.743  0.00  0.00     0.000 A 
ENDBRANCH   5  12
TORSDOF 1
ENDMDL
MODEL 7
REMARK VINA RESULT:      -6.7      9.469     10.551
REMARK  1 active torsions:
REMARK  status: ('A' for Active; 'I' for Inactive)
REMARK    1  A    between atoms: C_7  and  C_5 
ROOT
ATOM      1  C   UNL d   1     -39.918  15.108  18.249  0.00  0.00     0.110 A 
ATOM      2  C   UNL d   1     -39.738  15.573  19.492  0.00  0.00     0.332 A 
ATOM      3  C   UNL d   1     -40.527  15.634  18.419  0.00  0.00     0.060 A 
ATOM      4  S   UNL d   1     -40.420  15.922  19.184  0.00  0.00    -0.018 SA
ATOM      5  C   UNL d   1     -39.877  14.728  17.518  0.00  0.00     0.027 A 
ATOM      6  O   UNL d   1     -39.427  15.070  18.915  0.00  0.00    -0.268 OA
ATOM      7  C   UNL d   1     -41.112  15.779  17.837  0.00  0.00     0.051 A 
ATOM      8  C   UNL d   1     -40.453  14.873  16.947  0.00  0.00     0.044 A 
ATOM      9  O   UNL d   1     -39.418  15.701  20.244  0.00  0.00    -0.251 OA
ATOM     10  C   UNL d   1     -41.071  15.399  17.106  0.00  0.00     0.196 A 
ATOM     11  O   UNL d   1     -41.649  15.544  16.530  0.00  0.00    -0.286 OA
ENDROOT
BRANCH   5  12
ATOM     12  C   UNL d   1     -39.259  14.201  17.359  0.00  0.00     0.004 A 
ATOM     13  C   UNL d   1     -39.317  13.413  17.596  0.00  0.00     0.030 A 
ATOM     14  C   UNL d   1     -38.699  12.887  17.437  0.00  0.00     0.140 A 
ATOM     15  F   UNL d   1     -38.753  12.096  17.672  0.00  0.00    -0.204 F 
ATOM     16  C   UNL d   1     -38.024  13.150  17.041  0.00  0.00     0.030 A 
ATOM     17  C   UNL d   1     -37.967  13.938  16.805  0.00  0.00     0.002 A 
ATOM     18  C   UNL d   1     -38.585  14.464  16.964  0.00  0.00     0.000 A 
ENDBRANCH   5  12
TORSDOF 1
ENDMDL
