MODEL 1
REMARK VINA RESULT:      58.6      0.000      0.000
REMARK  3 active torsions:
REMARK  status: ('A' for Active; 'I' for Inactive)
REMARK    1  A    between atoms: C_9  and  C_1 
REMARK    2  A    between atoms: C_4  and  C_5 
REMARK       I    between atoms: C_5  and  N_8 
REMARK    3  A    between atoms: N_8  and  C_16 
ROOT
ATOM      1  C   UNL d   1      13.858  16.927  -5.604  0.00  0.00     0.024 A 
ATOM      2  C   UNL d   1      14.442  16.585  -5.153  0.00  0.00     0.004 A 
ATOM      3  C   UNL d   1      13.241  16.482  -5.909  0.00  0.00     0.004 A 
ATOM      4  C   UNL d   1      13.799  15.325  -5.302  0.00  0.00     0.085 A 
ATOM      5  C   UNL d   1      13.209  15.680  -5.759  0.00  0.00     0.019 A 
ATOM      6  C   UNL d   1      14.416  15.779  -4.999  0.00  0.00     0.019 A 
ENDROOT
BRANCH   1   7
ATOM      7  C   UNL d   1      13.890  17.735  -5.755  0.00  0.00     0.111 A 
ATOM      8  N   UNL d   1      14.548  18.228  -5.633  0.00  0.00    -0.239 NA
ATOM      9  C   UNL d   1      14.335  19.000  -5.859  0.00  0.00     0.088 A 
ATOM     10  C   UNL d   1      14.748  19.705  -5.862  0.00  0.00     0.020 A 
ATOM     11  C   UNL d   1      13.545  18.981  -6.120  0.00  0.00     0.049 A 
ATOM     12  C   UNL d   1      14.385  20.400  -6.123  0.00  0.00     0.002 A 
ATOM     13  C   UNL d   1      13.602  20.385  -6.382  0.00  0.00     0.001 A 
ATOM     14  C   UNL d   1      13.179  19.673  -6.381  0.00  0.00     0.008 A 
ATOM     15  S   UNL d   1      13.276  18.205  -6.055  0.00  0.00    -0.066 SA
ENDBRANCH   1   7
BRANCH   4  16
ATOM     16  N   UNL d   1      13.766  14.513  -5.151  0.00  0.00    -0.206 NA
ATOM     17  C   UNL d   1      13.251  14.227  -4.575  0.00  0.00     0.304 C 
ATOM     18  O   UNL d   1      12.772  14.737  -4.151  0.00  0.00    -0.263 OA
BRANCH  17  19
ATOM     19  C   UNL d   1      13.225  13.407  -4.430  0.00  0.00     0.182 A 
ATOM     20  O   UNL d   1      13.284  13.135  -3.650  0.00  0.00    -0.296 OA
ATOM     21  C   UNL d   1      13.258  12.322  -3.511  0.00  0.00     0.150 A 
ATOM     22  C   UNL d   1      13.174  11.789  -4.136  0.00  0.00     0.149 A 
ATOM     23  O   UNL d   1      13.116  12.070  -4.902  0.00  0.00    -0.299 OA
ATOM     24  C   UNL d   1      13.141  12.875  -5.056  0.00  0.00     0.152 A 
ENDBRANCH  17  19
ENDBRANCH   4  16
TORSDOF 3
ENDMDL
MODEL 2
REMARK VINA RESULT:      59.6      2.040      5.699
REMARK  3 active torsions:
REMARK  status: ('A' for Active; 'I' for Inactive)
REMARK    1  A    between atoms: C_9  and  C_1 
REMARK    2  A    between atoms: C_4  and  C_5 
REMARK       I    between atoms: C_5  and  N_8 
REMARK    3  A    between atoms: N_8  and  C_16 
ROOT
ATOM      1  C   UNL d   1      13.736  15.190  -4.888  0.00  0.00     0.024 A 
ATOM      2  C   UNL d   1      14.125  15.613  -4.312  0.00  0.00     0.004 A 
ATOM      3  C   UNL d   1      13.529  15.535  -5.602  0.00  0.00     0.004 A 
ATOM      4  C   UNL d   1      14.111  16.754  -5.163  0.00  0.00     0.085 A 
ATOM      5  C   UNL d   1      13.716  16.317  -5.742  0.00  0.00     0.019 A 
ATOM      6  C   UNL d   1      14.316  16.401  -4.447  0.00  0.00     0.019 A 
ENDROOT
BRANCH   1   7
ATOM      7  C   UNL d   1      13.547  14.402  -4.747  0.00  0.00     0.111 A 
ATOM      8  N   UNL d   1      13.188  13.884  -5.290  0.00  0.00    -0.239 NA
ATOM      9  C   UNL d   1      13.101  13.145  -4.917  0.00  0.00     0.088 A 
ATOM     10  C   UNL d   1      12.789  12.434  -5.174  0.00  0.00     0.020 A 
ATOM     11  C   UNL d   1      13.406  13.209  -4.147  0.00  0.00     0.049 A 
ATOM     12  C   UNL d   1      12.776  11.779  -4.671  0.00  0.00     0.002 A 
ATOM     13  C   UNL d   1      13.078  11.839  -3.906  0.00  0.00     0.001 A 
ATOM     14  C   UNL d   1      13.395  12.556  -3.641  0.00  0.00     0.008 A 
ATOM     15  S   UNL d   1      13.679  13.980  -4.046  0.00  0.00    -0.066 SA
ENDBRANCH   1   7
BRANCH   4  16
ATOM     16  N   UNL d   1      14.299  17.546  -5.305  0.00  0.00    -0.206 NA
ATOM     17  C   UNL d   1      13.835  17.988  -5.824  0.00  0.00     0.304 C 
ATOM     18  O   UNL d   1      13.191  17.652  -6.198  0.00  0.00    -0.263 OA
BRANCH  17  19
ATOM     19  C   UNL d   1      14.033  18.785  -5.961  0.00  0.00     0.182 A 
ATOM     20  O   UNL d   1      14.806  19.039  -5.808  0.00  0.00    -0.296 OA
ATOM     21  C   UNL d   1      14.999  19.830  -5.945  0.00  0.00     0.150 A 
ATOM     22  C   UNL d   1      14.432  20.359  -6.229  0.00  0.00     0.149 A 
ATOM     23  O   UNL d   1      13.672  20.096  -6.377  0.00  0.00    -0.299 OA
ATOM     24  C   UNL d   1      13.466  19.314  -6.245  0.00  0.00     0.152 A 
ENDBRANCH  17  19
ENDBRANCH   4  16
TORSDOF 3
ENDMDL
