MODEL 1
REMARK VINA RESULT:       1.6      0.000      0.000
REMARK  7 active torsions:
REMARK  status: ('A' for Active; 'I' for Inactive)
REMARK       I    between atoms: C_3  and  N_1 
REMARK    1  A    between atoms: C_4  and  N_1 
REMARK    2  A    between atoms: C_5  and  N_1 
REMARK    3  A    between atoms: N_2  and  C_7 
REMARK    4  A    between atoms: C_8  and  C_3 
REMARK    5  A    between atoms: C_6  and  C_5 
REMARK    6  A    between atoms: C_9  and  C_6 
REMARK    7  A    between atoms: O_19  and  C_9 
ROOT
ATOM      1  N   UNL d   1     -41.770-122.639 -51.926  0.00  0.00    -0.258 N 
ATOM      2  C   UNL d   1     -42.118-123.097 -52.524  0.00  0.00     0.266 C 
ATOM      3  O   UNL d   1     -42.478-123.808 -52.378  0.00  0.00    -0.267 OA
ENDROOT
BRANCH   1   4
ATOM      4  C   UNL d   1     -41.797-122.930 -51.145  0.00  0.00     0.150 A 
ATOM      5  N   UNL d   1     -41.126-123.249 -50.812  0.00  0.00    -0.227 NA
ATOM      6  C   UNL d   1     -41.166-123.527 -50.053  0.00  0.00     0.101 A 
ATOM      7  C   UNL d   1     -41.898-123.488 -49.608  0.00  0.00     0.021 A 
ATOM      8  C   UNL d   1     -42.563-123.171 -49.939  0.00  0.00     0.005 A 
ATOM      9  C   UNL d   1     -42.530-122.890 -50.700  0.00  0.00     0.037 A 
ENDBRANCH   1   4
BRANCH   1  10
ATOM     10  C   UNL d   1     -41.411-121.919 -52.113  0.00  0.00     0.090 C 
BRANCH  10  11
ATOM     11  C   UNL d   1     -41.422-121.302 -51.527  0.00  0.00     0.087 C 
BRANCH  11  12
ATOM     12  C   UNL d   1     -41.230-120.520 -51.736  0.00  0.00     0.297 C 
ATOM     13  O   UNL d   1     -41.126-120.321 -52.502  0.00  0.00    -0.259 OA
BRANCH  12  14
ATOM     14  O   UNL d   1     -41.150-119.960 -51.141  0.00  0.00    -0.296 OA
ATOM     15  C   UNL d   1     -41.305-119.163 -51.287  0.00  0.00     0.185 C 
ENDBRANCH  12  14
ENDBRANCH  11  12
ENDBRANCH  10  11
ENDBRANCH   1  10
BRANCH   2  16
ATOM     16  C   UNL d   1     -42.089-122.803 -53.309  0.00  0.00     0.057 A 
ATOM     17  C   UNL d   1     -42.656-122.320 -53.588  0.00  0.00     0.006 A 
ATOM     18  C   UNL d   1     -42.631-122.025 -54.369  0.00  0.00     0.024 A 
ATOM     19  C   UNL d   1     -42.022-122.232 -54.850  0.00  0.00     0.127 A 
ATOM     20  C   UNL d   1     -41.425-122.739 -54.559  0.00  0.00     0.024 A 
ATOM     21  C   UNL d   1     -41.463-123.016 -53.802  0.00  0.00     0.006 A 
BRANCH  19  22
ATOM     22  N   UNL d   1     -42.011-121.934 -55.615  0.00  0.00    -0.114 N 
ATOM     23  O   UNL d   1     -41.474-121.362 -55.902  0.00  0.00    -0.532 OA
ATOM     24  O   UNL d   1     -42.540-122.168 -56.204  0.00  0.00    -0.532 OA
ENDBRANCH  19  22
ENDBRANCH   2  16
TORSDOF 7
ENDMDL
MODEL 2
REMARK VINA RESULT:       3.3      1.975      2.986
REMARK  7 active torsions:
REMARK  status: ('A' for Active; 'I' for Inactive)
REMARK       I    between atoms: C_3  and  N_1 
REMARK    1  A    between atoms: C_4  and  N_1 
REMARK    2  A    between atoms: C_5  and  N_1 
REMARK    3  A    between atoms: N_2  and  C_7 
REMARK    4  A    between atoms: C_8  and  C_3 
REMARK    5  A    between atoms: C_6  and  C_5 
REMARK    6  A    between atoms: C_9  and  C_6 
REMARK    7  A    between atoms: O_19  and  C_9 
ROOT
ATOM      1  N   UNL d   1     -42.249-122.905 -49.580  0.00  0.00    -0.258 N 
ATOM      2  C   UNL d   1     -41.627-123.306 -49.956  0.00  0.00     0.266 C 
ATOM      3  O   UNL d   1     -41.130-123.811 -49.563  0.00  0.00    -0.267 OA
ENDROOT
BRANCH   1   4
ATOM      4  C   UNL d   1     -42.359-123.032 -48.763  0.00  0.00     0.150 A 
ATOM      5  N   UNL d   1     -41.954-122.572 -48.227  0.00  0.00    -0.227 NA
ATOM      6  C   UNL d   1     -42.070-122.706 -47.437  0.00  0.00     0.101 A 
ATOM      7  C   UNL d   1     -42.607-123.319 -47.169  0.00  0.00     0.021 A 
ATOM      8  C   UNL d   1     -43.008-123.774 -47.701  0.00  0.00     0.005 A 
ATOM      9  C   UNL d   1     -42.896-123.645 -48.495  0.00  0.00     0.037 A 
ENDBRANCH   1   4
BRANCH   1  10
ATOM     10  C   UNL d   1     -42.735-122.398 -50.013  0.00  0.00     0.090 C 
BRANCH  10  11
ATOM     11  C   UNL d   1     -43.566-122.385 -49.829  0.00  0.00     0.087 C 
BRANCH  11  12
ATOM     12  C   UNL d   1     -44.100-121.981 -50.322  0.00  0.00     0.297 C 
ATOM     13  O   UNL d   1     -43.840-121.602 -50.975  0.00  0.00    -0.259 OA
BRANCH  12  14
ATOM     14  O   UNL d   1     -44.897-121.979 -50.125  0.00  0.00    -0.296 OA
ATOM     15  C   UNL d   1     -45.299-121.271 -49.993  0.00  0.00     0.185 C 
ENDBRANCH  12  14
ENDBRANCH  11  12
ENDBRANCH  10  11
ENDBRANCH   1  10
BRANCH   2  16
ATOM     16  C   UNL d   1     -41.518-123.176 -50.777  0.00  0.00     0.057 A 
ATOM     17  C   UNL d   1     -41.646-123.757 -51.306  0.00  0.00     0.006 A 
ATOM     18  C   UNL d   1     -41.539-123.632 -52.125  0.00  0.00     0.024 A 
ATOM     19  C   UNL d   1     -41.301-122.910 -52.386  0.00  0.00     0.127 A 
ATOM     20  C   UNL d   1     -41.166-122.299 -51.833  0.00  0.00     0.024 A 
ATOM     21  C   UNL d   1     -41.274-122.435 -51.045  0.00  0.00     0.006 A 
BRANCH  19  22
ATOM     22  N   UNL d   1     -41.200-122.802 -53.193  0.00  0.00    -0.114 N 
ATOM     23  O   UNL d   1     -41.124-123.415 -53.757  0.00  0.00    -0.532 OA
ATOM     24  O   UNL d   1     -41.160-122.061 -53.553  0.00  0.00    -0.532 OA
ENDBRANCH  19  22
ENDBRANCH   2  16
TORSDOF 7
ENDMDL
