MODEL 1
REMARK VINA RESULT:     116.1      0.000      0.000
REMARK  7 active torsions:
REMARK  status: ('A' for Active; 'I' for Inactive)
REMARK    1  A    between atoms: P_4  and  C_1 
REMARK    2  A    between atoms: N_7  and  C_3 
REMARK    3  A    between atoms: C_9  and  P_4 
REMARK    4  A    between atoms: C_10  and  P_4 
REMARK    5  A    between atoms: C_11  and  C_5 
REMARK    6  A    between atoms: C_12  and  N_7 
REMARK    7  A    between atoms: C_13  and  C_12 
ROOT
ATOM      1  C   UNL d   1     -55.237-100.075 -42.862  0.00  0.00     0.161 A 
ATOM      2  N   UNL d   1     -54.901-100.347 -42.154  0.00  0.00    -0.215 NA
ATOM      3  C   UNL d   1     -55.918 -99.572 -42.673  0.00  0.00     0.205 A 
ATOM      4  C   UNL d   1     -55.322-100.051 -41.528  0.00  0.00     0.184 A 
ATOM      5  O   UNL d   1     -55.969 -99.560 -41.808  0.00  0.00    -0.270 OA
ENDROOT
BRANCH   1   6
ATOM      6  P   UNL d   1     -55.137-100.129 -43.580  0.00  0.00     0.195 P 
ATOM      7  O   UNL d   1     -55.148-100.725 -43.049  0.00  0.00    -0.305 OA
BRANCH   6   8
ATOM      8  C   UNL d   1     -55.008-100.806 -44.050  0.00  0.00     0.038 A 
ATOM      9  C   UNL d   1     -54.871-101.527 -43.692  0.00  0.00     0.004 A 
ATOM     10  C   UNL d   1     -54.743-102.196 -44.157  0.00  0.00     0.000 A 
ATOM     11  C   UNL d   1     -54.754-102.133 -44.970  0.00  0.00     0.000 A 
ATOM     12  C   UNL d   1     -54.891-101.411 -45.329  0.00  0.00     0.000 A 
ATOM     13  C   UNL d   1     -55.019-100.742 -44.865  0.00  0.00     0.004 A 
ENDBRANCH   6   8
BRANCH   6  14
ATOM     14  C   UNL d   1     -55.091 -99.585 -44.351  0.00  0.00     0.038 A 
ATOM     15  C   UNL d   1     -54.727 -98.993 -44.781  0.00  0.00     0.004 A 
ATOM     16  C   UNL d   1     -55.021 -98.777 -45.497  0.00  0.00     0.000 A 
ATOM     17  C   UNL d   1     -55.697 -99.155 -45.805  0.00  0.00     0.000 A 
ATOM     18  C   UNL d   1     -56.060 -99.739 -45.388  0.00  0.00     0.000 A 
ATOM     19  C   UNL d   1     -55.767 -99.963 -44.659  0.00  0.00     0.004 A 
ENDBRANCH   6  14
ENDBRANCH   1   6
BRANCH   3  20
ATOM     20  N   UNL d   1     -56.256 -99.301 -43.314  0.00  0.00    -0.219 NA
BRANCH  20  21
ATOM     21  C   UNL d   1     -56.843 -98.810 -43.635  0.00  0.00     0.101 C 
BRANCH  21  22
ATOM     22  C   UNL d   1     -57.618 -98.883 -43.410  0.00  0.00     0.019 A 
ATOM     23  C   UNL d   1     -57.840 -98.776 -42.620  0.00  0.00     0.002 A 
ATOM     24  C   UNL d   1     -58.652 -98.855 -42.399  0.00  0.00     0.000 A 
ATOM     25  C   UNL d   1     -59.227 -99.037 -42.961  0.00  0.00     0.000 A 
ATOM     26  C   UNL d   1     -58.997 -99.147 -43.772  0.00  0.00     0.000 A 
ATOM     27  C   UNL d   1     -58.189 -99.068 -43.989  0.00  0.00     0.002 A 
ENDBRANCH  21  22
ENDBRANCH  20  21
ENDBRANCH   3  20
BRANCH   4  28
ATOM     28  C   UNL d   1     -55.121-100.224 -40.743  0.00  0.00     0.041 A 
ATOM     29  C   UNL d   1     -54.959 -99.606 -40.193  0.00  0.00     0.004 A 
ATOM     30  C   UNL d   1     -54.758 -99.808 -39.403  0.00  0.00     0.000 A 
ATOM     31  C   UNL d   1     -54.717-100.588 -39.159  0.00  0.00     0.000 A 
ATOM     32  C   UNL d   1     -54.880-101.207 -39.714  0.00  0.00     0.000 A 
ATOM     33  C   UNL d   1     -55.084-101.010 -40.512  0.00  0.00     0.004 A 
ENDBRANCH   4  28
TORSDOF 7
ENDMDL
