MODEL 1
REMARK VINA RESULT:      41.7      0.000      0.000
REMARK  2 active torsions:
REMARK  status: ('A' for Active; 'I' for Inactive)
REMARK    1  A    between atoms: C_13  and  C_6 
REMARK    2  A    between atoms: N_7  and  C_12 
ROOT
ATOM      1  C   UNL d   1      57.485  49.490  50.245  0.00  0.00     0.095 A 
ATOM      2  C   UNL d   1      57.407  49.586  51.652  0.00  0.00     0.095 A 
ATOM      3  C   UNL d   1      56.654  49.474  50.200  0.00  0.00     0.143 A 
ATOM      4  C   UNL d   1      56.577  49.570  51.608  0.00  0.00     0.143 A 
ATOM      5  S   UNL d   1      56.212  49.515  50.886  0.00  0.00    -0.044 SA
ATOM      6  C   UNL d   1      57.842  49.546  50.973  0.00  0.00     0.023 A 
ATOM      7  C   UNL d   1      57.783  49.644  52.397  0.00  0.00     0.103 C 
ATOM      8  C   UNL d   1      57.941  49.447  49.529  0.00  0.00     0.103 C 
ATOM      9  N   UNL d   1      58.414  49.406  48.829  0.00  0.00    -0.191 NA
ATOM     10  N   UNL d   1      58.177  49.702  53.143  0.00  0.00    -0.191 NA
ATOM     11  N   UNL d   1      56.119  49.612  52.308  0.00  0.00    -0.140 N 
ATOM     12  N   UNL d   1      56.276  49.415  49.440  0.00  0.00    -0.140 N 
ENDROOT
BRANCH   6  13
ATOM     13  C   UNL d   1      58.676  49.562  51.018  0.00  0.00     0.002 A 
ATOM     14  C   UNL d   1      59.057  49.563  51.742  0.00  0.00     0.002 A 
ATOM     15  C   UNL d   1      59.872  49.579  51.786  0.00  0.00     0.024 A 
ATOM     16  C   UNL d   1      60.328  49.594  51.107  0.00  0.00     0.127 A 
ATOM     17  C   UNL d   1      59.948  49.592  50.375  0.00  0.00     0.024 A 
ATOM     18  C   UNL d   1      59.132  49.577  50.331  0.00  0.00     0.002 A 
BRANCH  16  19
ATOM     19  N   UNL d   1      61.143  49.609  51.150  0.00  0.00    -0.114 N 
ATOM     20  O   UNL d   1      61.508  49.691  51.877  0.00  0.00    -0.532 OA
ATOM     21  O   UNL d   1      61.586  49.544  50.474  0.00  0.00    -0.532 OA
ENDBRANCH  16  19
ENDBRANCH   6  13
TORSDOF 2
ENDMDL
