MODEL 1
REMARK VINA RESULT:      33.7      0.000      0.000
REMARK  2 active torsions:
REMARK  status: ('A' for Active; 'I' for Inactive)
REMARK    1  A    between atoms: S_5  and  C_3 
REMARK    2  A    between atoms: C_12  and  S_5 
ROOT
ATOM      1  C   UNL d   1      46.221 -18.344  43.161  0.00  0.00     0.155 A 
ATOM      2  C   UNL d   1      46.210 -17.767  42.584  0.00  0.00     0.092 A 
ATOM      3  C   UNL d   1      45.999 -16.778  43.573  0.00  0.00     0.124 A 
ATOM      4  N   UNL d   1      46.333 -19.133  42.953  0.00  0.00    -0.210 NA
ATOM      5  N   UNL d   1      46.123 -18.143  43.941  0.00  0.00    -0.272 N 
ATOM      6  C   UNL d   1      46.011 -17.361  44.156  0.00  0.00     0.181 A 
ATOM      7  C   UNL d   1      46.309 -17.971  41.795  0.00  0.00     0.269 A 
ATOM      8  N   UNL d   1      46.421 -18.757  41.590  0.00  0.00    -0.258 N 
ATOM      9  C   UNL d   1      46.099 -16.984  42.787  0.00  0.00     0.022 A 
ATOM     10  C   UNL d   1      46.432 -19.336  42.177  0.00  0.00     0.152 A 
ATOM     11  N   UNL d   1      45.911 -17.160  44.955  0.00  0.00    -0.128 N 
ATOM     12  C   UNL d   1      46.522 -18.973  40.801  0.00  0.00     0.084 A 
ATOM     13  O   UNL d   1      46.298 -17.385  41.202  0.00  0.00    -0.266 OA
ATOM     14  C   UNL d   1      46.544 -20.126  41.968  0.00  0.00     0.038 A 
ATOM     15  C   UNL d   1      46.631 -19.750  40.604  0.00  0.00     0.019 A 
ATOM     16  C   UNL d   1      46.642 -20.330  41.191  0.00  0.00     0.005 A 
ATOM     17  C   UNL d   1      46.135 -18.736  44.535  0.00  0.00     0.102 C 
ENDROOT
BRANCH   3  18
ATOM     18  S   UNL d   1      45.887 -15.985  43.785  0.00  0.00     0.213 S 
ATOM     19  O   UNL d   1      46.623 -15.779  43.452  0.00  0.00    -0.217 OA
ATOM     20  O   UNL d   1      45.153 -16.178  44.118  0.00  0.00    -0.217 OA
BRANCH  18  21
ATOM     21  C   UNL d   1      45.762 -15.188  44.003  0.00  0.00     0.088 A 
ATOM     22  C   UNL d   1      46.315 -14.609  43.794  0.00  0.00     0.014 A 
ATOM     23  C   UNL d   1      46.190 -13.812  44.012  0.00  0.00     0.030 A 
ATOM     24  C   UNL d   1      45.512 -13.600  44.440  0.00  0.00     0.140 A 
ATOM     25  C   UNL d   1      44.955 -14.193  44.649  0.00  0.00     0.030 A 
ATOM     26  F   UNL d   1      45.382 -12.812  44.660  0.00  0.00    -0.204 F 
ATOM     27  C   UNL d   1      45.080 -14.985  44.431  0.00  0.00     0.014 A 
ENDBRANCH  18  21
ENDBRANCH   3  18
TORSDOF 2
ENDMDL
