MODEL 1
REMARK VINA RESULT:      -5.2      0.000      0.000
REMARK  7 active torsions:
REMARK  status: ('A' for Active; 'I' for Inactive)
REMARK    1  A    between atoms: C_10  and  N_1 
REMARK    2  A    between atoms: S_8  and  C_6 
REMARK    3  A    between atoms: C_13  and  S_8 
REMARK    4  A    between atoms: C_11  and  C_13 
REMARK    5  A    between atoms: O_18  and  C_11 
REMARK    6  A    between atoms: C_22  and  C_13 
REMARK    7  A    between atoms: C_23  and  O_18 
ROOT
ATOM      1  N   UNL d   1     -39.154  14.078  17.754  0.00  0.00    -0.193 N 
ATOM      2  N   UNL d   1     -39.724  13.577  18.059  0.00  0.00    -0.058 NA
ATOM      3  C   UNL d   1     -38.952  14.619  18.346  0.00  0.00     0.188 A 
ATOM      4  C   UNL d   1     -39.405  14.438  19.012  0.00  0.00     0.164 A 
ATOM      5  N   UNL d   1     -39.879  13.789  18.819  0.00  0.00    -0.125 NA
ATOM      6  C   UNL d   1     -39.327  14.883  19.698  0.00  0.00     0.135 A 
ATOM      7  N   UNL d   1     -38.420  15.245  18.366  0.00  0.00    -0.203 NA
ATOM      8  N   UNL d   1     -38.792  15.515  19.722  0.00  0.00    -0.216 NA
ATOM      9  C   UNL d   1     -38.339  15.696  19.056  0.00  0.00     0.201 A 
ENDROOT
BRANCH   6  10
ATOM     10  S   UNL d   1     -39.780  14.702  20.364  0.00  0.00    -0.061 SA
BRANCH  10  11
ATOM     11  C   UNL d   1     -39.827  15.233  20.988  0.00  0.00     0.094 C 
BRANCH  11  12
ATOM     12  C   UNL d   1     -39.423  15.079  21.691  0.00  0.00     0.306 C 
ATOM     13  O   UNL d   1     -39.011  15.682  22.075  0.00  0.00    -0.258 OA
BRANCH  12  14
ATOM     14  O   UNL d   1     -39.432  14.314  22.009  0.00  0.00    -0.271 OA
BRANCH  14  15
ATOM     15  C   UNL d   1     -39.038  14.158  22.718  0.00  0.00     0.126 C 
ATOM     16  C   UNL d   1     -38.926  13.387  22.968  0.00  0.00     0.029 C 
ENDBRANCH  14  15
ENDBRANCH  12  14
ENDBRANCH  11  12
BRANCH  11  17
ATOM     17  C   UNL d   1     -40.279  15.920  20.910  0.00  0.00     0.012 C 
ATOM     18  C   UNL d   1     -41.067  15.921  21.134  0.00  0.00     0.001 C 
ENDBRANCH  11  17
ENDBRANCH  10  11
ENDBRANCH   6  10
BRANCH   1  19
ATOM     19  C   UNL d   1     -38.864  14.021  16.993  0.00  0.00     0.086 A 
ATOM     20  C   UNL d   1     -38.262  13.481  16.820  0.00  0.00     0.022 A 
ATOM     21  C   UNL d   1     -37.968  13.422  16.052  0.00  0.00     0.031 A 
ATOM     22  C   UNL d   1     -38.264  13.892  15.455  0.00  0.00     0.140 A 
ATOM     23  C   UNL d   1     -38.875  14.440  15.629  0.00  0.00     0.031 A 
ATOM     24  F   UNL d   1     -37.952  13.817  14.677  0.00  0.00    -0.204 F 
ATOM     25  C   UNL d   1     -39.171  14.504  16.390  0.00  0.00     0.022 A 
ENDBRANCH   1  19
TORSDOF 7
ENDMDL
MODEL 2
REMARK VINA RESULT:      -4.9      2.643      4.805
REMARK  7 active torsions:
REMARK  status: ('A' for Active; 'I' for Inactive)
REMARK    1  A    between atoms: C_10  and  N_1 
REMARK    2  A    between atoms: S_8  and  C_6 
REMARK    3  A    between atoms: C_13  and  S_8 
REMARK    4  A    between atoms: C_11  and  C_13 
REMARK    5  A    between atoms: O_18  and  C_11 
REMARK    6  A    between atoms: C_22  and  C_13 
REMARK    7  A    between atoms: C_23  and  O_18 
ROOT
ATOM      1  N   UNL d   1     -38.906  14.723  20.435  0.00  0.00    -0.193 N 
ATOM      2  N   UNL d   1     -38.383  15.285  20.153  0.00  0.00    -0.058 NA
ATOM      3  C   UNL d   1     -39.487  14.608  19.858  0.00  0.00     0.188 A 
ATOM      4  C   UNL d   1     -39.310  15.106  19.225  0.00  0.00     0.164 A 
ATOM      5  N   UNL d   1     -38.621  15.521  19.422  0.00  0.00    -0.125 NA
ATOM      6  C   UNL d   1     -39.792  15.117  18.560  0.00  0.00     0.135 A 
ATOM      7  N   UNL d   1     -40.147  14.120  19.827  0.00  0.00    -0.203 NA
ATOM      8  N   UNL d   1     -40.458  14.627  18.525  0.00  0.00    -0.216 NA
ATOM      9  C   UNL d   1     -40.636  14.128  19.158  0.00  0.00     0.201 A 
ENDROOT
BRANCH   6  10
ATOM     10  S   UNL d   1     -39.614  15.616  17.927  0.00  0.00    -0.061 SA
BRANCH  10  11
ATOM     11  C   UNL d   1     -39.823  15.403  17.162  0.00  0.00     0.094 C 
BRANCH  11  12
ATOM     12  C   UNL d   1     -39.237  15.280  16.594  0.00  0.00     0.306 C 
ATOM     13  O   UNL d   1     -38.848  15.922  16.251  0.00  0.00    -0.258 OA
BRANCH  12  14
ATOM     14  O   UNL d   1     -39.039  14.507  16.370  0.00  0.00    -0.271 OA
BRANCH  14  15
ATOM     15  C   UNL d   1     -38.365  14.370  15.912  0.00  0.00     0.126 C 
ATOM     16  C   UNL d   1     -38.270  13.660  15.518  0.00  0.00     0.029 C 
ENDBRANCH  14  15
ENDBRANCH  12  14
ENDBRANCH  11  12
BRANCH  11  17
ATOM     17  C   UNL d   1     -40.619  15.311  16.964  0.00  0.00     0.012 C 
ATOM     18  C   UNL d   1     -41.017  15.911  16.573  0.00  0.00     0.001 C 
ENDBRANCH  11  17
ENDBRANCH  10  11
ENDBRANCH   6  10
BRANCH   1  19
ATOM     19  C   UNL d   1     -38.831  14.364  21.164  0.00  0.00     0.086 A 
ATOM     20  C   UNL d   1     -38.402  13.660  21.236  0.00  0.00     0.022 A 
ATOM     21  C   UNL d   1     -38.325  13.296  21.972  0.00  0.00     0.031 A 
ATOM     22  C   UNL d   1     -38.668  13.621  22.636  0.00  0.00     0.140 A 
ATOM     23  C   UNL d   1     -39.104  14.334  22.565  0.00  0.00     0.031 A 
ATOM     24  F   UNL d   1     -38.579  13.235  23.378  0.00  0.00    -0.204 F 
ATOM     25  C   UNL d   1     -39.184  14.701  21.837  0.00  0.00     0.022 A 
ENDBRANCH   1  19
TORSDOF 7
ENDMDL
MODEL 3
REMARK VINA RESULT:      -4.7      8.046      9.853
REMARK  7 active torsions:
REMARK  status: ('A' for Active; 'I' for Inactive)
REMARK    1  A    between atoms: C_10  and  N_1 
REMARK    2  A    between atoms: S_8  and  C_6 
REMARK    3  A    between atoms: C_13  and  S_8 
REMARK    4  A    between atoms: C_11  and  C_13 
REMARK    5  A    between atoms: O_18  and  C_11 
REMARK    6  A    between atoms: C_22  and  C_13 
REMARK    7  A    between atoms: C_23  and  O_18 
ROOT
ATOM      1  N   UNL d   1     -48.526  13.787  22.627  0.00  0.00    -0.193 N 
ATOM      2  N   UNL d   1     -48.618  13.042  22.300  0.00  0.00    -0.058 NA
ATOM      3  C   UNL d   1     -47.719  13.902  22.766  0.00  0.00     0.188 A 
ATOM      4  C   UNL d   1     -47.325  13.220  22.520  0.00  0.00     0.164 A 
ATOM      5  N   UNL d   1     -47.896  12.695  22.233  0.00  0.00    -0.125 NA
ATOM      6  C   UNL d   1     -46.509  13.167  22.588  0.00  0.00     0.135 A 
ATOM      7  N   UNL d   1     -47.296  14.532  23.080  0.00  0.00    -0.203 NA
ATOM      8  N   UNL d   1     -46.079  13.800  22.905  0.00  0.00    -0.216 NA
ATOM      9  C   UNL d   1     -46.472  14.482  23.151  0.00  0.00     0.201 A 
ENDROOT
BRANCH   6  10
ATOM     10  S   UNL d   1     -46.115  12.484  22.341  0.00  0.00    -0.061 SA
BRANCH  10  11
ATOM     11  C   UNL d   1     -45.348  12.335  22.596  0.00  0.00     0.094 C 
BRANCH  11  12
ATOM     12  C   UNL d   1     -45.203  11.721  23.128  0.00  0.00     0.306 C 
ATOM     13  O   UNL d   1     -45.766  11.522  23.697  0.00  0.00    -0.258 OA
BRANCH  12  14
ATOM     14  O   UNL d   1     -44.488  11.304  23.086  0.00  0.00    -0.271 OA
BRANCH  14  15
ATOM     15  C   UNL d   1     -44.391  10.610  23.524  0.00  0.00     0.126 C 
ATOM     16  C   UNL d   1     -43.660  10.244  23.561  0.00  0.00     0.029 C 
ENDBRANCH  14  15
ENDBRANCH  12  14
ENDBRANCH  11  12
BRANCH  11  17
ATOM     17  C   UNL d   1     -44.726  12.801  22.318  0.00  0.00     0.012 C 
ATOM     18  C   UNL d   1     -44.435  12.689  21.560  0.00  0.00     0.001 C 
ENDBRANCH  11  17
ENDBRANCH  10  11
ENDBRANCH   6  10
BRANCH   1  19
ATOM     19  C   UNL d   1     -49.148  14.295  22.774  0.00  0.00     0.086 A 
ATOM     20  C   UNL d   1     -49.620  14.187  23.444  0.00  0.00     0.022 A 
ATOM     21  C   UNL d   1     -50.249  14.699  23.593  0.00  0.00     0.031 A 
ATOM     22  C   UNL d   1     -50.414  15.316  23.087  0.00  0.00     0.140 A 
ATOM     23  C   UNL d   1     -49.935  15.427  22.406  0.00  0.00     0.031 A 
ATOM     24  F   UNL d   1     -51.059  15.829  23.255  0.00  0.00    -0.204 F 
ATOM     25  C   UNL d   1     -49.309  14.921  22.252  0.00  0.00     0.022 A 
ENDBRANCH   1  19
TORSDOF 7
ENDMDL
MODEL 4
REMARK VINA RESULT:      -4.4      7.868      9.681
REMARK  7 active torsions:
REMARK  status: ('A' for Active; 'I' for Inactive)
REMARK    1  A    between atoms: C_10  and  N_1 
REMARK    2  A    between atoms: S_8  and  C_6 
REMARK    3  A    between atoms: C_13  and  S_8 
REMARK    4  A    between atoms: C_11  and  C_13 
REMARK    5  A    between atoms: O_18  and  C_11 
REMARK    6  A    between atoms: C_22  and  C_13 
REMARK    7  A    between atoms: C_23  and  O_18 
ROOT
ATOM      1  N   UNL d   1     -48.295  13.655  22.392  0.00  0.00    -0.193 N 
ATOM      2  N   UNL d   1     -48.254  13.092  21.800  0.00  0.00    -0.058 NA
ATOM      3  C   UNL d   1     -47.569  13.658  22.787  0.00  0.00     0.188 A 
ATOM      4  C   UNL d   1     -47.089  13.091  22.427  0.00  0.00     0.164 A 
ATOM      5  N   UNL d   1     -47.527  12.747  21.816  0.00  0.00    -0.125 NA
ATOM      6  C   UNL d   1     -46.325  12.963  22.700  0.00  0.00     0.135 A 
ATOM      7  N   UNL d   1     -47.285  14.097  23.420  0.00  0.00    -0.203 NA
ATOM      8  N   UNL d   1     -46.035  13.404  23.338  0.00  0.00    -0.216 NA
ATOM      9  C   UNL d   1     -46.515  13.971  23.698  0.00  0.00     0.201 A 
ENDROOT
BRANCH   6  10
ATOM     10  S   UNL d   1     -45.845  12.395  22.340  0.00  0.00    -0.061 SA
BRANCH  10  11
ATOM     11  C   UNL d   1     -45.316  11.956  22.790  0.00  0.00     0.094 C 
BRANCH  11  12
ATOM     12  C   UNL d   1     -44.517  11.941  22.587  0.00  0.00     0.306 C 
ATOM     13  O   UNL d   1     -43.983  11.497  23.031  0.00  0.00    -0.258 OA
BRANCH  12  14
ATOM     14  O   UNL d   1     -44.252  12.377  21.933  0.00  0.00    -0.271 OA
BRANCH  14  15
ATOM     15  C   UNL d   1     -43.457  12.347  21.713  0.00  0.00     0.126 C 
ATOM     16  C   UNL d   1     -43.154  12.892  21.184  0.00  0.00     0.029 C 
ENDBRANCH  14  15
ENDBRANCH  12  14
ENDBRANCH  11  12
BRANCH  11  17
ATOM     17  C   UNL d   1     -45.588  11.531  23.444  0.00  0.00     0.012 C 
ATOM     18  C   UNL d   1     -45.520  10.715  23.461  0.00  0.00     0.001 C 
ENDBRANCH  11  17
ENDBRANCH  10  11
ENDBRANCH   6  10
BRANCH   1  19
ATOM     19  C   UNL d   1     -48.956  14.112  22.534  0.00  0.00     0.086 A 
ATOM     20  C   UNL d   1     -48.988  14.890  22.254  0.00  0.00     0.022 A 
ATOM     21  C   UNL d   1     -49.656  15.353  22.397  0.00  0.00     0.031 A 
ATOM     22  C   UNL d   1     -50.290  15.053  22.812  0.00  0.00     0.140 A 
ATOM     23  C   UNL d   1     -50.259  14.264  23.096  0.00  0.00     0.031 A 
ATOM     24  F   UNL d   1     -50.963  15.541  22.948  0.00  0.00    -0.204 F 
ATOM     25  C   UNL d   1     -49.599  13.799  22.958  0.00  0.00     0.022 A 
ENDBRANCH   1  19
TORSDOF 7
ENDMDL
MODEL 5
REMARK VINA RESULT:      -4.1      8.581     10.178
REMARK  7 active torsions:
REMARK  status: ('A' for Active; 'I' for Inactive)
REMARK    1  A    between atoms: C_10  and  N_1 
REMARK    2  A    between atoms: S_8  and  C_6 
REMARK    3  A    between atoms: C_13  and  S_8 
REMARK    4  A    between atoms: C_11  and  C_13 
REMARK    5  A    between atoms: O_18  and  C_11 
REMARK    6  A    between atoms: C_22  and  C_13 
REMARK    7  A    between atoms: C_23  and  O_18 
ROOT
ATOM      1  N   UNL d   1     -46.824  12.209  23.329  0.00  0.00    -0.193 N 
ATOM      2  N   UNL d   1     -47.471  11.811  23.632  0.00  0.00    -0.058 NA
ATOM      3  C   UNL d   1     -47.064  12.978  23.145  0.00  0.00     0.188 A 
ATOM      4  C   UNL d   1     -47.864  13.040  23.339  0.00  0.00     0.164 A 
ATOM      5  N   UNL d   1     -48.104  12.308  23.640  0.00  0.00    -0.125 NA
ATOM      6  C   UNL d   1     -48.265  13.747  23.218  0.00  0.00     0.135 A 
ATOM      7  N   UNL d   1     -46.665  13.622  22.829  0.00  0.00    -0.203 NA
ATOM      8  N   UNL d   1     -47.865  14.399  22.900  0.00  0.00    -0.216 NA
ATOM      9  C   UNL d   1     -47.066  14.337  22.706  0.00  0.00     0.201 A 
ENDROOT
BRANCH   6  10
ATOM     10  S   UNL d   1     -49.065  13.809  23.413  0.00  0.00    -0.061 SA
BRANCH  10  11
ATOM     11  C   UNL d   1     -49.537  14.370  23.043  0.00  0.00     0.094 C 
BRANCH  11  12
ATOM     12  C   UNL d   1     -50.260  14.146  22.714  0.00  0.00     0.306 C 
ATOM     13  O   UNL d   1     -50.919  14.032  23.197  0.00  0.00    -0.258 OA
BRANCH  12  14
ATOM     14  O   UNL d   1     -50.322  14.037  21.895  0.00  0.00    -0.271 OA
BRANCH  14  15
ATOM     15  C   UNL d   1     -50.987  13.665  21.578  0.00  0.00     0.126 C 
ATOM     16  C   UNL d   1     -50.988  13.411  20.800  0.00  0.00     0.029 C 
ENDBRANCH  14  15
ENDBRANCH  12  14
ENDBRANCH  11  12
BRANCH  11  17
ATOM     17  C   UNL d   1     -49.286  15.155  23.001  0.00  0.00     0.012 C 
ATOM     18  C   UNL d   1     -49.706  15.742  23.389  0.00  0.00     0.001 C 
ENDBRANCH  11  17
ENDBRANCH  10  11
ENDBRANCH   6  10
BRANCH   1  19
ATOM     19  C   UNL d   1     -46.087  11.869  23.242  0.00  0.00     0.086 A 
ATOM     20  C   UNL d   1     -45.879  11.211  23.698  0.00  0.00     0.022 A 
ATOM     21  C   UNL d   1     -45.134  10.867  23.610  0.00  0.00     0.031 A 
ATOM     22  C   UNL d   1     -44.596  11.166  23.077  0.00  0.00     0.140 A 
ATOM     23  C   UNL d   1     -44.806  11.834  22.613  0.00  0.00     0.031 A 
ATOM     24  F   UNL d   1     -43.841  10.801  23.001  0.00  0.00    -0.204 F 
ATOM     25  C   UNL d   1     -45.544  12.180  22.695  0.00  0.00     0.022 A 
ENDBRANCH   1  19
TORSDOF 7
ENDMDL
MODEL 6
REMARK VINA RESULT:      -3.1      1.412      2.035
REMARK  7 active torsions:
REMARK  status: ('A' for Active; 'I' for Inactive)
REMARK    1  A    between atoms: C_10  and  N_1 
REMARK    2  A    between atoms: S_8  and  C_6 
REMARK    3  A    between atoms: C_13  and  S_8 
REMARK    4  A    between atoms: C_11  and  C_13 
REMARK    5  A    between atoms: O_18  and  C_11 
REMARK    6  A    between atoms: C_22  and  C_13 
REMARK    7  A    between atoms: C_23  and  O_18 
ROOT
ATOM      1  N   UNL d   1     -39.031  15.270  17.445  0.00  0.00    -0.193 N 
ATOM      2  N   UNL d   1     -38.906  15.922  17.923  0.00  0.00    -0.058 NA
ATOM      3  C   UNL d   1     -39.454  14.712  17.885  0.00  0.00     0.188 A 
ATOM      4  C   UNL d   1     -39.583  15.035  18.634  0.00  0.00     0.164 A 
ATOM      5  N   UNL d   1     -39.237  15.786  18.643  0.00  0.00    -0.125 NA
ATOM      6  C   UNL d   1     -39.993  14.608  19.203  0.00  0.00     0.135 A 
ATOM      7  N   UNL d   1     -39.736  13.962  17.705  0.00  0.00    -0.203 NA
ATOM      8  N   UNL d   1     -40.278  13.851  19.025  0.00  0.00    -0.216 NA
ATOM      9  C   UNL d   1     -40.150  13.528  18.276  0.00  0.00     0.201 A 
ENDROOT
BRANCH   6  10
ATOM     10  S   UNL d   1     -40.122  14.930  19.952  0.00  0.00    -0.061 SA
BRANCH  10  11
ATOM     11  C   UNL d   1     -40.358  14.449  20.574  0.00  0.00     0.094 C 
BRANCH  11  12
ATOM     12  C   UNL d   1     -41.130  14.499  20.863  0.00  0.00     0.306 C 
ATOM     13  O   UNL d   1     -41.466  15.235  21.026  0.00  0.00    -0.258 OA
BRANCH  12  14
ATOM     14  O   UNL d   1     -41.566  13.806  20.989  0.00  0.00    -0.271 OA
BRANCH  14  15
ATOM     15  C   UNL d   1     -42.358  13.854  21.218  0.00  0.00     0.126 C 
ATOM     16  C   UNL d   1     -42.828  13.184  21.224  0.00  0.00     0.029 C 
ENDBRANCH  14  15
ENDBRANCH  12  14
ENDBRANCH  11  12
BRANCH  11  17
ATOM     17  C   UNL d   1     -39.823  13.917  20.908  0.00  0.00     0.012 C 
ATOM     18  C   UNL d   1     -39.316  14.162  21.502  0.00  0.00     0.001 C 
ENDBRANCH  11  17
ENDBRANCH  10  11
ENDBRANCH   6  10
BRANCH   1  19
ATOM     19  C   UNL d   1     -38.768  15.219  16.674  0.00  0.00     0.086 A 
ATOM     20  C   UNL d   1     -38.249  14.613  16.453  0.00  0.00     0.022 A 
ATOM     21  C   UNL d   1     -37.983  14.561  15.674  0.00  0.00     0.031 A 
ATOM     22  C   UNL d   1     -38.223  15.101  15.114  0.00  0.00     0.140 A 
ATOM     23  C   UNL d   1     -38.749  15.716  15.336  0.00  0.00     0.031 A 
ATOM     24  F   UNL d   1     -37.941  15.032  14.324  0.00  0.00    -0.204 F 
ATOM     25  C   UNL d   1     -39.018  15.774  16.108  0.00  0.00     0.022 A 
ENDBRANCH   1  19
TORSDOF 7
ENDMDL
