MODEL 1
REMARK VINA RESULT:      23.6      0.000      0.000
REMARK  2 active torsions:
REMARK  status: ('A' for Active; 'I' for Inactive)
REMARK    1  A    between atoms: C_4  and  C_2 
REMARK    2  A    between atoms: C_8  and  C_3 
ROOT
ATOM      1  S   UNL d   1     -56.397-100.001 -44.157  0.00  0.00    -0.081 SA
ATOM      2  C   UNL d   1     -56.826 -99.308 -44.294  0.00  0.00     0.031 A 
ATOM      3  C   UNL d   1     -55.624 -99.893 -44.463  0.00  0.00     0.094 A 
ATOM      4  C   UNL d   1     -56.323 -98.765 -44.688  0.00  0.00     0.007 A 
ATOM      5  C   UNL d   1     -55.584 -99.134 -44.788  0.00  0.00     0.013 A 
ENDROOT
BRANCH   2   6
ATOM      6  C   UNL d   1     -57.605 -99.171 -44.086  0.00  0.00     0.025 A 
ATOM      7  C   UNL d   1     -58.174 -99.031 -44.668  0.00  0.00     0.005 A 
ATOM      8  C   UNL d   1     -58.953 -98.894 -44.460  0.00  0.00     0.038 A 
ATOM      9  C   UNL d   1     -59.517 -98.756 -45.038  0.00  0.00     0.003 C 
ATOM     10  C   UNL d   1     -59.171 -98.895 -43.661  0.00  0.00     0.184 A 
ATOM     11  N   UNL d   1     -58.598 -99.035 -43.077  0.00  0.00    -0.224 NA
ATOM     12  N   UNL d   1     -59.953 -98.757 -43.449  0.00  0.00    -0.127 N 
ATOM     13  C   UNL d   1     -57.820 -99.171 -43.300  0.00  0.00     0.101 A 
ENDBRANCH   2   6
BRANCH   3  14
ATOM     14  C   UNL d   1     -55.022-100.453 -44.439  0.00  0.00     0.217 C 
ATOM     15  O   UNL d   1     -54.728-100.701 -43.701  0.00  0.00    -0.643 OA
ATOM     16  O   UNL d   1     -54.711-100.766 -45.118  0.00  0.00    -0.643 OA
ENDBRANCH   3  14
TORSDOF 2
ENDMDL
