MODEL 1
REMARK VINA RESULT:      26.8      0.000      0.000
REMARK  2 active torsions:
REMARK  status: ('A' for Active; 'I' for Inactive)
REMARK       I    between atoms: C_2  and  N_1 
REMARK       I    between atoms: C_3  and  N_1 
REMARK       I    between atoms: N_4  and  C_2 
REMARK    1  A    between atoms: C_9  and  C_3 
REMARK    2  A    between atoms: C_5  and  N_4 
ROOT
ATOM      1  N   UNL d   1     -56.752 -98.912 -44.498  0.00  0.00    -0.140 NA
ATOM      2  C   UNL d   1     -55.964 -99.143 -44.520  0.00  0.00     0.424 C 
ATOM      3  C   UNL d   1     -57.351 -99.463 -44.384  0.00  0.00     0.284 C 
ATOM      4  N   UNL d   1     -55.738 -99.921 -44.430  0.00  0.00    -0.329 NA
ATOM      5  O   UNL d   1     -55.235 -98.756 -44.620  0.00  0.00    -0.228 OA
ATOM      6  O   UNL d   1     -57.157-100.262 -44.290  0.00  0.00    -0.265 OA
ENDROOT
BRANCH   3   7
ATOM      7  C   UNL d   1     -58.139 -99.228 -44.363  0.00  0.00     0.058 A 
ATOM      8  C   UNL d   1     -58.541 -99.097 -45.064  0.00  0.00     0.005 A 
ATOM      9  C   UNL d   1     -59.331 -98.861 -45.052  0.00  0.00     0.000 A 
ATOM     10  C   UNL d   1     -59.720 -98.756 -44.325  0.00  0.00     0.000 A 
ATOM     11  C   UNL d   1     -59.317 -98.886 -43.624  0.00  0.00     0.000 A 
ATOM     12  C   UNL d   1     -58.519 -99.125 -43.640  0.00  0.00     0.005 A 
ENDBRANCH   3   7
BRANCH   4  13
ATOM     13  C   UNL d   1     -55.396-100.662 -44.353  0.00  0.00     0.219 A 
ATOM     14  N   UNL d   1     -55.092-100.901 -43.629  0.00  0.00    -0.214 NA
ATOM     15  C   UNL d   1     -54.746-101.653 -43.557  0.00  0.00     0.102 A 
ATOM     16  C   UNL d   1     -54.712-102.152 -44.215  0.00  0.00     0.021 A 
ATOM     17  C   UNL d   1     -55.016-101.913 -44.938  0.00  0.00     0.006 A 
ATOM     18  C   UNL d   1     -55.361-101.165 -45.012  0.00  0.00     0.052 A 
ENDBRANCH   4  13
TORSDOF 2
ENDMDL
