MODEL 1
REMARK VINA RESULT:      -5.5      0.000      0.000
REMARK  4 active torsions:
REMARK  status: ('A' for Active; 'I' for Inactive)
REMARK    1  A    between atoms: C_6  and  C_1 
REMARK    2  A    between atoms: C_7  and  C_4 
REMARK    3  A    between atoms: O_10  and  C_6 
REMARK    4  A    between atoms: O_12  and  C_11 
ROOT
ATOM      1  C   UNL d   1      57.971   0.315  30.605  0.00  0.00     0.173 A 
ATOM      2  N   UNL d   1      58.358   0.676  31.241  0.00  0.00    -0.121 NA
ATOM      3  C   UNL d   1      57.286  -0.045  30.895  0.00  0.00     0.054 A 
ATOM      4  C   UNL d   1      57.249   0.094  31.712  0.00  0.00     0.127 A 
ATOM      5  O   UNL d   1      57.913   0.539  31.921  0.00  0.00    -0.211 OA
ENDROOT
BRANCH   4   6
ATOM      6  C   UNL d   1      56.653  -0.170  32.219  0.00  0.00     0.027 A 
ATOM      7  C   UNL d   1      56.151   0.384  32.567  0.00  0.00     0.026 A 
ATOM      8  C   UNL d   1      55.557   0.129  33.071  0.00  0.00     0.094 A 
ATOM      9  C   UNL d   1      55.461  -0.680  33.231  0.00  0.00     0.024 A 
ATOM     10  C   UNL d   1      55.966  -1.225  32.880  0.00  0.00     0.002 A 
ATOM     11  C   UNL d   1      56.561  -0.973  32.375  0.00  0.00     0.002 A 
BRANCH   8  12
ATOM     12  O   UNL d   1      55.048   0.681  33.425  0.00  0.00    -0.328 OA
ATOM     13  C   UNL d   1      54.851   0.610  34.226  0.00  0.00     0.181 C 
ENDBRANCH   8  12
ENDBRANCH   4   6
BRANCH   1  14
ATOM     14  C   UNL d   1      58.217   0.309  29.814  0.00  0.00     0.316 C 
ATOM     15  O   UNL d   1      57.756   0.663  29.233  0.00  0.00    -0.257 OA
BRANCH  14  16
ATOM     16  O   UNL d   1      58.933  -0.058  29.615  0.00  0.00    -0.294 OA
ATOM     17  C   UNL d   1      59.221  -0.008  28.840  0.00  0.00     0.185 C 
ENDBRANCH  14  16
ENDBRANCH   1  14
TORSDOF 4
ENDMDL
MODEL 2
REMARK VINA RESULT:      -4.5      1.214      4.241
REMARK  4 active torsions:
REMARK  status: ('A' for Active; 'I' for Inactive)
REMARK    1  A    between atoms: C_6  and  C_1 
REMARK    2  A    between atoms: C_7  and  C_4 
REMARK    3  A    between atoms: O_10  and  C_6 
REMARK    4  A    between atoms: O_12  and  C_11 
ROOT
ATOM      1  C   UNL d   1      56.535  -0.419  32.400  0.00  0.00     0.173 A 
ATOM      2  N   UNL d   1      56.502  -1.203  32.136  0.00  0.00    -0.121 NA
ATOM      3  C   UNL d   1      56.985   0.012  31.858  0.00  0.00     0.054 A 
ATOM      4  C   UNL d   1      57.232  -0.505  31.259  0.00  0.00     0.127 A 
ATOM      5  O   UNL d   1      56.931  -1.254  31.435  0.00  0.00    -0.211 OA
ENDROOT
BRANCH   4   6
ATOM      6  C   UNL d   1      57.694  -0.300  30.606  0.00  0.00     0.027 A 
ATOM      7  C   UNL d   1      58.073  -0.897  30.182  0.00  0.00     0.026 A 
ATOM      8  C   UNL d   1      58.534  -0.700  29.533  0.00  0.00     0.094 A 
ATOM      9  C   UNL d   1      58.619   0.093  29.304  0.00  0.00     0.024 A 
ATOM     10  C   UNL d   1      58.238   0.682  29.732  0.00  0.00     0.002 A 
ATOM     11  C   UNL d   1      57.776   0.488  30.382  0.00  0.00     0.002 A 
BRANCH   8  12
ATOM     12  O   UNL d   1      58.918  -1.296  29.101  0.00  0.00    -0.328 OA
ATOM     13  C   UNL d   1      59.701  -1.189  28.852  0.00  0.00     0.181 C 
ENDBRANCH   8  12
ENDBRANCH   4   6
BRANCH   1  14
ATOM     14  C   UNL d   1      56.183  -0.112  33.083  0.00  0.00     0.316 C 
ATOM     15  O   UNL d   1      56.648   0.195  33.688  0.00  0.00    -0.257 OA
BRANCH  14  16
ATOM     16  O   UNL d   1      55.356  -0.117  33.151  0.00  0.00    -0.294 OA
ATOM     17  C   UNL d   1      54.991   0.298  33.768  0.00  0.00     0.185 C 
ENDBRANCH  14  16
ENDBRANCH   1  14
TORSDOF 4
ENDMDL
MODEL 3
REMARK VINA RESULT:      -4.4      1.308      4.179
REMARK  4 active torsions:
REMARK  status: ('A' for Active; 'I' for Inactive)
REMARK    1  A    between atoms: C_6  and  C_1 
REMARK    2  A    between atoms: C_7  and  C_4 
REMARK    3  A    between atoms: O_10  and  C_6 
REMARK    4  A    between atoms: O_12  and  C_11 
ROOT
ATOM      1  C   UNL d   1      55.678  -0.060  33.273  0.00  0.00     0.173 A 
ATOM      2  N   UNL d   1      55.662  -0.847  33.018  0.00  0.00    -0.121 NA
ATOM      3  C   UNL d   1      56.257   0.336  32.837  0.00  0.00     0.054 A 
ATOM      4  C   UNL d   1      56.600  -0.205  32.312  0.00  0.00     0.127 A 
ATOM      5  O   UNL d   1      56.230  -0.935  32.427  0.00  0.00    -0.211 OA
ENDROOT
BRANCH   4   6
ATOM      6  C   UNL d   1      57.204  -0.039  31.773  0.00  0.00     0.027 A 
ATOM      7  C   UNL d   1      57.221  -0.442  31.054  0.00  0.00     0.026 A 
ATOM      8  C   UNL d   1      57.817  -0.281  30.516  0.00  0.00     0.094 A 
ATOM      9  C   UNL d   1      58.400   0.283  30.691  0.00  0.00     0.024 A 
ATOM     10  C   UNL d   1      58.376   0.680  31.411  0.00  0.00     0.002 A 
ATOM     11  C   UNL d   1      57.780   0.521  31.952  0.00  0.00     0.002 A 
BRANCH   8  12
ATOM     12  O   UNL d   1      57.839  -0.683  29.790  0.00  0.00    -0.328 OA
ATOM     13  C   UNL d   1      58.474  -1.186  29.614  0.00  0.00     0.181 C 
ENDBRANCH   8  12
ENDBRANCH   4   6
BRANCH   1  14
ATOM     14  C   UNL d   1      55.203   0.280  33.859  0.00  0.00     0.316 C 
ATOM     15  O   UNL d   1      54.482   0.625  33.662  0.00  0.00    -0.257 OA
BRANCH  14  16
ATOM     16  O   UNL d   1      55.461   0.270  34.647  0.00  0.00    -0.294 OA
ATOM     17  C   UNL d   1      55.033   0.679  35.226  0.00  0.00     0.185 C 
ENDBRANCH  14  16
ENDBRANCH   1  14
TORSDOF 4
ENDMDL
MODEL 4
REMARK VINA RESULT:      -2.6      2.528      4.116
REMARK  4 active torsions:
REMARK  status: ('A' for Active; 'I' for Inactive)
REMARK    1  A    between atoms: C_6  and  C_1 
REMARK    2  A    between atoms: C_7  and  C_4 
REMARK    3  A    between atoms: O_10  and  C_6 
REMARK    4  A    between atoms: O_12  and  C_11 
ROOT
ATOM      1  C   UNL d   1      59.609  -2.733  28.956  0.00  0.00     0.173 A 
ATOM      2  N   UNL d   1      58.889  -2.999  29.267  0.00  0.00    -0.121 NA
ATOM      3  C   UNL d   1      59.594  -1.907  28.952  0.00  0.00     0.054 A 
ATOM      4  C   UNL d   1      58.864  -1.661  29.260  0.00  0.00     0.127 A 
ATOM      5  O   UNL d   1      58.433  -2.339  29.453  0.00  0.00    -0.211 OA
ENDROOT
BRANCH   4   6
ATOM      6  C   UNL d   1      58.620  -0.878  29.354  0.00  0.00     0.027 A 
ATOM      7  C   UNL d   1      58.450  -0.600  30.111  0.00  0.00     0.026 A 
ATOM      8  C   UNL d   1      58.208   0.176  30.210  0.00  0.00     0.094 A 
ATOM      9  C   UNL d   1      58.133   0.680  29.555  0.00  0.00     0.024 A 
ATOM     10  C   UNL d   1      58.304   0.395  28.803  0.00  0.00     0.002 A 
ATOM     11  C   UNL d   1      58.547  -0.382  28.700  0.00  0.00     0.002 A 
BRANCH   8  12
ATOM     12  O   UNL d   1      58.035   0.463  30.971  0.00  0.00    -0.328 OA
ATOM     13  C   UNL d   1      57.254   0.463  31.246  0.00  0.00     0.181 C 
ENDBRANCH   8  12
ENDBRANCH   4   6
BRANCH   1  14
ATOM     14  C   UNL d   1      60.238  -3.202  28.694  0.00  0.00     0.316 C 
ATOM     15  O   UNL d   1      60.972  -2.865  28.538  0.00  0.00    -0.257 OA
BRANCH  14  16
ATOM     16  O   UNL d   1      60.121  -4.017  28.589  0.00  0.00    -0.294 OA
ATOM     17  C   UNL d   1      60.771  -4.512  28.455  0.00  0.00     0.185 C 
ENDBRANCH  14  16
ENDBRANCH   1  14
TORSDOF 4
ENDMDL
