MODEL 1
REMARK VINA RESULT:      21.5      0.000      0.000
REMARK  4 active torsions:
REMARK  status: ('A' for Active; 'I' for Inactive)
REMARK    1  A    between atoms: C_6  and  C_1 
REMARK    2  A    between atoms: O_15  and  C_6 
REMARK    3  A    between atoms: C_7  and  C_8 
REMARK    4  A    between atoms: C_16  and  O_15 
ROOT
ATOM      1  C   UNL d   1     -52.049  24.952  33.359  0.00  0.00     0.145 A 
ATOM      2  N   UNL d   1     -51.280  24.682  33.433  0.00  0.00    -0.240 NA
ATOM      3  C   UNL d   1     -52.034  25.775  33.312  0.00  0.00     0.026 A 
ATOM      4  C   UNL d   1     -51.248  26.017  33.357  0.00  0.00     0.019 A 
ATOM      5  C   UNL d   1     -50.773  25.338  33.433  0.00  0.00     0.082 A 
ATOM      6  C   UNL d   1     -50.070  26.836  33.399  0.00  0.00     0.065 A 
ATOM      7  C   UNL d   1     -50.895  26.769  33.340  0.00  0.00     0.008 A 
ATOM      8  C   UNL d   1     -49.957  25.406  33.491  0.00  0.00     0.019 A 
ATOM      9  C   UNL d   1     -49.600  26.160  33.474  0.00  0.00     0.008 A 
ENDROOT
BRANCH   1  10
ATOM     10  C   UNL d   1     -52.729  24.486  33.334  0.00  0.00     0.318 C 
ATOM     11  O   UNL d   1     -53.474  24.836  33.332  0.00  0.00    -0.257 OA
BRANCH  10  12
ATOM     12  O   UNL d   1     -52.663  23.660  33.312  0.00  0.00    -0.270 OA
BRANCH  12  13
ATOM     13  C   UNL d   1     -53.305  23.193  33.523  0.00  0.00     0.126 C 
ATOM     14  C   UNL d   1     -53.586  23.191  34.297  0.00  0.00     0.029 C 
ENDBRANCH  12  13
ENDBRANCH  10  12
ENDBRANCH   1  10
BRANCH   6  15
ATOM     15  C   UNL d   1     -49.719  27.580  33.382  0.00  0.00     0.211 C 
ATOM     16  O   UNL d   1     -50.188  28.257  33.417  0.00  0.00    -0.644 OA
ATOM     17  O   UNL d   1     -48.897  27.650  33.331  0.00  0.00    -0.644 OA
ENDBRANCH   6  15
TORSDOF 4
ENDMDL
