MODEL 1
REMARK VINA RESULT:      -6.4      0.000      0.000
REMARK  5 active torsions:
REMARK  status: ('A' for Active; 'I' for Inactive)
REMARK    1  A    between atoms: C_6  and  C_1 
REMARK    2  A    between atoms: C_11  and  N_3 
REMARK    3  A    between atoms: C_20  and  C_11 
REMARK    4  A    between atoms: C_13  and  O_19 
REMARK    5  A    between atoms: O_19  and  C_20 
ROOT
ATOM      1  C   UNL d   1     -49.656  13.679  23.012  0.00  0.00     0.171 A 
ATOM      2  N   UNL d   1     -50.370  13.262  22.994  0.00  0.00    -0.225 NA
ATOM      3  N   UNL d   1     -49.056  13.155  23.249  0.00  0.00    -0.286 N 
ATOM      4  C   UNL d   1     -49.400  12.413  23.377  0.00  0.00     0.083 A 
ATOM      5  C   UNL d   1     -50.212  12.479  23.220  0.00  0.00     0.099 A 
ATOM      6  C   UNL d   1     -49.088  11.677  23.618  0.00  0.00     0.019 A 
ATOM      7  C   UNL d   1     -50.707  11.815  23.302  0.00  0.00     0.021 A 
ATOM      8  C   UNL d   1     -49.582  11.022  23.698  0.00  0.00     0.002 A 
ATOM      9  C   UNL d   1     -50.393  11.092  23.539  0.00  0.00     0.002 A 
ENDROOT
BRANCH   3  10
ATOM     10  C   UNL d   1     -48.306  13.495  23.293  0.00  0.00     0.108 C 
BRANCH  10  11
ATOM     11  C   UNL d   1     -47.644  13.057  23.073  0.00  0.00     0.142 C 
BRANCH  11  12
ATOM     12  O   UNL d   1     -46.907  13.233  23.399  0.00  0.00    -0.304 OA
BRANCH  12  13
ATOM     13  C   UNL d   1     -46.224  13.129  22.951  0.00  0.00     0.100 A 
ATOM     14  C   UNL d   1     -45.834  12.402  22.974  0.00  0.00     0.026 A 
ATOM     15  C   UNL d   1     -45.149  12.292  22.526  0.00  0.00     0.013 A 
ATOM     16  C   UNL d   1     -44.859  12.913  22.059  0.00  0.00     0.058 A 
ATOM     17  C   UNL d   1     -45.254  13.636  22.042  0.00  0.00     0.013 A 
ATOM     18 CL   UNL d   1     -44.176  12.805  21.613  0.00  0.00    -0.082 Cl
ATOM     19  C   UNL d   1     -45.938  13.741  22.490  0.00  0.00     0.026 A 
ENDBRANCH  12  13
ENDBRANCH  11  12
ENDBRANCH  10  11
ENDBRANCH   3  10
BRANCH   1  20
ATOM     20  C   UNL d   1     -49.556  14.478  22.827  0.00  0.00     0.134 A 
ATOM     21  O   UNL d   1     -49.327  14.844  22.251  0.00  0.00    -0.302 OA
ATOM     22  C   UNL d   1     -49.304  15.562  22.264  0.00  0.00     0.123 A 
ATOM     23  C   UNL d   1     -49.511  15.922  22.857  0.00  0.00     0.029 A 
ATOM     24  C   UNL d   1     -49.738  15.555  23.430  0.00  0.00     0.030 A 
ENDBRANCH   1  20
TORSDOF 5
ENDMDL
MODEL 2
REMARK VINA RESULT:      -5.9      9.277     10.334
REMARK  5 active torsions:
REMARK  status: ('A' for Active; 'I' for Inactive)
REMARK    1  A    between atoms: C_6  and  C_1 
REMARK    2  A    between atoms: C_11  and  N_3 
REMARK    3  A    between atoms: C_20  and  C_11 
REMARK    4  A    between atoms: C_13  and  O_19 
REMARK    5  A    between atoms: O_19  and  C_20 
ROOT
ATOM      1  C   UNL d   1     -39.563  14.341  17.434  0.00  0.00     0.171 A 
ATOM      2  N   UNL d   1     -39.308  13.648  17.062  0.00  0.00    -0.225 NA
ATOM      3  N   UNL d   1     -39.244  14.357  18.201  0.00  0.00    -0.286 N 
ATOM      4  C   UNL d   1     -38.790  13.672  18.303  0.00  0.00     0.083 A 
ATOM      5  C   UNL d   1     -38.829  13.233  17.600  0.00  0.00     0.099 A 
ATOM      6  C   UNL d   1     -38.340  13.379  18.943  0.00  0.00     0.019 A 
ATOM      7  C   UNL d   1     -38.423  12.510  17.536  0.00  0.00     0.021 A 
ATOM      8  C   UNL d   1     -37.940  12.662  18.877  0.00  0.00     0.002 A 
ATOM      9  C   UNL d   1     -37.981  12.227  18.171  0.00  0.00     0.002 A 
ENDROOT
BRANCH   3  10
ATOM     10  C   UNL d   1     -39.452  15.021  18.643  0.00  0.00     0.108 C 
BRANCH  10  11
ATOM     11  C   UNL d   1     -39.227  15.075  19.434  0.00  0.00     0.142 C 
BRANCH  11  12
ATOM     12  O   UNL d   1     -39.479  15.714  19.890  0.00  0.00    -0.304 OA
BRANCH  12  13
ATOM     13  C   UNL d   1     -39.334  15.722  20.702  0.00  0.00     0.100 A 
ATOM     14  C   UNL d   1     -39.947  15.533  21.222  0.00  0.00     0.026 A 
ATOM     15  C   UNL d   1     -39.807  15.539  22.036  0.00  0.00     0.013 A 
ATOM     16  C   UNL d   1     -39.053  15.734  22.322  0.00  0.00     0.058 A 
ATOM     17  C   UNL d   1     -38.447  15.922  21.796  0.00  0.00     0.013 A 
ATOM     18 CL   UNL d   1     -38.913  15.741  23.133  0.00  0.00    -0.082 Cl
ATOM     19  C   UNL d   1     -38.591  15.915  20.984  0.00  0.00     0.026 A 
ENDBRANCH  12  13
ENDBRANCH  11  12
ENDBRANCH  10  11
ENDBRANCH   3  10
BRANCH   1  20
ATOM     20  C   UNL d   1     -40.052  14.919  17.101  0.00  0.00     0.134 A 
ATOM     21  O   UNL d   1     -39.944  15.525  16.729  0.00  0.00    -0.302 OA
ATOM     22  C   UNL d   1     -40.503  15.919  16.510  0.00  0.00     0.123 A 
ATOM     23  C   UNL d   1     -41.179  15.708  16.663  0.00  0.00     0.029 A 
ATOM     24  C   UNL d   1     -41.283  15.103  17.034  0.00  0.00     0.030 A 
ENDBRANCH   1  20
TORSDOF 5
ENDMDL
MODEL 3
REMARK VINA RESULT:      -5.3      2.394      4.285
REMARK  5 active torsions:
REMARK  status: ('A' for Active; 'I' for Inactive)
REMARK    1  A    between atoms: C_6  and  C_1 
REMARK    2  A    between atoms: C_11  and  N_3 
REMARK    3  A    between atoms: C_20  and  C_11 
REMARK    4  A    between atoms: C_13  and  O_19 
REMARK    5  A    between atoms: O_19  and  C_20 
ROOT
ATOM      1  C   UNL d   1     -45.846  12.570  23.146  0.00  0.00     0.171 A 
ATOM      2  N   UNL d   1     -45.070  12.306  23.035  0.00  0.00    -0.225 NA
ATOM      3  N   UNL d   1     -46.303  11.929  23.412  0.00  0.00    -0.286 N 
ATOM      4  C   UNL d   1     -45.808  11.267  23.467  0.00  0.00     0.083 A 
ATOM      5  C   UNL d   1     -45.046  11.500  23.234  0.00  0.00     0.099 A 
ATOM      6  C   UNL d   1     -45.943  10.476  23.698  0.00  0.00     0.019 A 
ATOM      7  C   UNL d   1     -44.425  10.947  23.232  0.00  0.00     0.021 A 
ATOM      8  C   UNL d   1     -45.324   9.932  23.695  0.00  0.00     0.002 A 
ATOM      9  C   UNL d   1     -44.563  10.168  23.461  0.00  0.00     0.002 A 
ENDROOT
BRANCH   3  10
ATOM     10  C   UNL d   1     -47.096  12.109  23.548  0.00  0.00     0.108 C 
BRANCH  10  11
ATOM     11  C   UNL d   1     -47.685  11.606  23.268  0.00  0.00     0.142 C 
BRANCH  11  12
ATOM     12  O   UNL d   1     -48.432  11.612  23.619  0.00  0.00    -0.304 OA
BRANCH  12  13
ATOM     13  C   UNL d   1     -49.087  11.859  23.184  0.00  0.00     0.100 A 
ATOM     14  C   UNL d   1     -49.728  12.200  23.578  0.00  0.00     0.026 A 
ATOM     15  C   UNL d   1     -50.386  12.448  23.147  0.00  0.00     0.013 A 
ATOM     16  C   UNL d   1     -50.398  12.354  22.322  0.00  0.00     0.058 A 
ATOM     17  C   UNL d   1     -49.755  12.013  21.936  0.00  0.00     0.013 A 
ATOM     18 CL   UNL d   1     -51.054  12.601  21.891  0.00  0.00    -0.082 Cl
ATOM     19  C   UNL d   1     -49.099  11.766  22.371  0.00  0.00     0.026 A 
ENDBRANCH  12  13
ENDBRANCH  11  12
ENDBRANCH  10  11
ENDBRANCH   3  10
BRANCH   1  20
ATOM     20  C   UNL d   1     -46.120  13.338  23.014  0.00  0.00     0.134 A 
ATOM     21  O   UNL d   1     -46.241  13.915  23.427  0.00  0.00    -0.302 OA
ATOM     22  C   UNL d   1     -46.489  14.523  23.136  0.00  0.00     0.123 A 
ATOM     23  C   UNL d   1     -46.620  14.559  22.425  0.00  0.00     0.029 A 
ATOM     24  C   UNL d   1     -46.499  13.983  22.015  0.00  0.00     0.030 A 
ENDBRANCH   1  20
TORSDOF 5
ENDMDL
MODEL 4
REMARK VINA RESULT:      -5.1      9.352     10.438
REMARK  5 active torsions:
REMARK  status: ('A' for Active; 'I' for Inactive)
REMARK    1  A    between atoms: C_6  and  C_1 
REMARK    2  A    between atoms: C_11  and  N_3 
REMARK    3  A    between atoms: C_20  and  C_11 
REMARK    4  A    between atoms: C_13  and  O_19 
REMARK    5  A    between atoms: O_19  and  C_20 
ROOT
ATOM      1  C   UNL d   1     -39.384  14.036  17.608  0.00  0.00     0.171 A 
ATOM      2  N   UNL d   1     -39.996  14.368  17.161  0.00  0.00    -0.225 NA
ATOM      3  N   UNL d   1     -39.400  14.379  18.365  0.00  0.00    -0.286 N 
ATOM      4  C   UNL d   1     -40.023  14.924  18.386  0.00  0.00     0.083 A 
ATOM      5  C   UNL d   1     -40.392  14.917  17.642  0.00  0.00     0.099 A 
ATOM      6  C   UNL d   1     -40.313  15.432  18.982  0.00  0.00     0.019 A 
ATOM      7  C   UNL d   1     -41.043  15.413  17.496  0.00  0.00     0.021 A 
ATOM      8  C   UNL d   1     -40.958  15.922  18.833  0.00  0.00     0.002 A 
ATOM      9  C   UNL d   1     -41.324  15.913  18.088  0.00  0.00     0.002 A 
ENDROOT
BRANCH   3  10
ATOM     10  C   UNL d   1     -38.817  14.101  18.877  0.00  0.00     0.108 C 
BRANCH  10  11
ATOM     11  C   UNL d   1     -38.845  14.298  19.677  0.00  0.00     0.142 C 
BRANCH  11  12
ATOM     12  O   UNL d   1     -38.211  14.107  20.169  0.00  0.00    -0.304 OA
BRANCH  12  13
ATOM     13  C   UNL d   1     -38.330  14.039  20.982  0.00  0.00     0.100 A 
ATOM     14  C   UNL d   1     -38.436  14.722  21.433  0.00  0.00     0.026 A 
ATOM     15  C   UNL d   1     -38.555  14.660  22.247  0.00  0.00     0.013 A 
ATOM     16  C   UNL d   1     -38.566  13.911  22.605  0.00  0.00     0.058 A 
ATOM     17  C   UNL d   1     -38.459  13.233  22.148  0.00  0.00     0.013 A 
ATOM     18 CL   UNL d   1     -38.684  13.847  23.416  0.00  0.00    -0.082 Cl
ATOM     19  C   UNL d   1     -38.341  13.301  21.334  0.00  0.00     0.026 A 
ENDBRANCH  12  13
ENDBRANCH  11  12
ENDBRANCH  10  11
ENDBRANCH   3  10
BRANCH   1  20
ATOM     20  C   UNL d   1     -38.849  13.463  17.347  0.00  0.00     0.134 A 
ATOM     21  O   UNL d   1     -38.316  13.445  16.864  0.00  0.00    -0.302 OA
ATOM     22  C   UNL d   1     -37.940  12.841  16.763  0.00  0.00     0.123 A 
ATOM     23  C   UNL d   1     -38.095  12.247  17.147  0.00  0.00     0.029 A 
ATOM     24  C   UNL d   1     -38.626  12.268  17.628  0.00  0.00     0.030 A 
ENDBRANCH   1  20
TORSDOF 5
ENDMDL
MODEL 5
REMARK VINA RESULT:      -4.7      2.084      4.123
REMARK  5 active torsions:
REMARK  status: ('A' for Active; 'I' for Inactive)
REMARK    1  A    between atoms: C_6  and  C_1 
REMARK    2  A    between atoms: C_11  and  N_3 
REMARK    3  A    between atoms: C_20  and  C_11 
REMARK    4  A    between atoms: C_13  and  O_19 
REMARK    5  A    between atoms: O_19  and  C_20 
ROOT
ATOM      1  C   UNL d   1     -46.241  12.577  22.725  0.00  0.00     0.171 A 
ATOM      2  N   UNL d   1     -46.114  11.816  23.025  0.00  0.00    -0.225 NA
ATOM      3  N   UNL d   1     -47.059  12.728  22.743  0.00  0.00    -0.286 N 
ATOM      4  C   UNL d   1     -47.436  12.060  23.054  0.00  0.00     0.083 A 
ATOM      5  C   UNL d   1     -46.853  11.496  23.228  0.00  0.00     0.099 A 
ATOM      6  C   UNL d   1     -48.238  11.881  23.205  0.00  0.00     0.019 A 
ATOM      7  C   UNL d   1     -47.068  10.760  23.551  0.00  0.00     0.021 A 
ATOM      8  C   UNL d   1     -48.447  11.150  23.525  0.00  0.00     0.002 A 
ATOM      9  C   UNL d   1     -47.860  10.589  23.698  0.00  0.00     0.002 A 
ENDROOT
BRANCH   3  10
ATOM     10  C   UNL d   1     -47.273  13.472  22.459  0.00  0.00     0.108 C 
BRANCH  10  11
ATOM     11  C   UNL d   1     -48.011  13.787  22.648  0.00  0.00     0.142 C 
BRANCH  11  12
ATOM     12  O   UNL d   1     -48.213  14.543  22.390  0.00  0.00    -0.304 OA
BRANCH  12  13
ATOM     13  C   UNL d   1     -48.928  14.879  22.623  0.00  0.00     0.100 A 
ATOM     14  C   UNL d   1     -48.929  15.457  23.213  0.00  0.00     0.026 A 
ATOM     15  C   UNL d   1     -49.642  15.797  23.450  0.00  0.00     0.013 A 
ATOM     16  C   UNL d   1     -50.352  15.554  23.095  0.00  0.00     0.058 A 
ATOM     17  C   UNL d   1     -50.343  14.977  22.507  0.00  0.00     0.013 A 
ATOM     18 CL   UNL d   1     -51.064  15.892  23.331  0.00  0.00    -0.082 Cl
ATOM     19  C   UNL d   1     -49.627  14.640  22.273  0.00  0.00     0.026 A 
ENDBRANCH  12  13
ENDBRANCH  11  12
ENDBRANCH  10  11
ENDBRANCH   3  10
BRANCH   1  20
ATOM     20  C   UNL d   1     -45.659  13.096  22.456  0.00  0.00     0.134 A 
ATOM     21  O   UNL d   1     -45.465  13.771  22.612  0.00  0.00    -0.302 OA
ATOM     22  C   UNL d   1     -44.915  14.079  22.268  0.00  0.00     0.123 A 
ATOM     23  C   UNL d   1     -44.551  13.710  21.761  0.00  0.00     0.029 A 
ATOM     24  C   UNL d   1     -44.746  13.038  21.607  0.00  0.00     0.030 A 
ENDBRANCH   1  20
TORSDOF 5
ENDMDL
MODEL 6
REMARK VINA RESULT:      -4.6      1.457      2.921
REMARK  5 active torsions:
REMARK  status: ('A' for Active; 'I' for Inactive)
REMARK    1  A    between atoms: C_6  and  C_1 
REMARK    2  A    between atoms: C_11  and  N_3 
REMARK    3  A    between atoms: C_20  and  C_11 
REMARK    4  A    between atoms: C_13  and  O_19 
REMARK    5  A    between atoms: O_19  and  C_20 
ROOT
ATOM      1  C   UNL d   1     -48.890  13.217  23.113  0.00  0.00     0.171 A 
ATOM      2  N   UNL d   1     -49.098  13.978  22.865  0.00  0.00    -0.225 NA
ATOM      3  N   UNL d   1     -48.061  13.161  23.112  0.00  0.00    -0.286 N 
ATOM      4  C   UNL d   1     -47.756  13.889  22.863  0.00  0.00     0.083 A 
ATOM      5  C   UNL d   1     -48.396  14.394  22.710  0.00  0.00     0.099 A 
ATOM      6  C   UNL d   1     -46.977  14.169  22.751  0.00  0.00     0.019 A 
ATOM      7  C   UNL d   1     -48.260  15.172  22.449  0.00  0.00     0.021 A 
ATOM      8  C   UNL d   1     -46.846  14.940  22.492  0.00  0.00     0.002 A 
ATOM      9  C   UNL d   1     -47.489  15.443  22.340  0.00  0.00     0.002 A 
ENDROOT
BRANCH   3  10
ATOM     10  C   UNL d   1     -47.769  12.427  23.349  0.00  0.00     0.108 C 
BRANCH  10  11
ATOM     11  C   UNL d   1     -46.980  12.234  23.207  0.00  0.00     0.142 C 
BRANCH  11  12
ATOM     12  O   UNL d   1     -46.766  11.447  23.082  0.00  0.00    -0.304 OA
BRANCH  12  13
ATOM     13  C   UNL d   1     -45.981  11.216  23.174  0.00  0.00     0.100 A 
ATOM     14  C   UNL d   1     -45.810  10.531  23.602  0.00  0.00     0.026 A 
ATOM     15  C   UNL d   1     -45.025  10.295  23.698  0.00  0.00     0.013 A 
ATOM     16  C   UNL d   1     -44.415  10.748  23.363  0.00  0.00     0.058 A 
ATOM     17  C   UNL d   1     -44.594  11.430  22.937  0.00  0.00     0.013 A 
ATOM     18 CL   UNL d   1     -43.632  10.514  23.457  0.00  0.00    -0.082 Cl
ATOM     19  C   UNL d   1     -45.380  11.662  22.844  0.00  0.00     0.026 A 
ENDBRANCH  12  13
ENDBRANCH  11  12
ENDBRANCH  10  11
ENDBRANCH   3  10
BRANCH   1  20
ATOM     20  C   UNL d   1     -49.416  12.615  23.325  0.00  0.00     0.134 A 
ATOM     21  O   UNL d   1     -49.358  11.910  23.458  0.00  0.00    -0.302 OA
ATOM     22  C   UNL d   1     -49.938  11.526  23.636  0.00  0.00     0.123 A 
ATOM     23  C   UNL d   1     -50.586  11.848  23.683  0.00  0.00     0.029 A 
ATOM     24  C   UNL d   1     -50.641  12.550  23.551  0.00  0.00     0.030 A 
ENDBRANCH   1  20
TORSDOF 5
ENDMDL
MODEL 7
REMARK VINA RESULT:      -4.3      8.171      9.962
REMARK  5 active torsions:
REMARK  status: ('A' for Active; 'I' for Inactive)
REMARK    1  A    between atoms: C_6  and  C_1 
REMARK    2  A    between atoms: C_11  and  N_3 
REMARK    3  A    between atoms: C_20  and  C_11 
REMARK    4  A    between atoms: C_13  and  O_19 
REMARK    5  A    between atoms: O_19  and  C_20 
ROOT
ATOM      1  C   UNL d   1     -39.679  14.523  21.497  0.00  0.00     0.171 A 
ATOM      2  N   UNL d   1     -40.416  14.844  21.693  0.00  0.00    -0.225 NA
ATOM      3  N   UNL d   1     -39.530  14.686  20.695  0.00  0.00    -0.286 N 
ATOM      4  C   UNL d   1     -40.176  15.109  20.396  0.00  0.00     0.083 A 
ATOM      5  C   UNL d   1     -40.724  15.206  21.012  0.00  0.00     0.099 A 
ATOM      6  C   UNL d   1     -40.348  15.423  19.642  0.00  0.00     0.019 A 
ATOM      7  C   UNL d   1     -41.436  15.614  20.875  0.00  0.00     0.021 A 
ATOM      8  C   UNL d   1     -41.055  15.826  19.511  0.00  0.00     0.002 A 
ATOM      9  C   UNL d   1     -41.600  15.922  20.129  0.00  0.00     0.002 A 
ENDROOT
BRANCH   3  10
ATOM     10  C   UNL d   1     -38.809  14.398  20.418  0.00  0.00     0.108 C 
BRANCH  10  11
ATOM     11  C   UNL d   1     -38.782  13.970  19.714  0.00  0.00     0.142 C 
BRANCH  11  12
ATOM     12  O   UNL d   1     -38.053  13.773  19.381  0.00  0.00    -0.304 OA
BRANCH  12  13
ATOM     13  C   UNL d   1     -38.025  13.407  18.643  0.00  0.00     0.100 A 
ATOM     14  C   UNL d   1     -38.007  13.873  17.963  0.00  0.00     0.026 A 
ATOM     15  C   UNL d   1     -37.978  13.512  17.221  0.00  0.00     0.013 A 
ATOM     16  C   UNL d   1     -37.968  12.683  17.167  0.00  0.00     0.058 A 
ATOM     17  C   UNL d   1     -37.987  12.225  17.852  0.00  0.00     0.013 A 
ATOM     18 CL   UNL d   1     -37.940  12.322  16.429  0.00  0.00    -0.082 Cl
ATOM     19  C   UNL d   1     -38.015  12.591  18.591  0.00  0.00     0.026 A 
ENDBRANCH  12  13
ENDBRANCH  11  12
ENDBRANCH  10  11
ENDBRANCH   3  10
BRANCH   1  20
ATOM     20  C   UNL d   1     -39.177  14.112  22.008  0.00  0.00     0.134 A 
ATOM     21  O   UNL d   1     -39.187  13.464  22.322  0.00  0.00    -0.302 OA
ATOM     22  C   UNL d   1     -38.649  13.262  22.752  0.00  0.00     0.123 A 
ATOM     23  C   UNL d   1     -38.093  13.709  22.874  0.00  0.00     0.029 A 
ATOM     24  C   UNL d   1     -38.085  14.354  22.561  0.00  0.00     0.030 A 
ENDBRANCH   1  20
TORSDOF 5
ENDMDL
MODEL 8
REMARK VINA RESULT:      -3.8      8.791     11.461
REMARK  5 active torsions:
REMARK  status: ('A' for Active; 'I' for Inactive)
REMARK    1  A    between atoms: C_6  and  C_1 
REMARK    2  A    between atoms: C_11  and  N_3 
REMARK    3  A    between atoms: C_20  and  C_11 
REMARK    4  A    between atoms: C_13  and  O_19 
REMARK    5  A    between atoms: O_19  and  C_20 
ROOT
ATOM      1  C   UNL d   1     -38.073  13.271  17.143  0.00  0.00     0.171 A 
ATOM      2  N   UNL d   1     -37.984  13.330  16.323  0.00  0.00    -0.225 NA
ATOM      3  N   UNL d   1     -38.196  14.035  17.446  0.00  0.00    -0.286 N 
ATOM      4  C   UNL d   1     -38.182  14.567  16.812  0.00  0.00     0.083 A 
ATOM      5  C   UNL d   1     -38.052  14.132  16.118  0.00  0.00     0.099 A 
ATOM      6  C   UNL d   1     -38.271  15.397  16.766  0.00  0.00     0.019 A 
ATOM      7  C   UNL d   1     -38.011  14.522  15.384  0.00  0.00     0.021 A 
ATOM      8  C   UNL d   1     -38.230  15.779  16.037  0.00  0.00     0.002 A 
ATOM      9  C   UNL d   1     -38.099  15.340  15.344  0.00  0.00     0.002 A 
ENDROOT
BRANCH   3  10
ATOM     10  C   UNL d   1     -38.294  14.065  18.265  0.00  0.00     0.108 C 
BRANCH  10  11
ATOM     11  C   UNL d   1     -38.886  14.537  18.590  0.00  0.00     0.142 C 
BRANCH  11  12
ATOM     12  O   UNL d   1     -38.875  14.713  19.396  0.00  0.00    -0.304 OA
BRANCH  12  13
ATOM     13  C   UNL d   1     -39.573  14.920  19.781  0.00  0.00     0.100 A 
ATOM     14  C   UNL d   1     -39.813  15.710  19.785  0.00  0.00     0.026 A 
ATOM     15  C   UNL d   1     -40.512  15.922  20.169  0.00  0.00     0.013 A 
ATOM     16  C   UNL d   1     -40.967  15.339  20.547  0.00  0.00     0.058 A 
ATOM     17  C   UNL d   1     -40.720  14.553  20.539  0.00  0.00     0.013 A 
ATOM     18 CL   UNL d   1     -41.664  15.549  20.931  0.00  0.00    -0.082 Cl
ATOM     19  C   UNL d   1     -40.021  14.346  20.153  0.00  0.00     0.026 A 
ENDBRANCH  12  13
ENDBRANCH  11  12
ENDBRANCH  10  11
ENDBRANCH   3  10
BRANCH   1  20
ATOM     20  C   UNL d   1     -38.045  12.574  17.585  0.00  0.00     0.134 A 
ATOM     21  O   UNL d   1     -37.949  12.413  18.280  0.00  0.00    -0.302 OA
ATOM     22  C   UNL d   1     -37.954  11.729  18.497  0.00  0.00     0.123 A 
ATOM     23  C   UNL d   1     -38.057  11.195  18.018  0.00  0.00     0.029 A 
ATOM     24  C   UNL d   1     -38.152  11.358  17.326  0.00  0.00     0.030 A 
ENDBRANCH   1  20
TORSDOF 5
ENDMDL
