MODEL 1
REMARK VINA RESULT:      -3.8      0.000      0.000
REMARK  7 active torsions:
REMARK  status: ('A' for Active; 'I' for Inactive)
REMARK    1  A    between atoms: C_8  and  C_1 
REMARK    2  A    between atoms: N_7  and  C_2 
REMARK    3  A    between atoms: C_5  and  N_7 
REMARK    4  A    between atoms: N_9  and  C_5 
REMARK    5  A    between atoms: O_12  and  C_8 
REMARK    6  A    between atoms: C_13  and  N_9 
REMARK    7  A    between atoms: C_16  and  O_12 
ROOT
ATOM      1  C   UNL d   1      59.039  -1.488  29.103  0.00  0.00     0.162 A 
ATOM      2  C   UNL d   1      58.865  -0.766  29.445  0.00  0.00     0.108 A 
ATOM      3  N   UNL d   1      59.856  -1.532  28.992  0.00  0.00    -0.239 NA
ATOM      4  C   UNL d   1      59.568  -0.355  29.550  0.00  0.00     0.037 A 
ATOM      5  C   UNL d   1      60.185  -0.825  29.272  0.00  0.00     0.083 A 
ATOM      6  C   UNL d   1      59.729   0.390  29.865  0.00  0.00     0.003 A 
ATOM      7  C   UNL d   1      60.965  -0.553  29.307  0.00  0.00     0.019 A 
ATOM      8  C   UNL d   1      60.504   0.669  29.904  0.00  0.00     0.000 A 
ATOM      9  C   UNL d   1      61.122   0.189  29.621  0.00  0.00     0.002 A 
ENDROOT
BRANCH   2  10
ATOM     10  N   UNL d   1      58.104  -0.489  29.653  0.00  0.00    -0.216 NA
BRANCH  10  11
ATOM     11  C   UNL d   1      57.952  -0.268  30.436  0.00  0.00     0.221 C 
ATOM     12  S   UNL d   1      58.086   0.509  30.690  0.00  0.00    -0.037 SA
BRANCH  11  13
ATOM     13  N   UNL d   1      57.662  -0.835  30.966  0.00  0.00    -0.217 NA
BRANCH  13  14
ATOM     14  C   UNL d   1      57.094  -0.616  31.524  0.00  0.00     0.084 A 
ATOM     15  C   UNL d   1      56.910   0.179  31.631  0.00  0.00     0.019 A 
ATOM     16  C   UNL d   1      56.339   0.408  32.191  0.00  0.00     0.002 A 
ATOM     17  C   UNL d   1      55.958  -0.174  32.641  0.00  0.00     0.000 A 
ATOM     18  C   UNL d   1      56.139  -0.976  32.537  0.00  0.00     0.002 A 
ATOM     19  C   UNL d   1      56.705  -1.188  31.980  0.00  0.00     0.019 A 
ENDBRANCH  13  14
ENDBRANCH  11  13
ENDBRANCH  10  11
ENDBRANCH   2  10
BRANCH   1  20
ATOM     20  C   UNL d   1      58.493  -2.075  28.901  0.00  0.00     0.320 C 
ATOM     21  O   UNL d   1      57.823  -1.876  28.457  0.00  0.00    -0.257 OA
BRANCH  20  22
ATOM     22  O   UNL d   1      58.604  -2.855  29.134  0.00  0.00    -0.270 OA
BRANCH  22  23
ATOM     23  C   UNL d   1      58.391  -3.467  28.620  0.00  0.00     0.126 C 
ATOM     24  C   UNL d   1      58.644  -4.232  28.771  0.00  0.00     0.029 C 
ENDBRANCH  22  23
ENDBRANCH  20  22
ENDBRANCH   1  20
TORSDOF 7
ENDMDL
MODEL 2
REMARK VINA RESULT:      -1.2      1.360      3.726
REMARK  7 active torsions:
REMARK  status: ('A' for Active; 'I' for Inactive)
REMARK    1  A    between atoms: C_8  and  C_1 
REMARK    2  A    between atoms: N_7  and  C_2 
REMARK    3  A    between atoms: C_5  and  N_7 
REMARK    4  A    between atoms: N_9  and  C_5 
REMARK    5  A    between atoms: O_12  and  C_8 
REMARK    6  A    between atoms: C_13  and  N_9 
REMARK    7  A    between atoms: C_16  and  O_12 
ROOT
ATOM      1  C   UNL d   1      58.768  -0.432  29.819  0.00  0.00     0.162 A 
ATOM      2  C   UNL d   1      59.186  -0.961  29.357  0.00  0.00     0.108 A 
ATOM      3  N   UNL d   1      59.193   0.275  29.855  0.00  0.00    -0.239 NA
ATOM      4  C   UNL d   1      59.874  -0.592  29.102  0.00  0.00     0.037 A 
ATOM      5  C   UNL d   1      59.883   0.173  29.407  0.00  0.00     0.083 A 
ATOM      6  C   UNL d   1      60.497  -0.853  28.628  0.00  0.00     0.003 A 
ATOM      7  C   UNL d   1      60.514   0.682  29.241  0.00  0.00     0.019 A 
ATOM      8  C   UNL d   1      61.130  -0.353  28.458  0.00  0.00     0.000 A 
ATOM      9  C   UNL d   1      61.133   0.418  28.769  0.00  0.00     0.002 A 
ENDROOT
BRANCH   2  10
ATOM     10  N   UNL d   1      58.958  -1.744  29.174  0.00  0.00    -0.216 NA
BRANCH  10  11
ATOM     11  C   UNL d   1      59.532  -2.339  29.147  0.00  0.00     0.221 C 
ATOM     12  S   UNL d   1      60.018  -2.489  29.802  0.00  0.00    -0.037 SA
BRANCH  11  13
ATOM     13  N   UNL d   1      59.617  -2.787  28.455  0.00  0.00    -0.217 NA
BRANCH  13  14
ATOM     14  C   UNL d   1      59.392  -3.581  28.456  0.00  0.00     0.084 A 
ATOM     15  C   UNL d   1      58.594  -3.783  28.455  0.00  0.00     0.019 A 
ATOM     16  C   UNL d   1      58.360  -4.580  28.456  0.00  0.00     0.002 A 
ATOM     17  C   UNL d   1      58.940  -5.172  28.458  0.00  0.00     0.000 A 
ATOM     18  C   UNL d   1      59.744  -4.976  28.459  0.00  0.00     0.002 A 
ATOM     19  C   UNL d   1      59.963  -4.183  28.458  0.00  0.00     0.019 A 
ENDBRANCH  13  14
ENDBRANCH  11  13
ENDBRANCH  10  11
ENDBRANCH   2  10
BRANCH   1  20
ATOM     20  C   UNL d   1      58.042  -0.576  30.188  0.00  0.00     0.320 C 
ATOM     21  O   UNL d   1      57.355  -0.640  29.730  0.00  0.00    -0.257 OA
BRANCH  20  22
ATOM     22  O   UNL d   1      57.991  -0.657  31.004  0.00  0.00    -0.270 OA
BRANCH  22  23
ATOM     23  C   UNL d   1      57.250  -0.611  31.372  0.00  0.00     0.126 C 
ATOM     24  C   UNL d   1      56.899  -1.290  31.667  0.00  0.00     0.029 C 
ENDBRANCH  22  23
ENDBRANCH  20  22
ENDBRANCH   1  20
TORSDOF 7
ENDMDL
