MODEL 1
REMARK VINA RESULT:     106.4      0.000      0.000
REMARK  3 active torsions:
REMARK  status: ('A' for Active; 'I' for Inactive)
REMARK    1  A    between atoms: C_6  and  C_1 
REMARK    2  A    between atoms: C_4  and  C_8 
REMARK       I    between atoms: N_11  and  C_6 
REMARK       I    between atoms: C_8  and  N_12 
REMARK    3  A    between atoms: N_12  and  N_11 
ROOT
ATOM      1  C   UNL d   1      61.866  46.415  50.267  0.00  0.00     0.302 C 
ATOM      2  N   UNL d   1      61.524  45.755  50.622  0.00  0.00    -0.102 NA
ATOM      3  O   UNL d   1      62.579  46.347  49.853  0.00  0.00    -0.263 OA
ENDROOT
BRANCH   1   4
ATOM      4  C   UNL d   1      61.501  47.157  50.320  0.00  0.00     0.123 A 
ATOM      5  C   UNL d   1      61.264  47.546  49.645  0.00  0.00     0.305 A 
ATOM      6  O   UNL d   1      60.898  48.292  49.709  0.00  0.00    -0.273 OA
ATOM      7  O   UNL d   1      61.385  47.207  48.906  0.00  0.00    -0.259 OA
ATOM      8  C   UNL d   1      60.778  48.631  50.448  0.00  0.00     0.103 A 
ATOM      9  C   UNL d   1      61.020  48.232  51.132  0.00  0.00     0.024 A 
ATOM     10  C   UNL d   1      60.416  49.367  50.506  0.00  0.00     0.025 A 
ATOM     11  C   UNL d   1      61.383  47.492  51.066  0.00  0.00     0.012 A 
ATOM     12  C   UNL d   1      60.899  48.572  51.870  0.00  0.00     0.009 A 
ATOM     13  C   UNL d   1      60.538  49.307  51.938  0.00  0.00     0.035 A 
ATOM     14  C   UNL d   1      60.295  49.708  51.251  0.00  0.00     0.009 A 
ATOM     15 BR   UNL d   1      60.417  49.646  52.677  0.00  0.00    -0.049 Br
ENDBRANCH   1   4
BRANCH   2  16
ATOM     16  N   UNL d   1      61.900  45.023  50.560  0.00  0.00    -0.102 NA
ATOM     17  C   UNL d   1      61.643  44.397  51.030  0.00  0.00     0.300 C 
ATOM     18  O   UNL d   1      61.017  44.498  51.559  0.00  0.00    -0.264 OA
BRANCH  17  19
ATOM     19  C   UNL d   1      62.013  43.661  50.975  0.00  0.00     0.098 A 
ATOM     20  C   UNL d   1      61.886  43.095  51.560  0.00  0.00     0.203 A 
ATOM     21  C   UNL d   1      62.250  42.364  51.511  0.00  0.00     0.084 A 
ATOM     22  O   UNL d   1      61.392  43.264  52.198  0.00  0.00    -0.286 OA
ATOM     23  C   UNL d   1      62.745  42.192  50.875  0.00  0.00     0.199 A 
ATOM     24  C   UNL d   1      62.875  42.757  50.287  0.00  0.00     0.042 A 
ATOM     25  O   UNL d   1      63.113  41.456  50.824  0.00  0.00    -0.286 OA
ATOM     26  C   UNL d   1      62.504  43.497  50.340  0.00  0.00     0.011 A 
ENDBRANCH  17  19
ENDBRANCH   2  16
TORSDOF 3
ENDMDL
MODEL 2
REMARK VINA RESULT:     106.8      1.385      1.655
REMARK  3 active torsions:
REMARK  status: ('A' for Active; 'I' for Inactive)
REMARK    1  A    between atoms: C_6  and  C_1 
REMARK    2  A    between atoms: C_4  and  C_8 
REMARK       I    between atoms: N_11  and  C_6 
REMARK       I    between atoms: C_8  and  N_12 
REMARK    3  A    between atoms: N_12  and  N_11 
ROOT
ATOM      1  C   UNL d   1      61.045  47.073  50.587  0.00  0.00     0.302 C 
ATOM      2  N   UNL d   1      60.842  46.331  50.882  0.00  0.00    -0.102 NA
ATOM      3  O   UNL d   1      61.715  47.167  50.112  0.00  0.00    -0.263 OA
ENDROOT
BRANCH   1   4
ATOM      4  C   UNL d   1      60.581  47.737  50.763  0.00  0.00     0.123 A 
ATOM      5  C   UNL d   1      60.909  48.376  51.149  0.00  0.00     0.305 A 
ATOM      6  O   UNL d   1      60.433  49.037  51.321  0.00  0.00    -0.273 OA
ATOM      7  O   UNL d   1      61.702  48.368  51.365  0.00  0.00    -0.259 OA
ATOM      8  C   UNL d   1      59.641  49.045  51.104  0.00  0.00     0.103 A 
ATOM      9  C   UNL d   1      59.311  48.394  50.713  0.00  0.00     0.024 A 
ATOM     10  C   UNL d   1      59.176  49.701  51.277  0.00  0.00     0.025 A 
ATOM     11  C   UNL d   1      59.785  47.739  50.543  0.00  0.00     0.012 A 
ATOM     12  C   UNL d   1      58.519  48.403  50.497  0.00  0.00     0.009 A 
ATOM     13  C   UNL d   1      58.046  49.054  50.665  0.00  0.00     0.035 A 
ATOM     14  C   UNL d   1      58.378  49.708  51.058  0.00  0.00     0.009 A 
ATOM     15 BR   UNL d   1      57.254  49.062  50.448  0.00  0.00    -0.049 Br
ENDBRANCH   1   4
BRANCH   2  16
ATOM     16  N   UNL d   1      61.315  45.681  50.697  0.00  0.00    -0.102 NA
ATOM     17  C   UNL d   1      61.092  44.933  50.962  0.00  0.00     0.300 C 
ATOM     18  O   UNL d   1      60.405  44.833  51.408  0.00  0.00    -0.264 OA
BRANCH  17  19
ATOM     19  C   UNL d   1      61.559  44.276  50.783  0.00  0.00     0.098 A 
ATOM     20  C   UNL d   1      61.663  43.682  51.345  0.00  0.00     0.203 A 
ATOM     21  C   UNL d   1      62.124  43.030  51.172  0.00  0.00     0.084 A 
ATOM     22  O   UNL d   1      61.302  43.745  52.083  0.00  0.00    -0.286 OA
ATOM     23  C   UNL d   1      62.486  42.963  50.435  0.00  0.00     0.199 A 
ATOM     24  C   UNL d   1      62.384  43.556  49.870  0.00  0.00     0.042 A 
ATOM     25  O   UNL d   1      62.951  42.306  50.260  0.00  0.00    -0.286 OA
ATOM     26  C   UNL d   1      61.916  44.217  50.048  0.00  0.00     0.011 A 
ENDBRANCH  17  19
ENDBRANCH   2  16
TORSDOF 3
ENDMDL
