MODEL 1
REMARK VINA RESULT:      74.2      0.000      0.000
REMARK  5 active torsions:
REMARK  status: ('A' for Active; 'I' for Inactive)
REMARK    1  A    between atoms: C_6  and  N_1 
REMARK    2  A    between atoms: C_5  and  C_3 
REMARK    3  A    between atoms: C_11  and  C_4 
REMARK    4  A    between atoms: N_13  and  C_6 
REMARK    5  A    between atoms: O_23  and  C_19 
ROOT
ATOM      1  N   UNL d   1      58.292  49.198  51.225  0.00  0.00    -0.203 N 
ATOM      2  N   UNL d   1      57.636  49.204  51.748  0.00  0.00    -0.163 NA
ATOM      3  C   UNL d   1      58.968  49.398  51.625  0.00  0.00     0.088 A 
ATOM      4  C   UNL d   1      57.934  49.414  52.478  0.00  0.00     0.103 A 
ATOM      5  C   UNL d   1      58.742  49.533  52.409  0.00  0.00     0.040 A 
ENDROOT
BRANCH   3   6
ATOM      6  C   UNL d   1      59.716  49.460  51.341  0.00  0.00     0.029 A 
ATOM      7  C   UNL d   1      59.843  49.615  50.540  0.00  0.00     0.060 A 
ATOM      8  C   UNL d   1      60.595  49.676  50.260  0.00  0.00     0.023 A 
ATOM      9 CL   UNL d   1      59.189  49.704  50.037  0.00  0.00    -0.082 Cl
ATOM     10  C   UNL d   1      61.245  49.586  50.767  0.00  0.00     0.059 A 
ATOM     11  C   UNL d   1      61.125  49.438  51.534  0.00  0.00     0.011 A 
ATOM     12 CL   UNL d   1      62.018  49.648  50.489  0.00  0.00    -0.082 Cl
ATOM     13  C   UNL d   1      60.353  49.373  51.833  0.00  0.00     0.003 A 
ENDBRANCH   3   6
BRANCH   1  14
ATOM     14  C   UNL d   1      58.233  49.008  50.405  0.00  0.00     0.222 C 
ATOM     15  S   UNL d   1      58.834  48.558  50.038  0.00  0.00    -0.037 SA
BRANCH  14  16
ATOM     16  N   UNL d   1      57.586  49.267  49.978  0.00  0.00    -0.214 NA
ATOM     17  C   UNL d   1      56.925  48.774  49.864  0.00  0.00     0.122 C 
ENDBRANCH  14  16
ENDBRANCH   1  14
BRANCH   4  18
ATOM     18  C   UNL d   1      57.471  49.481  53.135  0.00  0.00     0.019 A 
ATOM     19  C   UNL d   1      57.820  49.635  53.867  0.00  0.00     0.004 A 
ATOM     20  C   UNL d   1      57.365  49.707  54.548  0.00  0.00     0.024 A 
ATOM     21  C   UNL d   1      56.529  49.621  54.489  0.00  0.00     0.094 A 
ATOM     22  C   UNL d   1      56.182  49.468  53.757  0.00  0.00     0.024 A 
ATOM     23  C   UNL d   1      56.651  49.397  53.077  0.00  0.00     0.004 A 
BRANCH  21  24
ATOM     24  O   UNL d   1      56.051  49.693  55.178  0.00  0.00    -0.328 OA
ATOM     25  C   UNL d   1      56.277  49.326  55.881  0.00  0.00     0.181 C 
ENDBRANCH  21  24
ENDBRANCH   4  18
TORSDOF 5
ENDMDL
MODEL 2
REMARK VINA RESULT:      75.4      3.475      5.434
REMARK  5 active torsions:
REMARK  status: ('A' for Active; 'I' for Inactive)
REMARK    1  A    between atoms: C_6  and  N_1 
REMARK    2  A    between atoms: C_5  and  C_3 
REMARK    3  A    between atoms: C_11  and  C_4 
REMARK    4  A    between atoms: N_13  and  C_6 
REMARK    5  A    between atoms: O_23  and  C_19 
ROOT
ATOM      1  N   UNL d   1      60.920  48.332  50.940  0.00  0.00    -0.203 N 
ATOM      2  N   UNL d   1      61.516  47.765  50.773  0.00  0.00    -0.163 NA
ATOM      3  C   UNL d   1      60.232  48.133  50.560  0.00  0.00     0.088 A 
ATOM      4  C   UNL d   1      61.169  47.215  50.279  0.00  0.00     0.103 A 
ATOM      5  C   UNL d   1      60.390  47.433  50.147  0.00  0.00     0.040 A 
ENDROOT
BRANCH   3   6
ATOM      6  C   UNL d   1      59.529  48.518  50.567  0.00  0.00     0.029 A 
ATOM      7  C   UNL d   1      59.373  49.103  50.005  0.00  0.00     0.060 A 
ATOM      8  C   UNL d   1      58.665  49.487  50.016  0.00  0.00     0.023 A 
ATOM      9 CL   UNL d   1      59.951  49.285  49.439  0.00  0.00    -0.082 Cl
ATOM     10  C   UNL d   1      58.090  49.301  50.585  0.00  0.00     0.059 A 
ATOM     11  C   UNL d   1      58.238  48.742  51.122  0.00  0.00     0.011 A 
ATOM     12 CL   UNL d   1      57.364  49.690  50.602  0.00  0.00    -0.082 Cl
ATOM     13  C   UNL d   1      58.965  48.340  51.120  0.00  0.00     0.003 A 
ENDBRANCH   3   6
BRANCH   1  14
ATOM     14  C   UNL d   1      61.042  49.004  51.435  0.00  0.00     0.222 C 
ATOM     15  S   UNL d   1      61.388  49.696  51.118  0.00  0.00    -0.037 SA
BRANCH  14  16
ATOM     16  N   UNL d   1      60.821  48.970  52.222  0.00  0.00    -0.214 NA
ATOM     17  C   UNL d   1      61.238  49.399  52.800  0.00  0.00     0.122 C 
ENDBRANCH  14  16
ENDBRANCH   1  14
BRANCH   4  18
ATOM     18  C   UNL d   1      61.566  46.575  49.992  0.00  0.00     0.019 A 
ATOM     19  C   UNL d   1      61.309  45.814  50.182  0.00  0.00     0.004 A 
ATOM     20  C   UNL d   1      61.700  45.150  49.899  0.00  0.00     0.024 A 
ATOM     21  C   UNL d   1      62.376  45.256  49.406  0.00  0.00     0.094 A 
ATOM     22  C   UNL d   1      62.632  46.016  49.216  0.00  0.00     0.024 A 
ATOM     23  C   UNL d   1      62.228  46.679  49.509  0.00  0.00     0.004 A 
BRANCH  21  24
ATOM     24  O   UNL d   1      62.787  44.584  49.108  0.00  0.00    -0.328 OA
ATOM     25  C   UNL d   1      62.423  43.843  49.100  0.00  0.00     0.181 C 
ENDBRANCH  21  24
ENDBRANCH   4  18
TORSDOF 5
ENDMDL
