MODEL 1
REMARK VINA RESULT:     -10.1      0.000      0.000
REMARK  5 active torsions:
REMARK  status: ('A' for Active; 'I' for Inactive)
REMARK    1  A    between atoms: N_6  and  C_1 
REMARK    2  A    between atoms: S_2  and  C_11 
REMARK    3  A    between atoms: N_8  and  S_2 
REMARK    4  A    between atoms: C_10  and  C_3 
REMARK       I    between atoms: C_9  and  N_6 
REMARK    5  A    between atoms: C_14  and  C_9 
REMARK       I    between atoms: N_22  and  C_10 
ROOT
ATOM      1  C   UNL d   1      49.393  34.846  52.218  0.00  0.00     0.104 A 
ATOM      2  C   UNL d   1      50.912  34.363  52.670  0.00  0.00     0.058 A 
ATOM      3  C   UNL d   1      49.629  34.915  53.002  0.00  0.00     0.013 A 
ATOM      4  C   UNL d   1      49.917  34.533  51.650  0.00  0.00     0.013 A 
ATOM      5  C   UNL d   1      50.389  34.674  53.230  0.00  0.00     0.005 A 
ATOM      6  C   UNL d   1      50.673  34.293  51.877  0.00  0.00     0.005 A 
ENDROOT
BRANCH   2   7
ATOM      7  C   UNL d   1      51.668  34.123  52.897  0.00  0.00     0.280 C 
ATOM      8  N   UNL d   1      51.651  33.321  53.428  0.00  0.00    -0.201 NA
ATOM      9  O   UNL d   1      52.150  34.544  52.660  0.00  0.00    -0.265 OA
BRANCH   8  10
ATOM     10  C   UNL d   1      52.343  33.140  53.610  0.00  0.00     0.119 A 
ATOM     11  C   UNL d   1      52.917  32.625  53.530  0.00  0.00     0.082 A 
ATOM     12  C   UNL d   1      53.537  32.874  53.954  0.00  0.00     0.013 A 
ATOM     13  C   UNL d   1      54.258  32.573  54.072  0.00  0.00     0.001 A 
ATOM     14  C   UNL d   1      53.331  33.557  54.300  0.00  0.00     0.031 A 
ATOM     15  C   UNL d   1      54.771  32.954  54.535  0.00  0.00     0.001 A 
ATOM     16  C   UNL d   1      54.567  33.631  54.878  0.00  0.00     0.006 A 
ATOM     17  S   UNL d   1      52.593  33.721  54.087  0.00  0.00    -0.068 SA
BRANCH  11  18
ATOM     18  C   UNL d   1      52.890  31.965  53.099  0.00  0.00     0.281 C 
ATOM     19  O   UNL d   1      53.165  31.969  52.356  0.00  0.00    -0.265 OA
ATOM     20  N   UNL d   1      52.591  31.301  53.406  0.00  0.00    -0.205 NA
ATOM     21  C   UNL d   1      52.565  30.612  52.952  0.00  0.00     0.123 C 
ENDBRANCH  11  18
ENDBRANCH   8  10
ENDBRANCH   2   7
BRANCH   1  22
ATOM     22  S   UNL d   1      48.633  35.087  51.990  0.00  0.00     0.272 S 
ATOM     23  O   UNL d   1      48.682  34.607  51.320  0.00  0.00    -0.200 OA
ATOM     24  O   UNL d   1      48.584  35.569  52.662  0.00  0.00    -0.200 OA
BRANCH  22  25
ATOM     25  N   UNL d   1      47.877  35.327  51.763  0.00  0.00    -0.225 N 
ATOM     26  C   UNL d   1      47.460  35.877  52.214  0.00  0.00     0.118 A 
ATOM     27  C   UNL d   1      46.697  36.120  51.985  0.00  0.00     0.142 A 
ATOM     28  O   UNL d   1      46.354  35.806  51.299  0.00  0.00    -0.300 OA
ATOM     29  C   UNL d   1      46.769  35.261  50.854  0.00  0.00     0.142 A 
ATOM     30  C   UNL d   1      47.525  35.021  51.081  0.00  0.00     0.118 A 
ENDBRANCH  22  25
ENDBRANCH   1  22
TORSDOF 5
ENDMDL
MODEL 2
REMARK VINA RESULT:      -9.0      1.215      1.898
REMARK  5 active torsions:
REMARK  status: ('A' for Active; 'I' for Inactive)
REMARK    1  A    between atoms: N_6  and  C_1 
REMARK    2  A    between atoms: S_2  and  C_11 
REMARK    3  A    between atoms: N_8  and  S_2 
REMARK    4  A    between atoms: C_10  and  C_3 
REMARK       I    between atoms: C_9  and  N_6 
REMARK    5  A    between atoms: C_14  and  C_9 
REMARK       I    between atoms: N_22  and  C_10 
ROOT
ATOM      1  C   UNL d   1      48.510  35.122  52.050  0.00  0.00     0.104 A 
ATOM      2  C   UNL d   1      50.026  34.481  52.247  0.00  0.00     0.058 A 
ATOM      3  C   UNL d   1      48.896  35.193  52.773  0.00  0.00     0.013 A 
ATOM      4  C   UNL d   1      48.881  34.727  51.416  0.00  0.00     0.013 A 
ATOM      5  C   UNL d   1      49.654  34.873  52.873  0.00  0.00     0.005 A 
ATOM      6  C   UNL d   1      49.636  34.408  51.516  0.00  0.00     0.005 A 
ENDROOT
BRANCH   2   7
ATOM      7  C   UNL d   1      50.780  34.162  52.346  0.00  0.00     0.280 C 
ATOM      8  N   UNL d   1      51.033  34.109  53.273  0.00  0.00    -0.201 NA
ATOM      9  O   UNL d   1      51.069  34.003  51.749  0.00  0.00    -0.265 OA
BRANCH   8  10
ATOM     10  C   UNL d   1      51.710  33.820  53.320  0.00  0.00     0.119 A 
ATOM     11  C   UNL d   1      52.461  33.955  53.462  0.00  0.00     0.082 A 
ATOM     12  C   UNL d   1      52.856  33.274  53.387  0.00  0.00     0.013 A 
ATOM     13  C   UNL d   1      53.621  33.089  53.468  0.00  0.00     0.001 A 
ATOM     14  C   UNL d   1      52.331  32.714  53.194  0.00  0.00     0.031 A 
ATOM     15  C   UNL d   1      53.858  32.346  53.356  0.00  0.00     0.001 A 
ATOM     16  C   UNL d   1      53.337  31.789  53.164  0.00  0.00     0.006 A 
ATOM     17  S   UNL d   1      51.623  33.051  53.152  0.00  0.00    -0.068 SA
BRANCH  11  18
ATOM     18  C   UNL d   1      52.778  34.653  53.651  0.00  0.00     0.281 C 
ATOM     19  O   UNL d   1      53.129  35.090  53.091  0.00  0.00    -0.265 OA
ATOM     20  N   UNL d   1      52.746  34.917  54.396  0.00  0.00    -0.205 NA
ATOM     21  C   UNL d   1      53.079  35.647  54.589  0.00  0.00     0.123 C 
ENDBRANCH  11  18
ENDBRANCH   8  10
ENDBRANCH   2   7
BRANCH   1  22
ATOM     22  S   UNL d   1      47.752  35.442  51.950  0.00  0.00     0.272 S 
ATOM     23  O   UNL d   1      47.615  34.922  51.324  0.00  0.00    -0.200 OA
ATOM     24  O   UNL d   1      47.889  35.964  52.579  0.00  0.00    -0.200 OA
BRANCH  22  25
ATOM     25  N   UNL d   1      46.997  35.760  51.850  0.00  0.00    -0.225 N 
ATOM     26  C   UNL d   1      46.494  35.468  51.266  0.00  0.00     0.118 A 
ATOM     27  C   UNL d   1      45.733  35.789  51.166  0.00  0.00     0.142 A 
ATOM     28  O   UNL d   1      45.479  36.407  51.656  0.00  0.00    -0.300 OA
ATOM     29  C   UNL d   1      45.979  36.695  52.234  0.00  0.00     0.142 A 
ATOM     30  C   UNL d   1      46.734  36.377  52.334  0.00  0.00     0.118 A 
ENDBRANCH  22  25
ENDBRANCH   1  22
TORSDOF 5
ENDMDL
