MODEL 1
REMARK VINA RESULT:      -3.2      0.000      0.000
REMARK  1 active torsions:
REMARK  status: ('A' for Active; 'I' for Inactive)
REMARK    1  A    between atoms: C_9  and  C_4 
ROOT
ATOM      1  S   UNL d   1      30.285  16.539 -23.845  0.00  0.00    -0.085 SA
ATOM      2  N   UNL d   1      28.738  17.377 -24.286  0.00  0.00    -0.207 NA
ATOM      3  C   UNL d   1      29.269  17.850 -24.675  0.00  0.00     0.280 A 
ATOM      4  C   UNL d   1      30.573  17.143 -24.303  0.00  0.00     0.034 A 
ATOM      5  C   UNL d   1      30.118  17.745 -24.685  0.00  0.00     0.069 A 
ATOM      6  C   UNL d   1      29.617  16.426 -23.698  0.00  0.00     0.047 A 
ATOM      7  C   UNL d   1      28.908  16.800 -23.892  0.00  0.00     0.091 A 
ATOM      8  O   UNL d   1      28.964  18.487 -25.097  0.00  0.00    -0.265 OA
ATOM      9  C   UNL d   1      29.613  15.755 -23.221  0.00  0.00     0.008 A 
ATOM     10  C   UNL d   1      28.195  16.503 -23.609  0.00  0.00     0.020 A 
ATOM     11  C   UNL d   1      28.185  15.826 -23.128  0.00  0.00     0.002 A 
ATOM     12  C   UNL d   1      28.895  15.453 -22.933  0.00  0.00     0.001 A 
ENDROOT
BRANCH   4  13
ATOM     13  C   UNL d   1      31.395  17.170 -24.405  0.00  0.00     0.006 A 
ATOM     14  C   UNL d   1      31.855  17.654 -23.930  0.00  0.00     0.001 A 
ATOM     15  C   UNL d   1      32.667  17.681 -24.030  0.00  0.00     0.000 A 
ATOM     16  C   UNL d   1      33.024  17.218 -24.612  0.00  0.00     0.000 A 
ATOM     17  C   UNL d   1      32.559  16.725 -25.097  0.00  0.00     0.000 A 
ATOM     18  C   UNL d   1      31.743  16.702 -24.992  0.00  0.00     0.001 A 
ENDBRANCH   4  13
TORSDOF 1
ENDMDL
MODEL 2
REMARK VINA RESULT:      -3.2      1.703      2.355
REMARK  1 active torsions:
REMARK  status: ('A' for Active; 'I' for Inactive)
REMARK    1  A    between atoms: C_9  and  C_4 
ROOT
ATOM      1  S   UNL d   1      31.051  17.513 -24.349  0.00  0.00    -0.085 SA
ATOM      2  N   UNL d   1      31.065  15.814 -23.716  0.00  0.00    -0.207 NA
ATOM      3  C   UNL d   1      31.836  16.021 -23.576  0.00  0.00     0.280 A 
ATOM      4  C   UNL d   1      31.824  17.454 -24.110  0.00  0.00     0.034 A 
ATOM      5  C   UNL d   1      32.190  16.778 -23.757  0.00  0.00     0.069 A 
ATOM      6  C   UNL d   1      30.573  17.015 -24.299  0.00  0.00     0.047 A 
ATOM      7  C   UNL d   1      30.568  16.241 -24.013  0.00  0.00     0.091 A 
ATOM      8  O   UNL d   1      32.319  15.453 -23.230  0.00  0.00    -0.265 OA
ATOM      9  C   UNL d   1      29.887  17.343 -24.613  0.00  0.00     0.008 A 
ATOM     10  C   UNL d   1      29.877  15.795 -24.042  0.00  0.00     0.020 A 
ATOM     11  C   UNL d   1      29.182  16.122 -24.358  0.00  0.00     0.002 A 
ATOM     12  C   UNL d   1      29.187  16.896 -24.644  0.00  0.00     0.001 A 
ENDROOT
BRANCH   4  13
ATOM     13  C   UNL d   1      32.299  18.123 -24.225  0.00  0.00     0.006 A 
ATOM     14  C   UNL d   1      32.554  18.326 -24.976  0.00  0.00     0.001 A 
ATOM     15  C   UNL d   1      33.023  18.987 -25.090  0.00  0.00     0.000 A 
ATOM     16  C   UNL d   1      33.240  19.452 -24.445  0.00  0.00     0.000 A 
ATOM     17  C   UNL d   1      32.982  19.249 -23.679  0.00  0.00     0.000 A 
ATOM     18  C   UNL d   1      32.510  18.583 -23.570  0.00  0.00     0.001 A 
ENDBRANCH   4  13
TORSDOF 1
ENDMDL
MODEL 3
REMARK VINA RESULT:      -2.9      1.804      3.677
REMARK  1 active torsions:
REMARK  status: ('A' for Active; 'I' for Inactive)
REMARK    1  A    between atoms: C_9  and  C_4 
ROOT
ATOM      1  S   UNL d   1      30.914  17.082 -24.431  0.00  0.00    -0.085 SA
ATOM      2  N   UNL d   1      32.519  16.642 -23.711  0.00  0.00    -0.207 NA
ATOM      3  C   UNL d   1      32.072  16.022 -23.443  0.00  0.00     0.280 A 
ATOM      4  C   UNL d   1      30.718  16.392 -24.051  0.00  0.00     0.034 A 
ATOM      5  C   UNL d   1      31.239  15.903 -23.599  0.00  0.00     0.069 A 
ATOM      6  C   UNL d   1      31.542  17.374 -24.442  0.00  0.00     0.047 A 
ATOM      7  C   UNL d   1      32.277  17.183 -24.118  0.00  0.00     0.091 A 
ATOM      8  O   UNL d   1      32.452  15.457 -22.982  0.00  0.00    -0.265 OA
ATOM      9  C   UNL d   1      31.455  18.055 -24.895  0.00  0.00     0.008 A 
ATOM     10  C   UNL d   1      32.924  17.674 -24.249  0.00  0.00     0.020 A 
ATOM     11  C   UNL d   1      32.841  18.362 -24.706  0.00  0.00     0.002 A 
ATOM     12  C   UNL d   1      32.106  18.553 -25.029  0.00  0.00     0.001 A 
ENDROOT
BRANCH   4  13
ATOM     13  C   UNL d   1      29.929  16.147 -24.114  0.00  0.00     0.006 A 
ATOM     14  C   UNL d   1      29.386  16.344 -23.533  0.00  0.00     0.001 A 
ATOM     15  C   UNL d   1      28.607  16.101 -23.595  0.00  0.00     0.000 A 
ATOM     16  C   UNL d   1      28.367  15.657 -24.246  0.00  0.00     0.000 A 
ATOM     17  C   UNL d   1      28.916  15.455 -24.840  0.00  0.00     0.000 A 
ATOM     18  C   UNL d   1      29.699  15.701 -24.772  0.00  0.00     0.001 A 
ENDBRANCH   4  13
TORSDOF 1
ENDMDL
MODEL 4
REMARK VINA RESULT:      -2.3      4.945      6.181
REMARK  1 active torsions:
REMARK  status: ('A' for Active; 'I' for Inactive)
REMARK    1  A    between atoms: C_9  and  C_4 
ROOT
ATOM      1  S   UNL d   1      32.843  20.975 -21.675  0.00  0.00    -0.085 SA
ATOM      2  N   UNL d   1      33.199  21.147 -23.445  0.00  0.00    -0.207 NA
ATOM      3  C   UNL d   1      33.135  21.928 -23.239  0.00  0.00     0.280 A 
ATOM      4  C   UNL d   1      32.835  21.783 -21.747  0.00  0.00     0.034 A 
ATOM      5  C   UNL d   1      32.966  22.226 -22.455  0.00  0.00     0.069 A 
ATOM      6  C   UNL d   1      32.961  20.524 -22.188  0.00  0.00     0.047 A 
ATOM      7  C   UNL d   1      33.124  20.591 -22.994  0.00  0.00     0.091 A 
ATOM      8  O   UNL d   1      33.241  22.483 -23.837  0.00  0.00    -0.265 OA
ATOM      9  C   UNL d   1      32.911  19.782 -21.837  0.00  0.00     0.008 A 
ATOM     10  C   UNL d   1      33.236  19.915 -23.449  0.00  0.00     0.020 A 
ATOM     11  C   UNL d   1      33.187  19.164 -23.100  0.00  0.00     0.002 A 
ATOM     12  C   UNL d   1      33.024  19.097 -22.294  0.00  0.00     0.001 A 
ENDROOT
BRANCH   4  13
ATOM     13  C   UNL d   1      32.681  22.214 -21.055  0.00  0.00     0.006 A 
ATOM     14  C   UNL d   1      33.239  22.248 -20.457  0.00  0.00     0.001 A 
ATOM     15  C   UNL d   1      33.088  22.673 -19.774  0.00  0.00     0.000 A 
ATOM     16  C   UNL d   1      32.370  23.069 -19.688  0.00  0.00     0.000 A 
ATOM     17  C   UNL d   1      31.800  23.036 -20.295  0.00  0.00     0.000 A 
ATOM     18  C   UNL d   1      31.957  22.607 -20.980  0.00  0.00     0.001 A 
ENDBRANCH   4  13
TORSDOF 1
ENDMDL
MODEL 5
REMARK VINA RESULT:      -2.0      2.823      4.457
REMARK  1 active torsions:
REMARK  status: ('A' for Active; 'I' for Inactive)
REMARK    1  A    between atoms: C_9  and  C_4 
ROOT
ATOM      1  S   UNL d   1      32.763  18.883 -24.031  0.00  0.00    -0.085 SA
ATOM      2  N   UNL d   1      33.191  20.097 -22.753  0.00  0.00    -0.207 NA
ATOM      3  C   UNL d   1      33.109  19.434 -22.294  0.00  0.00     0.280 A 
ATOM      4  C   UNL d   1      32.749  18.411 -23.371  0.00  0.00     0.034 A 
ATOM      5  C   UNL d   1      32.905  18.653 -22.576  0.00  0.00     0.069 A 
ATOM      6  C   UNL d   1      32.907  19.561 -24.040  0.00  0.00     0.047 A 
ATOM      7  C   UNL d   1      33.102  20.121 -23.466  0.00  0.00     0.091 A 
ATOM      8  O   UNL d   1      33.234  19.521 -21.485  0.00  0.00    -0.265 OA
ATOM      9  C   UNL d   1      32.851  19.782 -24.831  0.00  0.00     0.008 A 
ATOM     10  C   UNL d   1      33.241  20.902 -23.684  0.00  0.00     0.020 A 
ATOM     11  C   UNL d   1      33.185  21.130 -24.480  0.00  0.00     0.002 A 
ATOM     12  C   UNL d   1      32.990  20.570 -25.054  0.00  0.00     0.001 A 
ENDROOT
BRANCH   4  13
ATOM     13  C   UNL d   1      32.562  17.612 -23.493  0.00  0.00     0.006 A 
ATOM     14  C   UNL d   1      31.781  17.375 -23.553  0.00  0.00     0.001 A 
ATOM     15  C   UNL d   1      31.595  16.587 -23.674  0.00  0.00     0.000 A 
ATOM     16  C   UNL d   1      32.199  16.029 -23.734  0.00  0.00     0.000 A 
ATOM     17  C   UNL d   1      32.996  16.267 -23.673  0.00  0.00     0.000 A 
ATOM     18  C   UNL d   1      33.176  17.061 -23.552  0.00  0.00     0.001 A 
ENDBRANCH   4  13
TORSDOF 1
ENDMDL
MODEL 6
REMARK VINA RESULT:      -2.0      6.166      7.473
REMARK  1 active torsions:
REMARK  status: ('A' for Active; 'I' for Inactive)
REMARK    1  A    between atoms: C_9  and  C_4 
ROOT
ATOM      1  S   UNL d   1      32.919  22.814 -21.221  0.00  0.00    -0.085 SA
ATOM      2  N   UNL d   1      32.965  21.188 -22.021  0.00  0.00    -0.207 NA
ATOM      3  C   UNL d   1      32.876  20.961 -21.248  0.00  0.00     0.280 A 
ATOM      4  C   UNL d   1      32.837  22.332 -20.574  0.00  0.00     0.034 A 
ATOM      5  C   UNL d   1      32.817  21.487 -20.577  0.00  0.00     0.069 A 
ATOM      6  C   UNL d   1      32.984  22.603 -21.878  0.00  0.00     0.047 A 
ATOM      7  C   UNL d   1      33.006  21.868 -22.252  0.00  0.00     0.091 A 
ATOM      8  O   UNL d   1      32.840  20.153 -21.097  0.00  0.00    -0.265 OA
ATOM      9  C   UNL d   1      33.049  23.293 -22.321  0.00  0.00     0.008 A 
ATOM     10  C   UNL d   1      33.093  21.823 -23.068  0.00  0.00     0.020 A 
ATOM     11  C   UNL d   1      33.158  22.517 -23.520  0.00  0.00     0.002 A 
ATOM     12  C   UNL d   1      33.136  23.252 -23.146  0.00  0.00     0.001 A 
ENDROOT
BRANCH   4  13
ATOM     13  C   UNL d   1      32.767  22.710 -19.839  0.00  0.00     0.006 A 
ATOM     14  C   UNL d   1      33.241  22.482 -19.210  0.00  0.00     0.001 A 
ATOM     15  C   UNL d   1      33.173  22.854 -18.484  0.00  0.00     0.000 A 
ATOM     16  C   UNL d   1      32.624  23.461 -18.385  0.00  0.00     0.000 A 
ATOM     17  C   UNL d   1      32.140  23.695 -19.023  0.00  0.00     0.000 A 
ATOM     18  C   UNL d   1      32.214  23.317 -19.751  0.00  0.00     0.001 A 
ENDBRANCH   4  13
TORSDOF 1
ENDMDL
MODEL 7
REMARK VINA RESULT:      -1.8      4.711      6.002
REMARK  1 active torsions:
REMARK  status: ('A' for Active; 'I' for Inactive)
REMARK    1  A    between atoms: C_9  and  C_4 
ROOT
ATOM      1  S   UNL d   1      32.837  20.944 -22.351  0.00  0.00    -0.085 SA
ATOM      2  N   UNL d   1      33.197  19.477 -21.348  0.00  0.00    -0.207 NA
ATOM      3  C   UNL d   1      33.133  20.033 -20.763  0.00  0.00     0.280 A 
ATOM      4  C   UNL d   1      32.830  21.271 -21.608  0.00  0.00     0.034 A 
ATOM      5  C   UNL d   1      32.963  20.863 -20.879  0.00  0.00     0.069 A 
ATOM      6  C   UNL d   1      32.956  20.277 -22.499  0.00  0.00     0.047 A 
ATOM      7  C   UNL d   1      33.120  19.604 -22.052  0.00  0.00     0.091 A 
ATOM      8  O   UNL d   1      33.241  19.777 -19.989  0.00  0.00    -0.265 OA
ATOM      9  C   UNL d   1      32.904  20.227 -23.319  0.00  0.00     0.008 A 
ATOM     10  C   UNL d   1      33.233  18.879 -22.425  0.00  0.00     0.020 A 
ATOM     11  C   UNL d   1      33.182  18.823 -23.252  0.00  0.00     0.002 A 
ATOM     12  C   UNL d   1      33.017  19.497 -23.699  0.00  0.00     0.001 A 
ENDROOT
BRANCH   4  13
ATOM     13  C   UNL d   1      32.675  22.084 -21.564  0.00  0.00     0.006 A 
ATOM     14  C   UNL d   1      31.993  22.356 -21.201  0.00  0.00     0.001 A 
ATOM     15  C   UNL d   1      31.840  23.159 -21.157  0.00  0.00     0.000 A 
ATOM     16  C   UNL d   1      32.375  23.697 -21.480  0.00  0.00     0.000 A 
ATOM     17  C   UNL d   1      33.070  23.423 -21.850  0.00  0.00     0.000 A 
ATOM     18  C   UNL d   1      33.219  22.614 -21.892  0.00  0.00     0.001 A 
ENDBRANCH   4  13
TORSDOF 1
ENDMDL
MODEL 8
REMARK VINA RESULT:      -1.7      3.286      4.726
REMARK  1 active torsions:
REMARK  status: ('A' for Active; 'I' for Inactive)
REMARK    1  A    between atoms: C_9  and  C_4 
ROOT
ATOM      1  S   UNL d   1      32.967  19.514 -22.526  0.00  0.00    -0.085 SA
ATOM      2  N   UNL d   1      33.214  21.132 -23.307  0.00  0.00    -0.207 NA
ATOM      3  C   UNL d   1      33.168  20.664 -23.967  0.00  0.00     0.280 A 
ATOM      4  C   UNL d   1      32.960  19.300 -23.308  0.00  0.00     0.034 A 
ATOM      5  C   UNL d   1      33.051  19.817 -23.971  0.00  0.00     0.069 A 
ATOM      6  C   UNL d   1      33.049  20.158 -22.283  0.00  0.00     0.047 A 
ATOM      7  C   UNL d   1      33.162  20.899 -22.629  0.00  0.00     0.091 A 
ATOM      8  O   UNL d   1      33.241  21.037 -24.697  0.00  0.00    -0.265 OA
ATOM      9  C   UNL d   1      33.016  20.085 -21.464  0.00  0.00     0.008 A 
ATOM     10  C   UNL d   1      33.241  21.567 -22.155  0.00  0.00     0.020 A 
ATOM     11  C   UNL d   1      33.207  21.498 -21.328  0.00  0.00     0.002 A 
ATOM     12  C   UNL d   1      33.095  20.758 -20.983  0.00  0.00     0.001 A 
ENDROOT
BRANCH   4  13
ATOM     13  C   UNL d   1      32.853  18.494 -23.469  0.00  0.00     0.006 A 
ATOM     14  C   UNL d   1      33.219  17.927 -23.005  0.00  0.00     0.001 A 
ATOM     15  C   UNL d   1      33.114  17.131 -23.164  0.00  0.00     0.000 A 
ATOM     16  C   UNL d   1      32.637  16.898 -23.795  0.00  0.00     0.000 A 
ATOM     17  C   UNL d   1      32.263  17.473 -24.269  0.00  0.00     0.000 A 
ATOM     18  C   UNL d   1      32.372  18.272 -24.104  0.00  0.00     0.001 A 
ENDBRANCH   4  13
TORSDOF 1
ENDMDL
MODEL 9
REMARK VINA RESULT:      -1.6      3.483      4.722
REMARK  1 active torsions:
REMARK  status: ('A' for Active; 'I' for Inactive)
REMARK    1  A    between atoms: C_9  and  C_4 
ROOT
ATOM      1  S   UNL d   1      32.989  19.117 -22.592  0.00  0.00    -0.085 SA
ATOM      2  N   UNL d   1      33.183  19.336 -24.381  0.00  0.00    -0.207 NA
ATOM      3  C   UNL d   1      33.169  20.112 -24.147  0.00  0.00     0.280 A 
ATOM      4  C   UNL d   1      33.006  19.927 -22.638  0.00  0.00     0.034 A 
ATOM      5  C   UNL d   1      33.088  20.389 -23.342  0.00  0.00     0.069 A 
ATOM      6  C   UNL d   1      33.040  18.681 -23.127  0.00  0.00     0.047 A 
ATOM      7  C   UNL d   1      33.128  18.769 -23.943  0.00  0.00     0.091 A 
ATOM      8  O   UNL d   1      33.240  20.682 -24.735  0.00  0.00    -0.265 OA
ATOM      9  C   UNL d   1      32.993  17.928 -22.796  0.00  0.00     0.008 A 
ATOM     10  C   UNL d   1      33.169  18.105 -24.427  0.00  0.00     0.020 A 
ATOM     11  C   UNL d   1      33.123  17.344 -24.098  0.00  0.00     0.002 A 
ATOM     12  C   UNL d   1      33.035  17.256 -23.282  0.00  0.00     0.001 A 
ENDROOT
BRANCH   4  13
ATOM     13  C   UNL d   1      32.936  20.339 -21.922  0.00  0.00     0.006 A 
ATOM     14  C   UNL d   1      33.241  20.023 -21.231  0.00  0.00     0.001 A 
ATOM     15  C   UNL d   1      33.172  20.429 -20.523  0.00  0.00     0.000 A 
ATOM     16  C   UNL d   1      32.794  21.162 -20.507  0.00  0.00     0.000 A 
ATOM     17  C   UNL d   1      32.482  21.487 -21.209  0.00  0.00     0.000 A 
ATOM     18  C   UNL d   1      32.555  21.073 -21.917  0.00  0.00     0.001 A 
ENDBRANCH   4  13
TORSDOF 1
ENDMDL
