MODEL 1
REMARK VINA RESULT:      -6.4      0.000      0.000
REMARK  4 active torsions:
REMARK  status: ('A' for Active; 'I' for Inactive)
REMARK    1  A    between atoms: C_2  and  S_1 
REMARK    2  A    between atoms: N_3  and  S_1 
REMARK    3  A    between atoms: C_4  and  C_6 
REMARK       I    between atoms: N_5  and  C_4 
REMARK    4  A    between atoms: C_11  and  N_8 
ROOT
ATOM      1  C   UNL d   1     -49.141  13.221  22.498  0.00  0.00     0.104 A 
ATOM      2  C   UNL d   1     -48.139  12.221  22.648  0.00  0.00     0.057 A 
ATOM      3  C   UNL d   1     -48.497  12.921  22.907  0.00  0.00     0.018 A 
ATOM      4  C   UNL d   1     -49.436  12.837  21.835  0.00  0.00     0.012 A 
ATOM      5  C   UNL d   1     -48.430  11.830  21.983  0.00  0.00     0.005 A 
ATOM      6  C   UNL d   1     -49.078  12.138  21.576  0.00  0.00     0.001 A 
ATOM      7  C   UNL d   1     -50.081  13.137  21.426  0.00  0.00     0.001 C 
ENDROOT
BRANCH   2   8
ATOM      8  C   UNL d   1     -47.489  11.906  23.048  0.00  0.00     0.265 C 
ATOM      9  N   UNL d   1     -46.728  12.087  22.785  0.00  0.00    -0.269 N 
ATOM     10  C   UNL d   1     -46.081  11.777  23.179  0.00  0.00     0.102 A 
ATOM     11  C   UNL d   1     -46.630  12.578  22.128  0.00  0.00     0.102 A 
ATOM     12  C   UNL d   1     -45.320  11.957  22.916  0.00  0.00     0.100 A 
ATOM     13  N   UNL d   1     -45.214  12.447  22.260  0.00  0.00    -0.301 N 
ATOM     14  C   UNL d   1     -45.869  12.756  21.868  0.00  0.00     0.100 A 
ATOM     15  O   UNL d   1     -47.602  11.422  23.698  0.00  0.00    -0.267 OA
BRANCH  13  16
ATOM     16  C   UNL d   1     -44.453  12.628  21.997  0.00  0.00     0.064 A 
ATOM     17  C   UNL d   1     -44.310  13.345  21.611  0.00  0.00     0.020 A 
ATOM     18  C   UNL d   1     -43.549  13.525  21.348  0.00  0.00     0.031 A 
ATOM     19  C   UNL d   1     -42.929  12.995  21.468  0.00  0.00     0.140 A 
ATOM     20  C   UNL d   1     -43.077  12.272  21.858  0.00  0.00     0.031 A 
ATOM     21  F   UNL d   1     -42.168  13.175  21.205  0.00  0.00    -0.204 F 
ATOM     22  C   UNL d   1     -43.838  12.091  22.121  0.00  0.00     0.020 A 
ENDBRANCH  13  16
ENDBRANCH   2   8
BRANCH   1  23
ATOM     23  S   UNL d   1     -49.499  13.920  22.757  0.00  0.00     0.271 S 
ATOM     24  O   UNL d   1     -49.265  14.298  22.061  0.00  0.00    -0.200 OA
ATOM     25  O   UNL d   1     -49.769  13.485  23.560  0.00  0.00    -0.200 OA
BRANCH  23  26
ATOM     26  N   UNL d   1     -49.873  14.586  23.068  0.00  0.00    -0.229 N 
ATOM     27  C   UNL d   1     -50.683  14.565  23.204  0.00  0.00     0.092 A 
ATOM     28  C   UNL d   1     -51.063  15.233  23.516  0.00  0.00     0.020 A 
ATOM     29  C   UNL d   1     -50.622  15.905  23.684  0.00  0.00     0.003 A 
ATOM     30  C   UNL d   1     -49.818  15.921  23.547  0.00  0.00     0.020 A 
ATOM     31  C   UNL d   1     -49.441  15.266  23.240  0.00  0.00     0.092 A 
ENDBRANCH  23  26
ENDBRANCH   1  23
TORSDOF 4
ENDMDL
MODEL 2
REMARK VINA RESULT:      -3.9      1.560      2.561
REMARK  4 active torsions:
REMARK  status: ('A' for Active; 'I' for Inactive)
REMARK    1  A    between atoms: C_2  and  S_1 
REMARK    2  A    between atoms: N_3  and  S_1 
REMARK    3  A    between atoms: C_4  and  C_6 
REMARK       I    between atoms: N_5  and  C_4 
REMARK    4  A    between atoms: C_11  and  N_8 
ROOT
ATOM      1  C   UNL d   1     -47.388  13.270  22.528  0.00  0.00     0.104 A 
ATOM      2  C   UNL d   1     -46.011  12.984  22.743  0.00  0.00     0.057 A 
ATOM      3  C   UNL d   1     -46.762  12.741  22.499  0.00  0.00     0.018 A 
ATOM      4  C   UNL d   1     -47.279  14.038  22.797  0.00  0.00     0.012 A 
ATOM      5  C   UNL d   1     -45.893  13.754  23.014  0.00  0.00     0.005 A 
ATOM      6  C   UNL d   1     -46.527  14.281  23.041  0.00  0.00     0.001 A 
ATOM      7  C   UNL d   1     -47.905  14.567  22.826  0.00  0.00     0.001 C 
ENDROOT
BRANCH   2   8
ATOM      8  C   UNL d   1     -45.370  12.464  22.720  0.00  0.00     0.265 C 
ATOM      9  N   UNL d   1     -44.683  12.689  22.322  0.00  0.00    -0.269 N 
ATOM     10  C   UNL d   1     -44.046  12.176  22.296  0.00  0.00     0.102 A 
ATOM     11  C   UNL d   1     -44.648  13.429  21.956  0.00  0.00     0.102 A 
ATOM     12  C   UNL d   1     -43.358  12.401  21.899  0.00  0.00     0.100 A 
ATOM     13  N   UNL d   1     -43.316  13.140  21.530  0.00  0.00    -0.301 N 
ATOM     14  C   UNL d   1     -43.961  13.651  21.561  0.00  0.00     0.100 A 
ATOM     15  O   UNL d   1     -45.420  11.734  23.087  0.00  0.00    -0.267 OA
BRANCH  13  16
ATOM     16  C   UNL d   1     -42.628  13.365  21.133  0.00  0.00     0.064 A 
ATOM     17  C   UNL d   1     -42.002  13.704  21.554  0.00  0.00     0.020 A 
ATOM     18  C   UNL d   1     -41.316  13.929  21.156  0.00  0.00     0.031 A 
ATOM     19  C   UNL d   1     -41.248  13.819  20.341  0.00  0.00     0.140 A 
ATOM     20  C   UNL d   1     -41.883  13.476  19.920  0.00  0.00     0.031 A 
ATOM     21  F   UNL d   1     -40.562  14.044  19.943  0.00  0.00    -0.204 F 
ATOM     22  C   UNL d   1     -42.570  13.251  20.318  0.00  0.00     0.020 A 
ENDBRANCH  13  16
ENDBRANCH   2   8
BRANCH   1  23
ATOM     23  S   UNL d   1     -48.140  13.026  22.284  0.00  0.00     0.271 S 
ATOM     24  O   UNL d   1     -47.952  13.228  21.505  0.00  0.00    -0.200 OA
ATOM     25  O   UNL d   1     -48.357  12.794  23.181  0.00  0.00    -0.200 OA
BRANCH  23  26
ATOM     26  N   UNL d   1     -48.902  12.769  22.100  0.00  0.00    -0.229 N 
ATOM     27  C   UNL d   1     -49.286  12.254  22.613  0.00  0.00     0.092 A 
ATOM     28  C   UNL d   1     -50.051  11.993  22.432  0.00  0.00     0.020 A 
ATOM     29  C   UNL d   1     -50.414  12.254  21.742  0.00  0.00     0.003 A 
ATOM     30  C   UNL d   1     -50.029  12.766  21.237  0.00  0.00     0.020 A 
ATOM     31  C   UNL d   1     -49.275  13.025  21.412  0.00  0.00     0.092 A 
ENDBRANCH  23  26
ENDBRANCH   1  23
TORSDOF 4
ENDMDL
MODEL 3
REMARK VINA RESULT:      -3.4      5.820      9.235
REMARK  4 active torsions:
REMARK  status: ('A' for Active; 'I' for Inactive)
REMARK    1  A    between atoms: C_2  and  S_1 
REMARK    2  A    between atoms: N_3  and  S_1 
REMARK    3  A    between atoms: C_4  and  C_6 
REMARK       I    between atoms: N_5  and  C_4 
REMARK    4  A    between atoms: C_11  and  N_8 
ROOT
ATOM      1  C   UNL d   1     -39.815  14.980  17.801  0.00  0.00     0.104 A 
ATOM      2  C   UNL d   1     -40.272  15.195  19.132  0.00  0.00     0.057 A 
ATOM      3  C   UNL d   1     -39.770  14.808  18.601  0.00  0.00     0.018 A 
ATOM      4  C   UNL d   1     -40.353  15.533  17.520  0.00  0.00     0.012 A 
ATOM      5  C   UNL d   1     -40.814  15.752  18.857  0.00  0.00     0.005 A 
ATOM      6  C   UNL d   1     -40.855  15.921  18.050  0.00  0.00     0.001 A 
ATOM      7  C   UNL d   1     -40.399  15.707  16.719  0.00  0.00     0.001 C 
ENDROOT
BRANCH   2   8
ATOM      8  C   UNL d   1     -40.238  15.032  19.941  0.00  0.00     0.265 C 
ATOM      9  N   UNL d   1     -40.830  14.571  20.283  0.00  0.00    -0.269 N 
ATOM     10  C   UNL d   1     -40.801  14.406  21.085  0.00  0.00     0.102 A 
ATOM     11  C   UNL d   1     -41.445  14.282  19.813  0.00  0.00     0.102 A 
ATOM     12  C   UNL d   1     -41.393  13.945  21.427  0.00  0.00     0.100 A 
ATOM     13  N   UNL d   1     -42.011  13.653  20.963  0.00  0.00    -0.301 N 
ATOM     14  C   UNL d   1     -42.034  13.822  20.158  0.00  0.00     0.100 A 
ATOM     15  O   UNL d   1     -39.623  15.325  20.394  0.00  0.00    -0.267 OA
BRANCH  13  16
ATOM     16  C   UNL d   1     -42.604  13.192  21.306  0.00  0.00     0.064 A 
ATOM     17  C   UNL d   1     -42.401  12.518  21.740  0.00  0.00     0.020 A 
ATOM     18  C   UNL d   1     -42.994  12.058  22.082  0.00  0.00     0.031 A 
ATOM     19  C   UNL d   1     -43.787  12.264  21.995  0.00  0.00     0.140 A 
ATOM     20  C   UNL d   1     -43.988  12.945  21.555  0.00  0.00     0.031 A 
ATOM     21  F   UNL d   1     -44.380  11.804  22.337  0.00  0.00    -0.204 F 
ATOM     22  C   UNL d   1     -43.395  13.406  21.213  0.00  0.00     0.020 A 
ENDBRANCH  13  16
ENDBRANCH   2   8
BRANCH   1  23
ATOM     23  S   UNL d   1     -39.314  14.593  17.270  0.00  0.00     0.271 S 
ATOM     24  O   UNL d   1     -38.806  15.245  17.274  0.00  0.00    -0.200 OA
ATOM     25  O   UNL d   1     -39.898  13.842  17.266  0.00  0.00    -0.200 OA
BRANCH  23  26
ATOM     26  N   UNL d   1     -38.854  14.158  16.742  0.00  0.00    -0.229 N 
ATOM     27  C   UNL d   1     -38.603  13.404  16.955  0.00  0.00     0.092 A 
ATOM     28  C   UNL d   1     -38.140  12.963  16.427  0.00  0.00     0.020 A 
ATOM     29  C   UNL d   1     -37.940  13.288  15.699  0.00  0.00     0.003 A 
ATOM     30  C   UNL d   1     -38.190  14.036  15.493  0.00  0.00     0.020 A 
ATOM     31  C   UNL d   1     -38.646  14.472  16.010  0.00  0.00     0.092 A 
ENDBRANCH  23  26
ENDBRANCH   1  23
TORSDOF 4
ENDMDL
