MODEL 1
REMARK VINA RESULT:      -2.3      0.000      0.000
REMARK  4 active torsions:
REMARK  status: ('A' for Active; 'I' for Inactive)
REMARK    1  A    between atoms: N_7  and  C_1 
REMARK    2  A    between atoms: C_11  and  C_2 
REMARK    3  A    between atoms: N_6  and  C_12 
REMARK       I    between atoms: C_8  and  N_7 
REMARK    4  A    between atoms: C_14  and  C_8 
REMARK       I    between atoms: N_26  and  C_11 
ROOT
ATOM      1  N   UNL d   1      56.690   0.680  32.758  0.00  0.00    -0.201 NA
ATOM      2  C   UNL d   1      56.584  -0.174  32.232  0.00  0.00     0.280 C 
ATOM      3  O   UNL d   1      56.164  -0.753  32.282  0.00  0.00    -0.265 OA
ENDROOT
BRANCH   1   4
ATOM      4  C   UNL d   1      56.185   0.679  33.347  0.00  0.00     0.119 A 
ATOM      5  C   UNL d   1      56.088   0.676  34.152  0.00  0.00     0.082 A 
ATOM      6  C   UNL d   1      55.280   0.677  34.314  0.00  0.00     0.013 A 
ATOM      7  C   UNL d   1      54.858   0.676  35.021  0.00  0.00     0.001 A 
ATOM      8  C   UNL d   1      54.881   0.680  33.587  0.00  0.00     0.031 A 
ATOM      9  C   UNL d   1      54.029   0.677  35.009  0.00  0.00     0.000 A 
ATOM     10  C   UNL d   1      53.637   0.680  34.283  0.00  0.00     0.001 A 
ATOM     11  C   UNL d   1      54.056   0.682  33.579  0.00  0.00     0.006 A 
ATOM     12  C   UNL d   1      52.810   0.682  34.263  0.00  0.00     0.000 C 
ATOM     13  S   UNL d   1      55.439   0.681  32.991  0.00  0.00    -0.068 SA
BRANCH   5  14
ATOM     14  C   UNL d   1      56.698   0.674  34.707  0.00  0.00     0.281 C 
ATOM     15  O   UNL d   1      56.530   0.664  35.514  0.00  0.00    -0.265 OA
ATOM     16  N   UNL d   1      57.485   0.681  34.451  0.00  0.00    -0.205 NA
ATOM     17  C   UNL d   1      58.100   0.678  35.000  0.00  0.00     0.123 C 
ENDBRANCH   5  14
ENDBRANCH   1   4
BRANCH   2  18
ATOM     18  C   UNL d   1      57.103  -0.217  31.593  0.00  0.00     0.058 A 
ATOM     19  C   UNL d   1      57.311   0.465  31.182  0.00  0.00     0.006 A 
ATOM     20  C   UNL d   1      57.826   0.422  30.549  0.00  0.00     0.018 A 
ATOM     21  C   UNL d   1      58.145  -0.290  30.309  0.00  0.00     0.070 A 
ATOM     22  C   UNL d   1      57.938  -0.988  30.723  0.00  0.00     0.018 A 
ATOM     23  C   UNL d   1      57.425  -0.958  31.357  0.00  0.00     0.006 A 
BRANCH  21  24
ATOM     24  N   UNL d   1      58.664  -0.329  29.670  0.00  0.00    -0.242 N 
ATOM     25  C   UNL d   1      59.479  -0.178  29.722  0.00  0.00     0.267 A 
ATOM     26  C   UNL d   1      59.813  -0.271  28.966  0.00  0.00     0.066 A 
ATOM     27  O   UNL d   1      59.903   0.036  30.426  0.00  0.00    -0.267 OA
ATOM     28  C   UNL d   1      59.201  -0.478  28.459  0.00  0.00     0.066 A 
ATOM     29  C   UNL d   1      58.504  -0.514  28.882  0.00  0.00     0.267 A 
ATOM     30  O   UNL d   1      57.757  -0.704  28.576  0.00  0.00    -0.267 OA
ENDBRANCH  21  24
ENDBRANCH   2  18
TORSDOF 4
ENDMDL
MODEL 2
REMARK VINA RESULT:      -2.2      1.488      5.843
REMARK  4 active torsions:
REMARK  status: ('A' for Active; 'I' for Inactive)
REMARK    1  A    between atoms: N_7  and  C_1 
REMARK    2  A    between atoms: C_11  and  C_2 
REMARK    3  A    between atoms: N_6  and  C_12 
REMARK       I    between atoms: C_8  and  N_7 
REMARK    4  A    between atoms: C_14  and  C_8 
REMARK       I    between atoms: N_26  and  C_11 
ROOT
ATOM      1  N   UNL d   1      58.104  -0.875  31.083  0.00  0.00    -0.201 NA
ATOM      2  C   UNL d   1      57.639   0.019  31.125  0.00  0.00     0.280 C 
ATOM      3  O   UNL d   1      57.637   0.610  30.719  0.00  0.00    -0.265 OA
ENDROOT
BRANCH   1   4
ATOM      4  C   UNL d   1      58.557  -0.896  30.454  0.00  0.00     0.119 A 
ATOM      5  C   UNL d   1      58.747  -1.292  29.772  0.00  0.00     0.082 A 
ATOM      6  C   UNL d   1      59.356  -0.882  29.396  0.00  0.00     0.013 A 
ATOM      7  C   UNL d   1      59.766  -1.021  28.697  0.00  0.00     0.001 A 
ATOM      8  C   UNL d   1      59.536  -0.222  29.864  0.00  0.00     0.031 A 
ATOM      9  C   UNL d   1      60.363  -0.500  28.456  0.00  0.00     0.000 A 
ATOM     10  C   UNL d   1      60.539   0.156  28.925  0.00  0.00     0.001 A 
ATOM     11  C   UNL d   1      60.131   0.295  29.621  0.00  0.00     0.006 A 
ATOM     12  C   UNL d   1      61.133   0.681  28.691  0.00  0.00     0.000 C 
ATOM     13  S   UNL d   1      59.043  -0.230  30.516  0.00  0.00    -0.068 SA
BRANCH   5  14
ATOM     14  C   UNL d   1      58.388  -1.986  29.508  0.00  0.00     0.281 C 
ATOM     15  O   UNL d   1      57.651  -1.962  29.138  0.00  0.00    -0.265 OA
ATOM     16  N   UNL d   1      58.771  -2.711  29.614  0.00  0.00    -0.205 NA
ATOM     17  C   UNL d   1      58.419  -3.410  29.351  0.00  0.00     0.123 C 
ENDBRANCH   5  14
ENDBRANCH   1   4
BRANCH   2  18
ATOM     18  C   UNL d   1      57.145   0.086  31.782  0.00  0.00     0.058 A 
ATOM     19  C   UNL d   1      57.328   0.612  32.386  0.00  0.00     0.006 A 
ATOM     20  C   UNL d   1      56.838   0.678  33.037  0.00  0.00     0.018 A 
ATOM     21  C   UNL d   1      56.160   0.227  33.104  0.00  0.00     0.070 A 
ATOM     22  C   UNL d   1      55.968  -0.311  32.492  0.00  0.00     0.018 A 
ATOM     23  C   UNL d   1      56.450  -0.385  31.838  0.00  0.00     0.006 A 
BRANCH  21  24
ATOM     24  N   UNL d   1      55.669   0.297  33.762  0.00  0.00    -0.242 N 
ATOM     25  C   UNL d   1      55.942   0.336  34.545  0.00  0.00     0.267 A 
ATOM     26  C   UNL d   1      55.284   0.403  35.051  0.00  0.00     0.066 A 
ATOM     27  O   UNL d   1      56.753   0.311  34.793  0.00  0.00    -0.267 OA
ATOM     28  C   UNL d   1      54.616   0.405  34.573  0.00  0.00     0.066 A 
ATOM     29  C   UNL d   1      54.845   0.341  33.792  0.00  0.00     0.267 A 
ATOM     30  O   UNL d   1      54.339   0.323  33.136  0.00  0.00    -0.267 OA
ENDBRANCH  21  24
ENDBRANCH   2  18
TORSDOF 4
ENDMDL
MODEL 3
REMARK VINA RESULT:      -1.3      1.697      5.944
REMARK  4 active torsions:
REMARK  status: ('A' for Active; 'I' for Inactive)
REMARK    1  A    between atoms: N_7  and  C_1 
REMARK    2  A    between atoms: C_11  and  C_2 
REMARK    3  A    between atoms: N_6  and  C_12 
REMARK       I    between atoms: C_8  and  N_7 
REMARK    4  A    between atoms: C_14  and  C_8 
REMARK       I    between atoms: N_26  and  C_11 
ROOT
ATOM      1  N   UNL d   1      57.633  -1.158  30.604  0.00  0.00    -0.201 NA
ATOM      2  C   UNL d   1      57.979  -0.440  31.222  0.00  0.00     0.280 C 
ATOM      3  O   UNL d   1      58.588  -0.065  31.274  0.00  0.00    -0.265 OA
ENDROOT
BRANCH   1   4
ATOM      4  C   UNL d   1      58.176  -1.319  30.073  0.00  0.00     0.119 A 
ATOM      5  C   UNL d   1      58.595  -1.049  29.434  0.00  0.00     0.082 A 
ATOM      6  C   UNL d   1      59.109  -1.646  29.191  0.00  0.00     0.013 A 
ATOM      7  C   UNL d   1      59.660  -1.687  28.581  0.00  0.00     0.001 A 
ATOM      8  C   UNL d   1      58.996  -2.292  29.699  0.00  0.00     0.031 A 
ATOM      9  C   UNL d   1      60.106  -2.377  28.471  0.00  0.00     0.000 A 
ATOM     10  C   UNL d   1      59.990  -3.017  28.979  0.00  0.00     0.001 A 
ATOM     11  C   UNL d   1      59.442  -2.977  29.587  0.00  0.00     0.006 A 
ATOM     12  C   UNL d   1      60.431  -3.708  28.876  0.00  0.00     0.000 C 
ATOM     13  S   UNL d   1      58.421  -2.090  30.243  0.00  0.00    -0.068 SA
BRANCH   5  14
ATOM     14  C   UNL d   1      58.514  -0.303  29.090  0.00  0.00     0.281 C 
ATOM     15  O   UNL d   1      59.163   0.203  29.032  0.00  0.00    -0.265 OA
ATOM     16  N   UNL d   1      57.778  -0.063  28.802  0.00  0.00    -0.205 NA
ATOM     17  C   UNL d   1      57.689   0.682  28.457  0.00  0.00     0.123 C 
ENDBRANCH   5  14
ENDBRANCH   1   4
BRANCH   2  18
ATOM     18  C   UNL d   1      57.433  -0.237  31.804  0.00  0.00     0.058 A 
ATOM     19  C   UNL d   1      56.803  -0.737  31.974  0.00  0.00     0.006 A 
ATOM     20  C   UNL d   1      56.261  -0.534  32.552  0.00  0.00     0.018 A 
ATOM     21  C   UNL d   1      56.330   0.162  32.972  0.00  0.00     0.070 A 
ATOM     22  C   UNL d   1      56.969   0.677  32.804  0.00  0.00     0.018 A 
ATOM     23  C   UNL d   1      57.516   0.485  32.230  0.00  0.00     0.006 A 
BRANCH  21  24
ATOM     24  N   UNL d   1      55.781   0.362  33.553  0.00  0.00    -0.242 N 
ATOM     25  C   UNL d   1      54.975   0.493  33.407  0.00  0.00     0.267 A 
ATOM     26  C   UNL d   1      54.603   0.682  34.129  0.00  0.00     0.066 A 
ATOM     27  O   UNL d   1      54.590   0.444  32.653  0.00  0.00    -0.267 OA
ATOM     28  C   UNL d   1      55.186   0.664  34.708  0.00  0.00     0.066 A 
ATOM     29  C   UNL d   1      55.900   0.471  34.363  0.00  0.00     0.267 A 
ATOM     30  O   UNL d   1      56.626   0.396  34.756  0.00  0.00    -0.267 OA
ENDBRANCH  21  24
ENDBRANCH   2  18
TORSDOF 4
ENDMDL
