MODEL 1
REMARK VINA RESULT:      10.8      0.000      0.000
REMARK  3 active torsions:
REMARK  status: ('A' for Active; 'I' for Inactive)
REMARK    1  A    between atoms: C_4  and  C_1 
REMARK    2  A    between atoms: N_2  and  C_9 
REMARK       I    between atoms: N_7  and  C_4 
REMARK    3  A    between atoms: C_11  and  N_7 
ROOT
ATOM      1  C   UNL d   1      45.850 -16.136  44.351  0.00  0.00     0.087 A 
ATOM      2  S   UNL d   1      45.181 -15.837  44.732  0.00  0.00    -0.082 SA
ATOM      3  C   UNL d   1      46.287 -15.508  44.069  0.00  0.00     0.012 A 
ATOM      4  C   UNL d   1      45.897 -14.803  44.268  0.00  0.00     0.008 A 
ATOM      5  C   UNL d   1      45.193 -15.012  44.690  0.00  0.00     0.030 A 
ATOM      6  C   UNL d   1      45.570 -13.436  44.403  0.00  0.00     0.127 A 
ATOM      7  C   UNL d   1      46.069 -14.021  44.135  0.00  0.00     0.024 A 
ATOM      8  C   UNL d   1      44.701 -14.429  44.955  0.00  0.00     0.008 A 
ATOM      9  C   UNL d   1      44.866 -13.645  44.825  0.00  0.00     0.024 A 
ENDROOT
BRANCH   1  10
ATOM     10  C   UNL d   1      46.041 -16.935  44.272  0.00  0.00     0.286 C 
ATOM     11  N   UNL d   1      46.076 -17.288  43.529  0.00  0.00    -0.189 NA
ATOM     12  O   UNL d   1      46.202 -17.399  44.953  0.00  0.00    -0.265 OA
BRANCH  11  13
ATOM     13  C   UNL d   1      46.266 -18.086  43.432  0.00  0.00     0.166 A 
ATOM     14  N   UNL d   1      46.384 -18.375  42.657  0.00  0.00    -0.225 NA
ATOM     15  C   UNL d   1      46.574 -19.170  42.542  0.00  0.00     0.101 A 
ATOM     16  C   UNL d   1      46.647 -19.682  43.202  0.00  0.00     0.021 A 
ATOM     17  C   UNL d   1      46.530 -19.396  43.954  0.00  0.00     0.005 A 
ATOM     18  C   UNL d   1      46.338 -18.590  44.070  0.00  0.00     0.039 A 
ENDBRANCH  11  13
ENDBRANCH   1  10
BRANCH   6  19
ATOM     19  N   UNL d   1      45.733 -12.615  44.274  0.00  0.00    -0.114 N 
ATOM     20  O   UNL d   1      45.461 -12.225  43.617  0.00  0.00    -0.532 OA
ATOM     21  O   UNL d   1      46.183 -12.208  44.839  0.00  0.00    -0.532 OA
ENDBRANCH   6  19
TORSDOF 3
ENDMDL
MODEL 2
REMARK VINA RESULT:      13.4      1.567      4.934
REMARK  3 active torsions:
REMARK  status: ('A' for Active; 'I' for Inactive)
REMARK    1  A    between atoms: C_4  and  C_1 
REMARK    2  A    between atoms: N_2  and  C_9 
REMARK       I    between atoms: N_7  and  C_4 
REMARK    3  A    between atoms: C_11  and  N_7 
ROOT
ATOM      1  C   UNL d   1      45.857 -16.586  44.036  0.00  0.00     0.087 A 
ATOM      2  S   UNL d   1      46.041 -17.218  44.533  0.00  0.00    -0.082 SA
ATOM      3  C   UNL d   1      45.900 -16.846  43.263  0.00  0.00     0.012 A 
ATOM      4  C   UNL d   1      46.111 -17.649  43.265  0.00  0.00     0.008 A 
ATOM      5  C   UNL d   1      46.201 -17.886  44.074  0.00  0.00     0.030 A 
ATOM      6  C   UNL d   1      46.441 -18.956  42.845  0.00  0.00     0.127 A 
ATOM      7  C   UNL d   1      46.233 -18.188  42.671  0.00  0.00     0.024 A 
ATOM      8  C   UNL d   1      46.407 -18.648  44.242  0.00  0.00     0.008 A 
ATOM      9  C   UNL d   1      46.531 -19.193  43.654  0.00  0.00     0.024 A 
ENDROOT
BRANCH   1  10
ATOM     10  C   UNL d   1      45.664 -15.823  44.281  0.00  0.00     0.286 C 
ATOM     11  N   UNL d   1      45.945 -15.164  43.872  0.00  0.00    -0.189 NA
ATOM     12  O   UNL d   1      45.177 -15.706  44.955  0.00  0.00    -0.265 OA
BRANCH  11  13
ATOM     13  C   UNL d   1      45.762 -14.394  44.104  0.00  0.00     0.166 A 
ATOM     14  N   UNL d   1      45.175 -13.979  43.678  0.00  0.00    -0.225 NA
ATOM     15  C   UNL d   1      44.980 -13.208  43.897  0.00  0.00     0.101 A 
ATOM     16  C   UNL d   1      45.370 -12.845  44.543  0.00  0.00     0.021 A 
ATOM     17  C   UNL d   1      45.941 -13.252  44.955  0.00  0.00     0.005 A 
ATOM     18  C   UNL d   1      46.139 -14.034  44.734  0.00  0.00     0.039 A 
ENDBRANCH  11  13
ENDBRANCH   1  10
BRANCH   6  19
ATOM     19  N   UNL d   1      46.572 -19.532  42.240  0.00  0.00    -0.114 N 
ATOM     20  O   UNL d   1      46.646 -19.322  41.460  0.00  0.00    -0.532 OA
ATOM     21  O   UNL d   1      46.625 -20.330  42.458  0.00  0.00    -0.532 OA
ENDBRANCH   6  19
TORSDOF 3
ENDMDL
