MODEL 1
REMARK VINA RESULT:      25.6      0.000      0.000
REMARK  4 active torsions:
REMARK  status: ('A' for Active; 'I' for Inactive)
REMARK    1  A    between atoms: N_2  and  S_1 
REMARK    2  A    between atoms: C_3  and  S_1 
REMARK       I    between atoms: C_5  and  N_4 
REMARK    3  A    between atoms: O_17  and  C_5 
REMARK    4  A    between atoms: C_18  and  O_17 
ROOT
ATOM      1  N   UNL d   1      58.868  49.690  50.453  0.00  0.00    -0.226 N 
ATOM      2  N   UNL d   1      60.415  49.693  51.080  0.00  0.00    -0.248 N 
ATOM      3  C   UNL d   1      61.185  49.695  51.376  0.00  0.00     0.378 C 
ATOM      4  C   UNL d   1      59.529  49.682  49.950  0.00  0.00     0.111 A 
ATOM      5  C   UNL d   1      58.991  49.699  51.277  0.00  0.00     0.111 A 
ATOM      6  C   UNL d   1      59.756  49.701  51.587  0.00  0.00     0.105 A 
ATOM      7  C   UNL d   1      60.294  49.684  50.261  0.00  0.00     0.105 A 
ATOM      8  O   UNL d   1      61.830  49.687  50.862  0.00  0.00    -0.237 OA
ENDROOT
BRANCH   1   9
ATOM      9  S   UNL d   1      58.104  49.688  50.143  0.00  0.00     0.277 S 
ATOM     10  O   UNL d   1      57.794  49.689  50.907  0.00  0.00    -0.199 OA
ATOM     11  O   UNL d   1      58.419  49.686  49.364  0.00  0.00    -0.199 OA
BRANCH   9  12
ATOM     12  C   UNL d   1      57.347  49.686  49.843  0.00  0.00     0.133 A 
ATOM     13  S   UNL d   1      56.694  49.664  50.286  0.00  0.00    -0.074 SA
ATOM     14  C   UNL d   1      56.033  49.670  49.778  0.00  0.00     0.036 A 
ATOM     15  C   UNL d   1      56.320  49.697  48.993  0.00  0.00     0.008 A 
ATOM     16  C   UNL d   1      57.121  49.707  49.028  0.00  0.00     0.020 A 
ENDBRANCH   9  12
ENDBRANCH   1   9
BRANCH   3  17
ATOM     17  O   UNL d   1      61.293  49.704  52.186  0.00  0.00    -0.257 OA
BRANCH  17  18
ATOM     18  C   UNL d   1      62.055  49.646  52.497  0.00  0.00     0.128 C 
ATOM     19  C   UNL d   1      62.178  49.402  53.266  0.00  0.00     0.029 C 
ENDBRANCH  17  18
ENDBRANCH   3  17
TORSDOF 4
ENDMDL
