MODEL 1
REMARK VINA RESULT:      25.7      0.000      0.000
REMARK  2 active torsions:
REMARK  status: ('A' for Active; 'I' for Inactive)
REMARK    1  A    between atoms: C_10  and  N_3 
REMARK    2  A    between atoms: C_15  and  C_10 
ROOT
ATOM      1  C   UNL d   1      58.647  49.707  50.281  0.00  0.00     0.166 A 
ATOM      2  C   UNL d   1      58.502  49.707  51.095  0.00  0.00     0.117 A 
ATOM      3  N   UNL d   1      57.914  49.707  49.917  0.00  0.00    -0.289 N 
ATOM      4  N   UNL d   1      59.423  49.706  49.989  0.00  0.00    -0.225 NA
ATOM      5  N   UNL d   1      59.154  49.706  51.597  0.00  0.00    -0.241 NA
ATOM      6  C   UNL d   1      57.702  49.707  51.214  0.00  0.00     0.037 A 
ATOM      7  C   UNL d   1      57.334  49.707  50.476  0.00  0.00     0.067 A 
ATOM      8  C   UNL d   1      60.051  49.706  50.502  0.00  0.00     0.101 A 
ATOM      9  C   UNL d   1      59.905  49.706  51.316  0.00  0.00     0.099 A 
ATOM     10  C   UNL d   1      57.248  49.707  51.903  0.00  0.00     0.003 A 
ATOM     11  C   UNL d   1      56.513  49.707  50.431  0.00  0.00     0.018 A 
ATOM     12  C   UNL d   1      60.531  49.706  51.831  0.00  0.00     0.021 A 
ATOM     13  C   UNL d   1      60.800  49.706  50.222  0.00  0.00     0.021 A 
ATOM     14  C   UNL d   1      56.424  49.707  51.853  0.00  0.00     0.000 A 
ATOM     15  C   UNL d   1      56.055  49.707  51.115  0.00  0.00     0.002 A 
ATOM     16  C   UNL d   1      61.441  49.706  50.762  0.00  0.00     0.002 A 
ATOM     17  C   UNL d   1      61.318  49.706  51.561  0.00  0.00     0.002 A 
ENDROOT
BRANCH   3  18
ATOM     18  C   UNL d   1      57.790  49.707  49.114  0.00  0.00     0.082 C 
BRANCH  18  19
ATOM     19  C   UNL d   1      57.001  49.695  48.833  0.00  0.00     0.019 C 
ATOM     20  C   UNL d   1      56.585  49.009  48.829  0.00  0.00     0.002 C 
ENDBRANCH  18  19
ENDBRANCH   3  18
TORSDOF 2
ENDMDL
MODEL 2
REMARK VINA RESULT:      25.9      0.713      3.896
REMARK  2 active torsions:
REMARK  status: ('A' for Active; 'I' for Inactive)
REMARK    1  A    between atoms: C_10  and  N_3 
REMARK    2  A    between atoms: C_15  and  C_10 
ROOT
ATOM      1  C   UNL d   1      58.842  49.703  51.003  0.00  0.00     0.166 A 
ATOM      2  C   UNL d   1      59.046  49.700  50.202  0.00  0.00     0.117 A 
ATOM      3  N   UNL d   1      59.547  49.704  51.420  0.00  0.00    -0.289 N 
ATOM      4  N   UNL d   1      58.046  49.706  51.237  0.00  0.00    -0.225 NA
ATOM      5  N   UNL d   1      58.433  49.698  49.653  0.00  0.00    -0.241 NA
ATOM      6  C   UNL d   1      59.852  49.698  50.142  0.00  0.00     0.037 A 
ATOM      7  C   UNL d   1      60.166  49.701  50.905  0.00  0.00     0.067 A 
ATOM      8  C   UNL d   1      57.458  49.705  50.680  0.00  0.00     0.101 A 
ATOM      9  C   UNL d   1      57.663  49.701  49.879  0.00  0.00     0.099 A 
ATOM     10  C   UNL d   1      60.356  49.694  49.488  0.00  0.00     0.003 A 
ATOM     11  C   UNL d   1      60.981  49.700  51.010  0.00  0.00     0.018 A 
ATOM     12  C   UNL d   1      57.077  49.699  49.319  0.00  0.00     0.021 A 
ATOM     13  C   UNL d   1      56.690  49.707  50.904  0.00  0.00     0.021 A 
ATOM     14  C   UNL d   1      61.174  49.693  49.598  0.00  0.00     0.000 A 
ATOM     15  C   UNL d   1      61.488  49.696  50.361  0.00  0.00     0.002 A 
ATOM     16  C   UNL d   1      56.091  49.705  50.319  0.00  0.00     0.002 A 
ATOM     17  C   UNL d   1      56.272  49.702  49.531  0.00  0.00     0.002 A 
ENDROOT
BRANCH   3  18
ATOM     18  C   UNL d   1      59.611  49.707  52.230  0.00  0.00     0.082 C 
BRANCH  18  19
ATOM     19  C   UNL d   1      60.299  49.378  52.575  0.00  0.00     0.019 C 
ATOM     20  C   UNL d   1      60.509  49.577  53.323  0.00  0.00     0.002 C 
ENDBRANCH  18  19
ENDBRANCH   3  18
TORSDOF 2
ENDMDL
