MODEL 1
REMARK VINA RESULT:      31.9      0.000      0.000
REMARK  4 active torsions:
REMARK  status: ('A' for Active; 'I' for Inactive)
REMARK    1  A    between atoms: C_10  and  C_3 
REMARK    2  A    between atoms: C_12  and  C_6 
REMARK    3  A    between atoms: O_15  and  C_10 
REMARK    4  A    between atoms: C_22  and  O_15 
ROOT
ATOM      1  C   UNL d   1      46.055 -17.631  43.514  0.00  0.00     0.057 A 
ATOM      2  C   UNL d   1      46.077 -16.983  43.004  0.00  0.00     0.085 A 
ATOM      3  C   UNL d   1      46.365 -18.498  42.426  0.00  0.00     0.081 A 
ATOM      4  N   UNL d   1      46.241 -17.084  42.209  0.00  0.00    -0.245 NA
ATOM      5  C   UNL d   1      45.878 -17.357  44.271  0.00  0.00     0.197 A 
ATOM      6  C   UNL d   1      46.199 -18.385  43.222  0.00  0.00     0.013 A 
ATOM      7  C   UNL d   1      46.387 -17.847  41.914  0.00  0.00     0.086 A 
ATOM      8  C   UNL d   1      45.912 -16.304  43.448  0.00  0.00     0.021 A 
ATOM      9  C   UNL d   1      45.790 -16.534  44.229  0.00  0.00     0.041 A 
ATOM     10  O   UNL d   1      45.802 -17.820  44.953  0.00  0.00    -0.286 OA
ATOM     11  C   UNL d   1      46.552 -17.956  41.114  0.00  0.00     0.021 C 
ATOM     12  C   UNL d   1      45.858 -15.498  43.242  0.00  0.00     0.002 A 
ATOM     13  C   UNL d   1      45.613 -15.970  44.810  0.00  0.00     0.003 A 
ATOM     14  C   UNL d   1      45.560 -15.169  44.598  0.00  0.00     0.000 A 
ATOM     15  C   UNL d   1      45.682 -14.942  43.820  0.00  0.00     0.000 A 
ENDROOT
BRANCH   6  16
ATOM     16  C   UNL d   1      46.177 -19.033  43.732  0.00  0.00     0.020 A 
ATOM     17  C   UNL d   1      46.646 -19.035  44.403  0.00  0.00     0.099 A 
ATOM     18  N   UNL d   1      46.627 -19.681  44.916  0.00  0.00    -0.242 NA
ATOM     19  C   UNL d   1      46.134 -20.329  44.753  0.00  0.00     0.099 A 
ATOM     20  C   UNL d   1      45.659 -20.325  44.071  0.00  0.00     0.021 A 
ATOM     21  C   UNL d   1      45.681 -19.677  43.561  0.00  0.00     0.003 A 
ENDBRANCH   6  16
BRANCH   3  22
ATOM     22  C   UNL d   1      46.510 -19.255  42.131  0.00  0.00     0.302 C 
ATOM     23  O   UNL d   1      46.523 -19.898  42.647  0.00  0.00    -0.259 OA
BRANCH  22  24
ATOM     24  O   UNL d   1      46.640 -19.368  41.326  0.00  0.00    -0.271 OA
BRANCH  24  25
ATOM     25  C   UNL d   1      46.624 -20.129  41.012  0.00  0.00     0.126 C 
ATOM     26  C   UNL d   1      46.415 -20.242  40.224  0.00  0.00     0.029 C 
ENDBRANCH  24  25
ENDBRANCH  22  24
ENDBRANCH   3  22
TORSDOF 4
ENDMDL
