MODEL 1
REMARK VINA RESULT:      -3.9      0.000      0.000
REMARK  2 active torsions:
REMARK  status: ('A' for Active; 'I' for Inactive)
REMARK    1  A    between atoms: C_2  and  C_1 
REMARK    2  A    between atoms: C_6  and  C_2 
ROOT
ATOM      1  C   UNL d   1      60.118  -8.414  35.661  0.00  0.00     0.059 A 
ATOM      2  C   UNL d   1      59.393  -8.313  36.024  0.00  0.00     0.106 A 
ATOM      3  C   UNL d   1      60.645  -7.794  35.600  0.00  0.00     0.011 A 
ATOM      4  C   UNL d   1      59.186  -7.590  36.330  0.00  0.00     0.021 A 
ATOM      5  C   UNL d   1      60.437  -7.039  35.916  0.00  0.00     0.035 A 
ATOM      6  N   UNL d   1      58.876  -8.954  36.074  0.00  0.00    -0.148 N 
ATOM      7  C   UNL d   1      59.713  -6.958  36.272  0.00  0.00     0.008 A 
ATOM      8 BR   UNL d   1      60.958  -6.415  35.859  0.00  0.00    -0.049 Br
ENDROOT
BRANCH   1   9
ATOM      9  C   UNL d   1      60.326  -9.157  35.349  0.00  0.00     0.197 C 
ATOM     10  O   UNL d   1      60.503  -9.818  35.812  0.00  0.00    -0.286 OA
BRANCH   9  11
ATOM     11  C   UNL d   1      60.355  -9.232  34.535  0.00  0.00     0.039 A 
ATOM     12  C   UNL d   1      59.674  -9.369  34.107  0.00  0.00     0.003 A 
ATOM     13  C   UNL d   1      59.701  -9.446  33.279  0.00  0.00     0.000 A 
ATOM     14  C   UNL d   1      60.439  -9.380  32.885  0.00  0.00     0.000 A 
ATOM     15  C   UNL d   1      61.132  -9.240  33.320  0.00  0.00     0.000 A 
ATOM     16  C   UNL d   1      61.074  -9.167  34.151  0.00  0.00     0.003 A 
ENDBRANCH   9  11
ENDBRANCH   1   9
TORSDOF 2
ENDMDL
MODEL 2
REMARK VINA RESULT:      -3.1      9.602     10.360
REMARK  2 active torsions:
REMARK  status: ('A' for Active; 'I' for Inactive)
REMARK    1  A    between atoms: C_2  and  C_1 
REMARK    2  A    between atoms: C_6  and  C_2 
ROOT
ATOM      1  C   UNL d   1      58.692  -0.380  29.318  0.00  0.00     0.059 A 
ATOM      2  C   UNL d   1      59.387  -0.128  28.971  0.00  0.00     0.106 A 
ATOM      3  C   UNL d   1      58.531  -1.176  29.403  0.00  0.00     0.011 A 
ATOM      4  C   UNL d   1      59.930  -0.669  28.703  0.00  0.00     0.021 A 
ATOM      5  C   UNL d   1      59.092  -1.745  29.127  0.00  0.00     0.035 A 
ATOM      6  N   UNL d   1      59.529   0.681  28.895  0.00  0.00    -0.148 N 
ATOM      7  C   UNL d   1      59.776  -1.475  28.785  0.00  0.00     0.008 A 
ATOM      8 BR   UNL d   1      58.939  -2.541  29.208  0.00  0.00    -0.049 Br
ENDROOT
BRANCH   1   9
ATOM      9  C   UNL d   1      58.138   0.178  29.591  0.00  0.00     0.197 C 
ATOM     10  O   UNL d   1      57.709   0.680  29.095  0.00  0.00    -0.286 OA
BRANCH   9  11
ATOM     11  C   UNL d   1      58.015   0.228  30.398  0.00  0.00     0.039 A 
ATOM     12  C   UNL d   1      58.543   0.630  30.873  0.00  0.00     0.003 A 
ATOM     13  C   UNL d   1      58.421   0.682  31.695  0.00  0.00     0.000 A 
ATOM     14  C   UNL d   1      57.746   0.316  32.032  0.00  0.00     0.000 A 
ATOM     15  C   UNL d   1      57.209  -0.093  31.550  0.00  0.00     0.000 A 
ATOM     16  C   UNL d   1      57.358  -0.129  30.727  0.00  0.00     0.003 A 
ENDBRANCH   9  11
ENDBRANCH   1   9
TORSDOF 2
ENDMDL
MODEL 3
REMARK VINA RESULT:      -2.5      9.120      9.810
REMARK  2 active torsions:
REMARK  status: ('A' for Active; 'I' for Inactive)
REMARK    1  A    between atoms: C_2  and  C_1 
REMARK    2  A    between atoms: C_6  and  C_2 
ROOT
ATOM      1  C   UNL d   1      55.872   0.475  33.713  0.00  0.00     0.059 A 
ATOM      2  C   UNL d   1      55.304   0.505  34.299  0.00  0.00     0.106 A 
ATOM      3  C   UNL d   1      56.665   0.532  33.895  0.00  0.00     0.011 A 
ATOM      4  C   UNL d   1      55.523   0.594  35.076  0.00  0.00     0.021 A 
ATOM      5  C   UNL d   1      56.901   0.624  34.701  0.00  0.00     0.035 A 
ATOM      6  N   UNL d   1      54.508   0.446  34.092  0.00  0.00    -0.148 N 
ATOM      7  C   UNL d   1      56.323   0.652  35.269  0.00  0.00     0.008 A 
ATOM      8 BR   UNL d   1      57.692   0.682  34.891  0.00  0.00    -0.049 Br
ENDROOT
BRANCH   1   9
ATOM      9  C   UNL d   1      55.643   0.384  32.918  0.00  0.00     0.197 C 
ATOM     10  O   UNL d   1      54.930   0.664  32.609  0.00  0.00    -0.286 OA
BRANCH   9  11
ATOM     11  C   UNL d   1      56.158  -0.007  32.417  0.00  0.00     0.039 A 
ATOM     12  C   UNL d   1      56.702   0.412  31.975  0.00  0.00     0.003 A 
ATOM     13  C   UNL d   1      57.228   0.017  31.464  0.00  0.00     0.000 A 
ATOM     14  C   UNL d   1      57.193  -0.819  31.407  0.00  0.00     0.000 A 
ATOM     15  C   UNL d   1      56.640  -1.245  31.856  0.00  0.00     0.000 A 
ATOM     16  C   UNL d   1      56.124  -0.821  32.361  0.00  0.00     0.003 A 
ENDBRANCH   9  11
ENDBRANCH   1   9
TORSDOF 2
ENDMDL
MODEL 4
REMARK VINA RESULT:      -2.2      9.431     10.048
REMARK  2 active torsions:
REMARK  status: ('A' for Active; 'I' for Inactive)
REMARK    1  A    between atoms: C_2  and  C_1 
REMARK    2  A    between atoms: C_6  and  C_2 
ROOT
ATOM      1  C   UNL d   1      59.843  -1.459  28.901  0.00  0.00     0.059 A 
ATOM      2  C   UNL d   1      60.472  -1.844  29.252  0.00  0.00     0.106 A 
ATOM      3  C   UNL d   1      59.187  -1.874  28.650  0.00  0.00     0.011 A 
ATOM      4  C   UNL d   1      60.453  -2.649  29.356  0.00  0.00     0.021 A 
ATOM      5  C   UNL d   1      59.159  -2.712  28.754  0.00  0.00     0.035 A 
ATOM      6  N   UNL d   1      61.126  -1.405  29.499  0.00  0.00    -0.148 N 
ATOM      7  C   UNL d   1      59.793  -3.076  29.105  0.00  0.00     0.008 A 
ATOM      8 BR   UNL d   1      58.507  -3.133  28.506  0.00  0.00    -0.049 Br
ENDROOT
BRANCH   1   9
ATOM      9  C   UNL d   1      59.867  -0.634  28.797  0.00  0.00     0.197 C 
ATOM     10  O   UNL d   1      60.510  -0.230  28.472  0.00  0.00    -0.286 OA
BRANCH   9  11
ATOM     11  C   UNL d   1      59.213  -0.203  29.031  0.00  0.00     0.039 A 
ATOM     12  C   UNL d   1      59.056  -0.085  29.823  0.00  0.00     0.003 A 
ATOM     13  C   UNL d   1      58.392   0.353  30.065  0.00  0.00     0.000 A 
ATOM     14  C   UNL d   1      57.881   0.676  29.483  0.00  0.00     0.000 A 
ATOM     15  C   UNL d   1      58.039   0.557  28.677  0.00  0.00     0.000 A 
ATOM     16  C   UNL d   1      58.715   0.111  28.464  0.00  0.00     0.003 A 
ENDBRANCH   9  11
ENDBRANCH   1   9
TORSDOF 2
ENDMDL
MODEL 5
REMARK VINA RESULT:      -2.1      9.064      9.422
REMARK  2 active torsions:
REMARK  status: ('A' for Active; 'I' for Inactive)
REMARK    1  A    between atoms: C_2  and  C_1 
REMARK    2  A    between atoms: C_6  and  C_2 
ROOT
ATOM      1  C   UNL d   1      56.794  -0.438  32.603  0.00  0.00     0.059 A 
ATOM      2  C   UNL d   1      56.069  -0.456  32.979  0.00  0.00     0.106 A 
ATOM      3  C   UNL d   1      57.434  -0.065  32.946  0.00  0.00     0.011 A 
ATOM      4  C   UNL d   1      55.975  -0.100  33.703  0.00  0.00     0.021 A 
ATOM      5  C   UNL d   1      57.345   0.307  33.698  0.00  0.00     0.035 A 
ATOM      6  N   UNL d   1      55.436  -0.839  32.614  0.00  0.00    -0.148 N 
ATOM      7  C   UNL d   1      56.617   0.279  34.056  0.00  0.00     0.008 A 
ATOM      8 BR   UNL d   1      57.979   0.682  34.047  0.00  0.00    -0.049 Br
ENDROOT
BRANCH   1   9
ATOM      9  C   UNL d   1      56.886  -0.804  31.862  0.00  0.00     0.197 C 
ATOM     10  O   UNL d   1      56.595  -1.555  31.679  0.00  0.00    -0.286 OA
BRANCH   9  11
ATOM     11  C   UNL d   1      57.290  -0.391  31.282  0.00  0.00     0.039 A 
ATOM     12  C   UNL d   1      56.942   0.245  30.909  0.00  0.00     0.003 A 
ATOM     13  C   UNL d   1      57.350   0.667  30.319  0.00  0.00     0.000 A 
ATOM     14  C   UNL d   1      58.128   0.431  30.110  0.00  0.00     0.000 A 
ATOM     15  C   UNL d   1      58.483  -0.217  30.490  0.00  0.00     0.000 A 
ATOM     16  C   UNL d   1      58.048  -0.622  31.079  0.00  0.00     0.003 A 
ENDBRANCH   9  11
ENDBRANCH   1   9
TORSDOF 2
ENDMDL
MODEL 6
REMARK VINA RESULT:      -2.0      9.080     10.027
REMARK  2 active torsions:
REMARK  status: ('A' for Active; 'I' for Inactive)
REMARK    1  A    between atoms: C_2  and  C_1 
REMARK    2  A    between atoms: C_6  and  C_2 
ROOT
ATOM      1  C   UNL d   1      55.989  -0.114  32.819  0.00  0.00     0.059 A 
ATOM      2  C   UNL d   1      55.999  -0.906  32.618  0.00  0.00     0.106 A 
ATOM      3  C   UNL d   1      56.483   0.418  32.447  0.00  0.00     0.011 A 
ATOM      4  C   UNL d   1      56.505  -1.176  32.043  0.00  0.00     0.021 A 
ATOM      5  C   UNL d   1      57.012   0.145  31.847  0.00  0.00     0.035 A 
ATOM      6  N   UNL d   1      55.490  -1.426  33.007  0.00  0.00    -0.148 N 
ATOM      7  C   UNL d   1      57.008  -0.644  31.662  0.00  0.00     0.008 A 
ATOM      8 BR   UNL d   1      57.509   0.671  31.471  0.00  0.00    -0.049 Br
ENDROOT
BRANCH   1   9
ATOM      9  C   UNL d   1      55.469   0.158  33.409  0.00  0.00     0.197 C 
ATOM     10  O   UNL d   1      54.658   0.264  33.294  0.00  0.00    -0.286 OA
BRANCH   9  11
ATOM     11  C   UNL d   1      55.785   0.329  34.144  0.00  0.00     0.039 A 
ATOM     12  C   UNL d   1      56.578   0.508  34.222  0.00  0.00     0.003 A 
ATOM     13  C   UNL d   1      56.902   0.682  34.968  0.00  0.00     0.000 A 
ATOM     14  C   UNL d   1      56.404   0.672  35.643  0.00  0.00     0.000 A 
ATOM     15  C   UNL d   1      55.598   0.491  35.564  0.00  0.00     0.000 A 
ATOM     16  C   UNL d   1      55.300   0.319  34.801  0.00  0.00     0.003 A 
ENDBRANCH   9  11
ENDBRANCH   1   9
TORSDOF 2
ENDMDL
MODEL 7
REMARK VINA RESULT:      -1.7      9.186      9.565
REMARK  2 active torsions:
REMARK  status: ('A' for Active; 'I' for Inactive)
REMARK    1  A    between atoms: C_2  and  C_1 
REMARK    2  A    between atoms: C_6  and  C_2 
ROOT
ATOM      1  C   UNL d   1      58.787  -0.153  30.027  0.00  0.00     0.059 A 
ATOM      2  C   UNL d   1      58.253   0.069  30.603  0.00  0.00     0.106 A 
ATOM      3  C   UNL d   1      59.578   0.038  30.094  0.00  0.00     0.011 A 
ATOM      4  C   UNL d   1      58.502   0.485  31.255  0.00  0.00     0.021 A 
ATOM      5  C   UNL d   1      59.846   0.470  30.768  0.00  0.00     0.035 A 
ATOM      6  N   UNL d   1      57.458  -0.135  30.515  0.00  0.00    -0.148 N 
ATOM      7  C   UNL d   1      59.300   0.682  31.330  0.00  0.00     0.008 A 
ATOM      8 BR   UNL d   1      60.634   0.665  30.843  0.00  0.00    -0.049 Br
ENDROOT
BRANCH   1   9
ATOM      9  C   UNL d   1      58.527  -0.579  29.362  0.00  0.00     0.197 C 
ATOM     10  O   UNL d   1      57.903  -0.339  28.876  0.00  0.00    -0.286 OA
BRANCH   9  11
ATOM     11  C   UNL d   1      58.915  -1.277  29.182  0.00  0.00     0.039 A 
ATOM     12  C   UNL d   1      58.681  -1.980  29.523  0.00  0.00     0.003 A 
ATOM     13  C   UNL d   1      59.074  -2.691  29.343  0.00  0.00     0.000 A 
ATOM     14  C   UNL d   1      59.716  -2.679  28.803  0.00  0.00     0.000 A 
ATOM     15  C   UNL d   1      59.954  -1.964  28.455  0.00  0.00     0.000 A 
ATOM     16  C   UNL d   1      59.541  -1.264  28.656  0.00  0.00     0.003 A 
ENDBRANCH   9  11
ENDBRANCH   1   9
TORSDOF 2
ENDMDL
MODEL 8
REMARK VINA RESULT:      -1.6      9.399      9.956
REMARK  2 active torsions:
REMARK  status: ('A' for Active; 'I' for Inactive)
REMARK    1  A    between atoms: C_2  and  C_1 
REMARK    2  A    between atoms: C_6  and  C_2 
ROOT
ATOM      1  C   UNL d   1      58.090  -0.226  30.230  0.00  0.00     0.059 A 
ATOM      2  C   UNL d   1      57.859  -1.004  30.318  0.00  0.00     0.106 A 
ATOM      3  C   UNL d   1      57.860   0.342  30.770  0.00  0.00     0.011 A 
ATOM      4  C   UNL d   1      57.396  -1.225  30.947  0.00  0.00     0.021 A 
ATOM      5  C   UNL d   1      57.378   0.121  31.427  0.00  0.00     0.035 A 
ATOM      6  N   UNL d   1      58.103  -1.561  29.761  0.00  0.00    -0.148 N 
ATOM      7  C   UNL d   1      57.159  -0.657  31.497  0.00  0.00     0.008 A 
ATOM      8 BR   UNL d   1      57.145   0.682  31.970  0.00  0.00    -0.049 Br
ENDROOT
BRANCH   1   9
ATOM      9  C   UNL d   1      58.564  -0.004  29.584  0.00  0.00     0.197 C 
ATOM     10  O   UNL d   1      58.267   0.171  28.833  0.00  0.00    -0.286 OA
BRANCH   9  11
ATOM     11  C   UNL d   1      59.372   0.042  29.704  0.00  0.00     0.039 A 
ATOM     12  C   UNL d   1      59.688   0.632  30.171  0.00  0.00     0.003 A 
ATOM     13  C   UNL d   1      60.509   0.682  30.295  0.00  0.00     0.000 A 
ATOM     14  C   UNL d   1      61.013   0.116  29.935  0.00  0.00     0.000 A 
ATOM     15  C   UNL d   1      60.692  -0.484  29.460  0.00  0.00     0.000 A 
ATOM     16  C   UNL d   1      59.863  -0.509  29.352  0.00  0.00     0.003 A 
ENDBRANCH   9  11
ENDBRANCH   1   9
TORSDOF 2
ENDMDL
MODEL 9
REMARK VINA RESULT:      -1.6      1.164      1.652
REMARK  2 active torsions:
REMARK  status: ('A' for Active; 'I' for Inactive)
REMARK    1  A    between atoms: C_2  and  C_1 
REMARK    2  A    between atoms: C_6  and  C_2 
ROOT
ATOM      1  C   UNL d   1      60.245  -8.804  34.921  0.00  0.00     0.059 A 
ATOM      2  C   UNL d   1      60.540  -9.113  35.617  0.00  0.00     0.106 A 
ATOM      3  C   UNL d   1      59.818  -8.108  34.919  0.00  0.00     0.011 A 
ATOM      4  C   UNL d   1      60.412  -8.729  36.321  0.00  0.00     0.021 A 
ATOM      5  C   UNL d   1      59.681  -7.703  35.648  0.00  0.00     0.035 A 
ATOM      6  N   UNL d   1      60.968  -9.817  35.595  0.00  0.00    -0.148 N 
ATOM      7  C   UNL d   1      59.982  -8.025  36.329  0.00  0.00     0.008 A 
ATOM      8 BR   UNL d   1      59.256  -7.008  35.655  0.00  0.00    -0.049 Br
ENDROOT
BRANCH   1   9
ATOM      9  C   UNL d   1      60.379  -9.200  34.202  0.00  0.00     0.197 C 
ATOM     10  O   UNL d   1      61.128  -9.410  33.924  0.00  0.00    -0.286 OA
BRANCH   9  11
ATOM     11  C   UNL d   1      59.726  -9.392  33.747  0.00  0.00     0.039 A 
ATOM     12  C   UNL d   1      59.765  -9.359  32.932  0.00  0.00     0.003 A 
ATOM     13  C   UNL d   1      59.103  -9.553  32.467  0.00  0.00     0.000 A 
ATOM     14  C   UNL d   1      58.391  -9.784  32.845  0.00  0.00     0.000 A 
ATOM     15  C   UNL d   1      58.350  -9.818  33.673  0.00  0.00     0.000 A 
ATOM     16  C   UNL d   1      59.032  -9.617  34.115  0.00  0.00     0.003 A 
ENDBRANCH   9  11
ENDBRANCH   1   9
TORSDOF 2
ENDMDL
