MODEL 1
REMARK VINA RESULT:      35.1      0.000      0.000
REMARK  3 active torsions:
REMARK  status: ('A' for Active; 'I' for Inactive)
REMARK    1  A    between atoms: C_6  and  C_1 
REMARK    2  A    between atoms: C_7  and  N_3 
REMARK    3  A    between atoms: C_10  and  C_7 
ROOT
ATOM      1  C   UNL d   1      59.048  49.677  51.478  0.00  0.00     0.148 A 
ATOM      2  N   UNL d   1      58.310  49.693  51.861  0.00  0.00    -0.227 NA
ATOM      3  N   UNL d   1      58.880  49.660  50.671  0.00  0.00    -0.289 N 
ATOM      4  C   UNL d   1      58.083  49.665  50.557  0.00  0.00     0.083 A 
ATOM      5  C   UNL d   1      57.726  49.685  51.304  0.00  0.00     0.099 A 
ATOM      6  C   UNL d   1      57.613  49.653  49.879  0.00  0.00     0.019 A 
ATOM      7  C   UNL d   1      56.914  49.693  51.341  0.00  0.00     0.021 A 
ATOM      8  C   UNL d   1      56.815  49.661  49.950  0.00  0.00     0.002 A 
ATOM      9  C   UNL d   1      56.457  49.682  50.697  0.00  0.00     0.002 A 
ENDROOT
BRANCH   1  10
ATOM     10  C   UNL d   1      59.795  49.679  51.835  0.00  0.00     0.035 A 
ATOM     11  C   UNL d   1      59.860  49.673  52.655  0.00  0.00     0.005 A 
ATOM     12  C   UNL d   1      60.607  49.675  53.013  0.00  0.00     0.021 A 
ATOM     13  C   UNL d   1      61.288  49.683  52.549  0.00  0.00     0.103 A 
ATOM     14  C   UNL d   1      61.223  49.689  51.725  0.00  0.00     0.021 A 
ATOM     15  N   UNL d   1      62.034  49.685  52.906  0.00  0.00    -0.148 N 
ATOM     16  C   UNL d   1      60.477  49.688  51.367  0.00  0.00     0.005 A 
ENDBRANCH   1  10
BRANCH   3  17
ATOM     17  C   UNL d   1      59.540  49.643  50.192  0.00  0.00     0.082 C 
BRANCH  17  18
ATOM     18  C   UNL d   1      59.501  49.528  49.387  0.00  0.00     0.019 C 
ATOM     19  C   UNL d   1      60.126  49.688  48.880  0.00  0.00     0.002 C 
ENDBRANCH  17  18
ENDBRANCH   3  17
TORSDOF 3
ENDMDL
