MODEL 1
REMARK VINA RESULT:      -3.8      0.000      0.000
REMARK  6 active torsions:
REMARK  status: ('A' for Active; 'I' for Inactive)
REMARK    1  A    between atoms: C_6  and  N_1 
REMARK    2  A    between atoms: S_7  and  C_2 
REMARK    3  A    between atoms: C_12  and  S_7 
REMARK    4  A    between atoms: C_8  and  O_9 
REMARK    5  A    between atoms: O_9  and  C_13 
REMARK    6  A    between atoms: C_13  and  C_12 
ROOT
ATOM      1  N   UNL d   1      59.624  -1.561  29.117  0.00  0.00    -0.186 N 
ATOM      2  C   UNL d   1      58.929  -1.672  29.521  0.00  0.00     0.219 A 
ATOM      3  N   UNL d   1      58.693  -2.473  29.406  0.00  0.00    -0.101 NA
ATOM      4  N   UNL d   1      59.237  -2.841  28.939  0.00  0.00    -0.022 NA
ATOM      5  N   UNL d   1      59.823  -2.293  28.749  0.00  0.00    -0.038 NA
ENDROOT
BRANCH   2   6
ATOM      6  S   UNL d   1      58.511  -1.087  29.980  0.00  0.00    -0.044 SA
BRANCH   6   7
ATOM      7  C   UNL d   1      57.838  -1.307  30.403  0.00  0.00     0.065 C 
BRANCH   7   8
ATOM      8  C   UNL d   1      57.502  -0.778  30.960  0.00  0.00     0.130 C 
BRANCH   8   9
ATOM      9  O   UNL d   1      57.169  -1.072  31.649  0.00  0.00    -0.305 OA
BRANCH   9  10
ATOM     10  C   UNL d   1      56.633  -0.619  32.100  0.00  0.00     0.100 A 
ATOM     11  C   UNL d   1      56.078  -1.013  32.585  0.00  0.00     0.025 A 
ATOM     12  C   UNL d   1      55.541  -0.581  33.038  0.00  0.00     0.002 A 
ATOM     13  C   UNL d   1      55.549   0.239  33.014  0.00  0.00     0.000 A 
ATOM     14  C   UNL d   1      56.092   0.635  32.540  0.00  0.00     0.002 A 
ATOM     15  C   UNL d   1      56.641   0.208  32.076  0.00  0.00     0.025 A 
ENDBRANCH   9  10
ENDBRANCH   8   9
ENDBRANCH   7   8
ENDBRANCH   6   7
ENDBRANCH   2   6
BRANCH   1  16
ATOM     16  C   UNL d   1      59.997  -0.808  29.129  0.00  0.00     0.087 A 
ATOM     17  C   UNL d   1      60.655  -0.676  29.663  0.00  0.00     0.019 A 
ATOM     18  C   UNL d   1      61.009   0.070  29.661  0.00  0.00     0.002 A 
ATOM     19  C   UNL d   1      60.733   0.681  29.154  0.00  0.00     0.000 A 
ATOM     20  C   UNL d   1      60.103   0.535  28.652  0.00  0.00     0.002 A 
ATOM     21  C   UNL d   1      59.737  -0.205  28.639  0.00  0.00     0.019 A 
ENDBRANCH   1  16
TORSDOF 6
ENDMDL
MODEL 2
REMARK VINA RESULT:      -2.4      2.541      5.250
REMARK  6 active torsions:
REMARK  status: ('A' for Active; 'I' for Inactive)
REMARK    1  A    between atoms: C_6  and  N_1 
REMARK    2  A    between atoms: S_7  and  C_2 
REMARK    3  A    between atoms: C_12  and  S_7 
REMARK    4  A    between atoms: C_8  and  O_9 
REMARK    5  A    between atoms: O_9  and  C_13 
REMARK    6  A    between atoms: C_13  and  C_12 
ROOT
ATOM      1  N   UNL d   1      57.119   0.293  33.490  0.00  0.00    -0.186 N 
ATOM      2  C   UNL d   1      57.546   0.364  32.804  0.00  0.00     0.219 A 
ATOM      3  N   UNL d   1      58.326   0.607  33.012  0.00  0.00    -0.101 NA
ATOM      4  N   UNL d   1      58.370   0.682  33.813  0.00  0.00    -0.022 NA
ATOM      5  N   UNL d   1      57.632   0.492  34.129  0.00  0.00    -0.038 NA
ENDROOT
BRANCH   2   6
ATOM      6  S   UNL d   1      57.261   0.220  32.012  0.00  0.00    -0.044 SA
BRANCH   6   7
ATOM      7  C   UNL d   1      57.681   0.520  31.369  0.00  0.00     0.065 C 
BRANCH   7   8
ATOM      8  C   UNL d   1      57.831   0.032  30.703  0.00  0.00     0.130 C 
BRANCH   8   9
ATOM      9  O   UNL d   1      57.956   0.374  29.969  0.00  0.00    -0.305 OA
BRANCH   9  10
ATOM     10  C   UNL d   1      58.558   0.102  29.460  0.00  0.00     0.100 A 
ATOM     11  C   UNL d   1      59.223   0.590  29.323  0.00  0.00     0.025 A 
ATOM     12  C   UNL d   1      59.828   0.337  28.822  0.00  0.00     0.002 A 
ATOM     13  C   UNL d   1      59.779  -0.395  28.456  0.00  0.00     0.000 A 
ATOM     14  C   UNL d   1      59.128  -0.881  28.585  0.00  0.00     0.002 A 
ATOM     15  C   UNL d   1      58.509  -0.636  29.090  0.00  0.00     0.025 A 
ENDBRANCH   9  10
ENDBRANCH   8   9
ENDBRANCH   7   8
ENDBRANCH   6   7
ENDBRANCH   2   6
BRANCH   1  16
ATOM     16  C   UNL d   1      56.313   0.056  33.456  0.00  0.00     0.087 A 
ATOM     17  C   UNL d   1      55.704   0.608  33.699  0.00  0.00     0.019 A 
ATOM     18  C   UNL d   1      54.919   0.358  33.659  0.00  0.00     0.002 A 
ATOM     19  C   UNL d   1      54.721  -0.413  33.389  0.00  0.00     0.000 A 
ATOM     20  C   UNL d   1      55.318  -0.926  33.161  0.00  0.00     0.002 A 
ATOM     21  C   UNL d   1      56.109  -0.694  33.194  0.00  0.00     0.019 A 
ENDBRANCH   1  16
TORSDOF 6
ENDMDL
MODEL 3
REMARK VINA RESULT:      -2.1      2.386      5.218
REMARK  6 active torsions:
REMARK  status: ('A' for Active; 'I' for Inactive)
REMARK    1  A    between atoms: C_6  and  N_1 
REMARK    2  A    between atoms: S_7  and  C_2 
REMARK    3  A    between atoms: C_12  and  S_7 
REMARK    4  A    between atoms: C_8  and  O_9 
REMARK    5  A    between atoms: O_9  and  C_13 
REMARK    6  A    between atoms: C_13  and  C_12 
ROOT
ATOM      1  N   UNL d   1      55.881  -1.009  33.179  0.00  0.00    -0.186 N 
ATOM      2  C   UNL d   1      56.378  -0.787  32.578  0.00  0.00     0.219 A 
ATOM      3  N   UNL d   1      56.525  -1.468  32.102  0.00  0.00    -0.101 NA
ATOM      4  N   UNL d   1      56.121  -2.093  32.412  0.00  0.00    -0.022 NA
ATOM      5  N   UNL d   1      55.715  -1.830  33.080  0.00  0.00    -0.038 NA
ENDROOT
BRANCH   2   6
ATOM      6  S   UNL d   1      56.698  -0.006  32.448  0.00  0.00    -0.044 SA
BRANCH   6   7
ATOM      7  C   UNL d   1      56.819   0.259  31.676  0.00  0.00     0.065 C 
BRANCH   7   8
ATOM      8  C   UNL d   1      57.591   0.466  31.421  0.00  0.00     0.130 C 
BRANCH   8   9
ATOM      9  O   UNL d   1      57.732   0.604  30.626  0.00  0.00    -0.305 OA
BRANCH   9  10
ATOM     10  C   UNL d   1      58.479   0.459  30.285  0.00  0.00     0.100 A 
ATOM     11  C   UNL d   1      58.518   0.081  29.541  0.00  0.00     0.025 A 
ATOM     12  C   UNL d   1      59.249  -0.070  29.189  0.00  0.00     0.002 A 
ATOM     13  C   UNL d   1      59.942   0.151  29.570  0.00  0.00     0.000 A 
ATOM     14  C   UNL d   1      59.912   0.523  30.302  0.00  0.00     0.002 A 
ATOM     15  C   UNL d   1      59.178   0.681  30.668  0.00  0.00     0.025 A 
ENDBRANCH   9  10
ENDBRANCH   8   9
ENDBRANCH   7   8
ENDBRANCH   6   7
ENDBRANCH   2   6
BRANCH   1  16
ATOM     16  C   UNL d   1      55.635  -0.441  33.748  0.00  0.00     0.087 A 
ATOM     17  C   UNL d   1      54.846  -0.110  33.693  0.00  0.00     0.019 A 
ATOM     18  C   UNL d   1      54.622   0.447  34.260  0.00  0.00     0.002 A 
ATOM     19  C   UNL d   1      55.149   0.681  34.871  0.00  0.00     0.000 A 
ATOM     20  C   UNL d   1      55.899   0.353  34.906  0.00  0.00     0.002 A 
ATOM     21  C   UNL d   1      56.140  -0.205  34.348  0.00  0.00     0.019 A 
ENDBRANCH   1  16
TORSDOF 6
ENDMDL
