MODEL 1
REMARK VINA RESULT:      35.8      0.000      0.000
REMARK  3 active torsions:
REMARK  status: ('A' for Active; 'I' for Inactive)
REMARK    1  A    between atoms: C_10  and  C_5 
REMARK    2  A    between atoms: C_16  and  C_10 
REMARK    3  A    between atoms: C_17  and  C_16 
ROOT
ATOM      1  C   UNL d   1      46.480 -18.923  43.479  0.00  0.00     0.111 A 
ATOM      2  C   UNL d   1      46.523 -18.860  42.041  0.00  0.00     0.062 A 
ATOM      3  C   UNL d   1      46.519 -19.801  43.396  0.00  0.00     0.213 A 
ATOM      4  C   UNL d   1      46.559 -19.655  41.985  0.00  0.00     0.101 A 
ATOM      5  C   UNL d   1      46.484 -18.493  42.790  0.00  0.00     0.018 A 
ATOM      6  O   UNL d   1      46.556 -20.124  42.662  0.00  0.00    -0.288 OA
ATOM      7  C   UNL d   1      46.525 -18.381  41.359  0.00  0.00     0.194 A 
ATOM      8  C   UNL d   1      46.441 -18.561  44.218  0.00  0.00     0.105 C 
ATOM      9  N   UNL d   1      46.401 -18.177  44.953  0.00  0.00    -0.191 NA
ATOM     10  C   UNL d   1      46.598 -20.017  41.245  0.00  0.00     0.002 A 
ATOM     11  C   UNL d   1      46.602 -19.586  40.557  0.00  0.00     0.042 A 
ATOM     12  C   UNL d   1      46.563 -18.713  40.630  0.00  0.00     0.019 A 
ATOM     13  O   UNL d   1      46.487 -17.525  41.422  0.00  0.00    -0.287 OA
ATOM     14  N   UNL d   1      46.519 -20.325  44.075  0.00  0.00    -0.120 N 
ATOM     15  C   UNL d   1      46.646 -20.282  40.099  0.00  0.00     0.009 C 
ATOM     16  C   UNL d   1      46.614 -19.296  39.795  0.00  0.00     0.009 C 
ENDROOT
BRANCH   5  17
ATOM     17  C   UNL d   1      46.445 -17.639  42.874  0.00  0.00     0.001 C 
BRANCH  17  18
ATOM     18  C   UNL d   1      45.747 -17.295  43.141  0.00  0.00     0.000 C 
BRANCH  18  19
ATOM     19  C   UNL d   1      45.796 -16.544  43.478  0.00  0.00     0.000 A 
ATOM     20  C   UNL d   1      45.113 -16.232  43.840  0.00  0.00     0.000 A 
ATOM     21  C   UNL d   1      45.147 -15.490  44.177  0.00  0.00     0.000 A 
ATOM     22  C   UNL d   1      45.851 -15.050  44.161  0.00  0.00     0.000 A 
ATOM     23  C   UNL d   1      46.534 -15.362  43.801  0.00  0.00     0.000 A 
ATOM     24  C   UNL d   1      46.504 -16.101  43.463  0.00  0.00     0.000 A 
ENDBRANCH  18  19
ENDBRANCH  17  18
ENDBRANCH   5  17
TORSDOF 3
ENDMDL
