MODEL 1
REMARK VINA RESULT:      66.4      0.000      0.000
REMARK  3 active torsions:
REMARK  status: ('A' for Active; 'I' for Inactive)
REMARK    1  A    between atoms: C_9  and  C_1 
REMARK       I    between atoms: C_4  and  N_8 
REMARK    2  A    between atoms: C_5  and  C_4 
REMARK    3  A    between atoms: N_8  and  C_17 
ROOT
ATOM      1  C   UNL d   1     -49.234  28.061  34.468  0.00  0.00     0.036 A 
ATOM      2  C   UNL d   1     -49.433  28.059  33.679  0.00  0.00     0.005 A 
ATOM      3  C   UNL d   1     -49.476  27.465  34.965  0.00  0.00     0.005 A 
ATOM      4  C   UNL d   1     -50.134  26.837  33.875  0.00  0.00     0.085 A 
ATOM      5  C   UNL d   1     -49.893  27.432  33.380  0.00  0.00     0.019 A 
ATOM      6  C   UNL d   1     -49.925  26.843  34.696  0.00  0.00     0.019 A 
ENDROOT
BRANCH   1   7
ATOM      7  C   UNL d   1     -48.775  28.687  34.767  0.00  0.00     0.162 A 
ATOM      8  N   UNL d   1     -48.663  29.463  34.477  0.00  0.00    -0.225 NA
ATOM      9  C   UNL d   1     -48.159  29.833  34.991  0.00  0.00     0.101 A 
ATOM     10  C   UNL d   1     -47.836  30.602  35.009  0.00  0.00     0.021 A 
ATOM     11  C   UNL d   1     -47.964  29.292  35.586  0.00  0.00     0.101 A 
ATOM     12  C   UNL d   1     -47.326  30.823  35.618  0.00  0.00     0.002 A 
ATOM     13  C   UNL d   1     -47.131  30.282  36.213  0.00  0.00     0.002 A 
ATOM     14  C   UNL d   1     -47.447  29.520  36.201  0.00  0.00     0.021 A 
ATOM     15  N   UNL d   1     -48.351  28.595  35.433  0.00  0.00    -0.225 NA
ENDBRANCH   1   7
BRANCH   4  16
ATOM     16  N   UNL d   1     -50.594  26.210  33.577  0.00  0.00    -0.206 NA
ATOM     17  C   UNL d   1     -51.214  25.883  34.022  0.00  0.00     0.302 C 
ATOM     18  O   UNL d   1     -51.371  26.184  34.758  0.00  0.00    -0.263 OA
BRANCH  17  19
ATOM     19  C   UNL d   1     -51.672  25.271  33.744  0.00  0.00     0.158 A 
ATOM     20  O   UNL d   1     -51.431  24.510  33.577  0.00  0.00    -0.300 OA
ATOM     21  C   UNL d   1     -52.100  24.082  33.306  0.00  0.00     0.123 A 
ATOM     22  C   UNL d   1     -52.725  24.559  33.306  0.00  0.00     0.029 A 
ATOM     23  C   UNL d   1     -52.497  25.292  33.568  0.00  0.00     0.032 A 
ENDBRANCH  17  19
ENDBRANCH   4  16
TORSDOF 3
ENDMDL
