MODEL 1
REMARK VINA RESULT:      -0.3      0.000      0.000
REMARK  6 active torsions:
REMARK  status: ('A' for Active; 'I' for Inactive)
REMARK    1  A    between atoms: C_11  and  N_3 
REMARK    2  A    between atoms: C_10  and  C_4 
REMARK    3  A    between atoms: C_18  and  C_11 
REMARK    4  A    between atoms: O_21  and  C_13 
REMARK    5  A    between atoms: O_22  and  C_15 
REMARK    6  A    between atoms: C_23  and  C_18 
ROOT
ATOM      1  N   UNL d   1      57.877   0.217  31.364  0.00  0.00    -0.122 N 
ATOM      2  C   UNL d   1      57.109   0.232  31.673  0.00  0.00     0.741 A 
ATOM      3  N   UNL d   1      56.989   0.389  32.487  0.00  0.00    -0.103 N 
ATOM      4  C   UNL d   1      57.828   0.051  30.554  0.00  0.00     0.185 A 
ATOM      5  C   UNL d   1      57.638   0.528  32.981  0.00  0.00     0.280 A 
ATOM      6  N   UNL d   1      56.582   0.077  31.060  0.00  0.00     0.045 NA
ATOM      7  C   UNL d   1      58.529   0.357  31.859  0.00  0.00     0.087 A 
ATOM      8  N   UNL d   1      57.026  -0.037  30.362  0.00  0.00    -0.114 NA
ATOM      9  C   UNL d   1      58.402   0.510  32.660  0.00  0.00     0.074 A 
ATOM     10  O   UNL d   1      57.520   0.682  33.783  0.00  0.00    -0.266 OA
ATOM     11  C   UNL d   1      59.055   0.649  33.153  0.00  0.00     0.006 A 
ATOM     12  C   UNL d   1      59.292   0.341  31.550  0.00  0.00     0.018 A 
ATOM     13  C   UNL d   1      59.818   0.634  32.845  0.00  0.00     0.000 A 
ATOM     14  C   UNL d   1      59.936   0.480  32.043  0.00  0.00     0.002 A 
ENDROOT
BRANCH   4  15
ATOM     15  C   UNL d   1      58.463  -0.015  30.030  0.00  0.00     0.039 A 
ATOM     16  C   UNL d   1      58.748  -0.751  29.826  0.00  0.00     0.029 A 
ATOM     17  C   UNL d   1      59.381  -0.819  29.304  0.00  0.00     0.116 A 
ATOM     18  C   UNL d   1      59.729  -0.135  28.985  0.00  0.00     0.116 A 
ATOM     19  C   UNL d   1      59.437   0.609  29.193  0.00  0.00     0.026 A 
ATOM     20  C   UNL d   1      58.801   0.675  29.718  0.00  0.00     0.005 A 
BRANCH  17  21
ATOM     21  O   UNL d   1      59.664  -1.557  29.103  0.00  0.00    -0.326 OA
ATOM     22  C   UNL d   1      59.236  -2.238  29.301  0.00  0.00     0.181 C 
ENDBRANCH  17  21
BRANCH  18  23
ATOM     23  O   UNL d   1      60.361  -0.205  28.463  0.00  0.00    -0.326 OA
ATOM     24  C   UNL d   1      60.952   0.375  28.455  0.00  0.00     0.181 C 
ENDBRANCH  18  23
ENDBRANCH   4  15
BRANCH   3  25
ATOM     25  C   UNL d   1      56.225   0.404  32.796  0.00  0.00     0.101 C 
BRANCH  25  26
ATOM     26  C   UNL d   1      56.058  -0.003  33.494  0.00  0.00     0.020 C 
BRANCH  26  27
ATOM     27  C   UNL d   1      55.399   0.203  33.953  0.00  0.00     0.002 A 
ATOM     28  C   UNL d   1      54.640   0.152  33.632  0.00  0.00     0.000 A 
ATOM     29  C   UNL d   1      53.998   0.355  34.085  0.00  0.00     0.000 A 
ATOM     30  C   UNL d   1      54.104   0.605  34.848  0.00  0.00     0.000 A 
ATOM     31  C   UNL d   1      54.855   0.658  35.176  0.00  0.00     0.000 A 
ATOM     32  C   UNL d   1      55.505   0.453  34.716  0.00  0.00     0.000 A 
ENDBRANCH  26  27
ENDBRANCH  25  26
ENDBRANCH   3  25
TORSDOF 6
ENDMDL
