MODEL 1
REMARK VINA RESULT:      14.6      0.000      0.000
REMARK  7 active torsions:
REMARK  status: ('A' for Active; 'I' for Inactive)
REMARK    1  A    between atoms: N_2  and  S_1 
REMARK    2  A    between atoms: C_3  and  S_1 
REMARK    3  A    between atoms: C_9  and  N_2 
REMARK    4  A    between atoms: C_6  and  O_7 
REMARK    5  A    between atoms: O_7  and  C_14 
REMARK    6  A    between atoms: C_13  and  C_9 
REMARK    7  A    between atoms: O_17  and  C_10 
ROOT
ATOM      1  C   UNL d   1      45.528 -16.085  44.520  0.00  0.00     0.105 A 
ATOM      2  C   UNL d   1      45.212 -16.589  43.958  0.00  0.00     0.015 A 
ATOM      3  C   UNL d   1      46.194 -16.313  44.955  0.00  0.00     0.015 A 
ATOM      4  C   UNL d   1      46.223 -17.548  44.262  0.00  0.00     0.100 A 
ATOM      5  C   UNL d   1      45.557 -17.319  43.827  0.00  0.00     0.025 A 
ATOM      6  C   UNL d   1      46.538 -17.044  44.823  0.00  0.00     0.025 A 
ENDROOT
BRANCH   1   7
ATOM      7  S   UNL d   1      45.174 -15.347  44.647  0.00  0.00     0.285 S 
ATOM      8  O   UNL d   1      44.351 -15.283  44.671  0.00  0.00    -0.198 OA
ATOM      9  O   UNL d   1      45.645 -14.679  44.748  0.00  0.00    -0.198 OA
BRANCH   7  10
ATOM     10  N   UNL d   1      45.019 -14.544  44.781  0.00  0.00    -0.155 NA
BRANCH  10  11
ATOM     11  C   UNL d   1      44.562 -14.112  44.228  0.00  0.00     0.131 C 
BRANCH  11  12
ATOM     12  C   UNL d   1      44.885 -13.433  43.874  0.00  0.00     0.101 A 
ATOM     13  N   UNL d   1      45.604 -13.134  44.147  0.00  0.00    -0.242 NA
ATOM     14  C   UNL d   1      45.933 -12.461  43.802  0.00  0.00     0.099 A 
ATOM     15  C   UNL d   1      45.537 -12.081  43.174  0.00  0.00     0.021 A 
ATOM     16  C   UNL d   1      44.808 -12.391  42.903  0.00  0.00     0.003 A 
ATOM     17  C   UNL d   1      44.486 -13.063  43.253  0.00  0.00     0.021 A 
ENDBRANCH  11  12
ENDBRANCH  10  11
ENDBRANCH   7  10
ENDBRANCH   1   7
BRANCH   4  18
ATOM     18  O   UNL d   1      46.571 -18.290  44.127  0.00  0.00    -0.305 OA
BRANCH  18  19
ATOM     19  C   UNL d   1      46.457 -18.682  43.406  0.00  0.00     0.122 A 
ATOM     20  C   UNL d   1      46.493 -19.503  43.378  0.00  0.00     0.117 A 
ATOM     21  C   UNL d   1      46.379 -19.892  42.659  0.00  0.00     0.026 A 
ATOM     22  C   UNL d   1      46.231 -19.461  41.978  0.00  0.00     0.002 A 
ATOM     23  C   UNL d   1      46.195 -18.637  42.008  0.00  0.00     0.002 A 
ATOM     24  C   UNL d   1      46.308 -18.248  42.727  0.00  0.00     0.027 A 
BRANCH  20  25
ATOM     25  O   UNL d   1      46.642 -19.926  44.064  0.00  0.00    -0.326 OA
ATOM     26  C   UNL d   1      46.043 -20.330  44.438  0.00  0.00     0.181 C 
ENDBRANCH  20  25
ENDBRANCH  18  19
ENDBRANCH   4  18
TORSDOF 7
ENDMDL
