MODEL 1
REMARK VINA RESULT:       4.0      0.000      0.000
REMARK  6 active torsions:
REMARK  status: ('A' for Active; 'I' for Inactive)
REMARK    1  A    between atoms: C_7  and  C_1 
REMARK    2  A    between atoms: C_10  and  C_2 
REMARK    3  A    between atoms: C_8  and  C_7 
REMARK    4  A    between atoms: C_9  and  C_8 
REMARK    5  A    between atoms: C_13  and  C_9 
REMARK    6  A    between atoms: O_20  and  C_16 
ROOT
ATOM      1  C   UNL d   1      32.912  20.650 -22.426  0.00  0.00     0.097 A 
ATOM      2  C   UNL d   1      32.799  21.454 -22.285  0.00  0.00     0.009 A 
ATOM      3  C   UNL d   1      33.078  20.139 -21.806  0.00  0.00     0.282 A 
ATOM      4  C   UNL d   1      32.855  21.742 -21.513  0.00  0.00     0.019 A 
ATOM      5  N   UNL d   1      33.133  20.429 -21.038  0.00  0.00    -0.208 NA
ATOM      6  C   UNL d   1      33.021  21.232 -20.893  0.00  0.00     0.085 A 
ATOM      7  C   UNL d   1      32.743  22.546 -21.371  0.00  0.00     0.013 A 
ATOM      8  O   UNL d   1      33.187  19.323 -21.987  0.00  0.00    -0.265 OA
ATOM      9  C   UNL d   1      33.077  21.521 -20.125  0.00  0.00     0.020 A 
ATOM     10  C   UNL d   1      32.799  22.834 -20.599  0.00  0.00     0.058 A 
ATOM     11  C   UNL d   1      32.965  22.324 -19.979  0.00  0.00     0.013 A 
ATOM     12 CL   UNL d   1      32.689  23.647 -20.431  0.00  0.00    -0.082 Cl
ENDROOT
BRANCH   1  13
ATOM     13  C   UNL d   1      32.860  20.327 -23.208  0.00  0.00     0.200 C 
ATOM     14  O   UNL d   1      33.096  20.779 -23.847  0.00  0.00    -0.286 OA
BRANCH  13  15
ATOM     15  C   UNL d   1      32.571  19.561 -23.313  0.00  0.00     0.042 C 
BRANCH  15  16
ATOM     16  C   UNL d   1      32.531  19.236 -24.062  0.00  0.00     0.005 C 
BRANCH  16  17
ATOM     17  C   UNL d   1      31.963  18.668 -24.226  0.00  0.00     0.022 A 
ATOM     18  C   UNL d   1      32.197  17.904 -24.450  0.00  0.00     0.094 A 
ATOM     19  C   UNL d   1      31.625  17.324 -24.618  0.00  0.00     0.024 A 
ATOM     20  C   UNL d   1      30.835  17.520 -24.559  0.00  0.00     0.002 A 
ATOM     21  C   UNL d   1      30.580  18.295 -24.332  0.00  0.00     0.000 A 
ATOM     22  C   UNL d   1      31.150  18.854 -24.170  0.00  0.00     0.002 A 
BRANCH  18  23
ATOM     23  O   UNL d   1      33.006  17.704 -24.510  0.00  0.00    -0.328 OA
ATOM     24  C   UNL d   1      33.237  16.929 -24.526  0.00  0.00     0.181 C 
ENDBRANCH  18  23
ENDBRANCH  16  17
ENDBRANCH  15  16
ENDBRANCH  13  15
ENDBRANCH   1  13
BRANCH   2  25
ATOM     25  C   UNL d   1      32.631  21.971 -22.913  0.00  0.00     0.000 A 
ATOM     26  C   UNL d   1      31.856  22.072 -23.153  0.00  0.00     0.000 A 
ATOM     27  C   UNL d   1      31.685  22.599 -23.793  0.00  0.00     0.000 A 
ATOM     28  C   UNL d   1      32.297  22.997 -24.159  0.00  0.00     0.000 A 
ATOM     29  C   UNL d   1      33.053  22.894 -23.921  0.00  0.00     0.000 A 
ATOM     30  C   UNL d   1      33.241  22.379 -23.291  0.00  0.00     0.000 A 
ENDBRANCH   2  25
TORSDOF 6
ENDMDL
MODEL 2
REMARK VINA RESULT:       6.8      1.375      1.995
REMARK  6 active torsions:
REMARK  status: ('A' for Active; 'I' for Inactive)
REMARK    1  A    between atoms: C_7  and  C_1 
REMARK    2  A    between atoms: C_10  and  C_2 
REMARK    3  A    between atoms: C_8  and  C_7 
REMARK    4  A    between atoms: C_9  and  C_8 
REMARK    5  A    between atoms: C_13  and  C_9 
REMARK    6  A    between atoms: O_20  and  C_16 
ROOT
ATOM      1  C   UNL d   1      32.652  20.967 -20.827  0.00  0.00     0.097 A 
ATOM      2  C   UNL d   1      32.685  21.755 -20.588  0.00  0.00     0.009 A 
ATOM      3  C   UNL d   1      32.804  20.366 -20.290  0.00  0.00     0.282 A 
ATOM      4  C   UNL d   1      32.871  21.935 -19.804  0.00  0.00     0.019 A 
ATOM      5  N   UNL d   1      32.989  20.548 -19.509  0.00  0.00    -0.208 NA
ATOM      6  C   UNL d   1      33.022  21.334 -19.267  0.00  0.00     0.085 A 
ATOM      7  C   UNL d   1      32.903  22.724 -19.566  0.00  0.00     0.013 A 
ATOM      8  O   UNL d   1      32.762  19.571 -20.567  0.00  0.00    -0.265 OA
ATOM      9  C   UNL d   1      33.207  21.516 -18.487  0.00  0.00     0.020 A 
ATOM     10  C   UNL d   1      33.089  22.904 -18.782  0.00  0.00     0.058 A 
ATOM     11  C   UNL d   1      33.240  22.303 -18.245  0.00  0.00     0.013 A 
ATOM     12 CL   UNL d   1      33.127  23.697 -18.517  0.00  0.00    -0.082 Cl
ENDROOT
BRANCH   1  13
ATOM     13  C   UNL d   1      32.464  20.754 -21.624  0.00  0.00     0.200 C 
ATOM     14  O   UNL d   1      32.265  21.336 -22.161  0.00  0.00    -0.286 OA
BRANCH  13  15
ATOM     15  C   UNL d   1      32.485  19.959 -21.848  0.00  0.00     0.042 C 
BRANCH  15  16
ATOM     16  C   UNL d   1      32.168  19.725 -22.564  0.00  0.00     0.005 C 
BRANCH  16  17
ATOM     17  C   UNL d   1      32.526  19.121 -22.987  0.00  0.00     0.022 A 
ATOM     18  C   UNL d   1      32.567  19.166 -23.814  0.00  0.00     0.094 A 
ATOM     19  C   UNL d   1      32.930  18.555 -24.248  0.00  0.00     0.024 A 
ATOM     20  C   UNL d   1      33.241  17.916 -23.846  0.00  0.00     0.002 A 
ATOM     21  C   UNL d   1      33.206  17.856 -23.003  0.00  0.00     0.000 A 
ATOM     22  C   UNL d   1      32.849  18.460 -22.589  0.00  0.00     0.002 A 
BRANCH  18  23
ATOM     23  O   UNL d   1      32.249  19.820 -24.224  0.00  0.00    -0.328 OA
ATOM     24  C   UNL d   1      32.462  19.966 -24.991  0.00  0.00     0.181 C 
ENDBRANCH  18  23
ENDBRANCH  16  17
ENDBRANCH  15  16
ENDBRANCH  13  15
ENDBRANCH   1  13
BRANCH   2  25
ATOM     25  C   UNL d   1      32.531  22.364 -21.132  0.00  0.00     0.000 A 
ATOM     26  C   UNL d   1      33.031  22.467 -21.771  0.00  0.00     0.000 A 
ATOM     27  C   UNL d   1      32.874  23.088 -22.326  0.00  0.00     0.000 A 
ATOM     28  C   UNL d   1      32.227  23.572 -22.211  0.00  0.00     0.000 A 
ATOM     29  C   UNL d   1      31.741  23.468 -21.585  0.00  0.00     0.000 A 
ATOM     30  C   UNL d   1      31.880  22.861 -21.028  0.00  0.00     0.000 A 
ENDBRANCH   2  25
TORSDOF 6
ENDMDL
