MODEL 1
REMARK VINA RESULT:      52.9      0.000      0.000
REMARK  5 active torsions:
REMARK  status: ('A' for Active; 'I' for Inactive)
REMARK    1  A    between atoms: S_9  and  C_2 
REMARK    2  A    between atoms: C_7  and  C_18 
REMARK       I    between atoms: N_13  and  C_7 
REMARK    3  A    between atoms: C_18  and  S_9 
REMARK    4  A    between atoms: C_20  and  N_13 
REMARK    5  A    between atoms: C_19  and  C_20 
ROOT
ATOM      1  C   UNL d   1      60.935  48.883  50.273  0.00  0.00     0.286 C 
ATOM      2  N   UNL d   1      60.231  49.278  50.086  0.00  0.00    -0.206 NA
ATOM      3  O   UNL d   1      61.507  48.759  49.689  0.00  0.00    -0.265 OA
ENDROOT
BRANCH   2   4
ATOM      4  C   UNL d   1      59.645  49.406  50.677  0.00  0.00     0.102 C 
BRANCH   4   5
ATOM      5  C   UNL d   1      58.839  49.484  50.456  0.00  0.00     0.021 A 
ATOM      6  C   UNL d   1      58.240  49.472  51.032  0.00  0.00     0.028 A 
ATOM      7  C   UNL d   1      57.446  49.550  50.798  0.00  0.00     0.119 A 
ATOM      8  O   UNL d   1      56.750  49.559  51.221  0.00  0.00    -0.300 OA
ATOM      9  C   UNL d   1      57.261  49.639  50.000  0.00  0.00     0.119 A 
ATOM     10  C   UNL d   1      56.126  49.652  50.708  0.00  0.00     0.304 A 
ATOM     11  O   UNL d   1      56.452  49.703  49.934  0.00  0.00    -0.300 OA
ATOM     12  C   UNL d   1      57.862  49.650  49.438  0.00  0.00     0.026 A 
ATOM     13  C   UNL d   1      58.656  49.571  49.677  0.00  0.00     0.004 A 
ENDBRANCH   4   5
ENDBRANCH   2   4
BRANCH   1  14
ATOM     14  C   UNL d   1      61.052  48.618  51.046  0.00  0.00     0.101 C 
BRANCH  14  15
ATOM     15  S   UNL d   1      61.366  49.107  51.631  0.00  0.00    -0.041 SA
BRANCH  15  16
ATOM     16  C   UNL d   1      61.228  48.300  51.601  0.00  0.00     0.233 A 
ATOM     17  N   UNL d   1      60.753  47.850  52.123  0.00  0.00    -0.029 NA
ATOM     18  C   UNL d   1      60.779  47.069  51.877  0.00  0.00     0.788 A 
ATOM     19  N   UNL d   1      61.255  47.019  51.217  0.00  0.00     0.050 NA
ATOM     20  N   UNL d   1      60.384  46.432  52.240  0.00  0.00     0.064 N 
ATOM     21  N   UNL d   1      61.540  47.766  51.033  0.00  0.00    -0.105 NA
ENDBRANCH  15  16
ENDBRANCH  14  15
ENDBRANCH   1  14
TORSDOF 5
ENDMDL
MODEL 2
REMARK VINA RESULT:      53.9      2.138      4.260
REMARK  5 active torsions:
REMARK  status: ('A' for Active; 'I' for Inactive)
REMARK    1  A    between atoms: S_9  and  C_2 
REMARK    2  A    between atoms: C_7  and  C_18 
REMARK       I    between atoms: N_13  and  C_7 
REMARK    3  A    between atoms: C_18  and  S_9 
REMARK    4  A    between atoms: C_20  and  N_13 
REMARK    5  A    between atoms: C_19  and  C_20 
ROOT
ATOM      1  C   UNL d   1      58.333  49.584  49.765  0.00  0.00     0.286 C 
ATOM      2  N   UNL d   1      59.125  49.656  49.998  0.00  0.00    -0.206 NA
ATOM      3  O   UNL d   1      58.123  49.698  48.973  0.00  0.00    -0.265 OA
ENDROOT
BRANCH   2   4
ATOM      4  C   UNL d   1      59.343  49.541  50.803  0.00  0.00     0.102 C 
BRANCH   4   5
ATOM      5  C   UNL d   1      60.072  49.167  50.988  0.00  0.00     0.021 A 
ATOM      6  C   UNL d   1      60.149  48.341  50.931  0.00  0.00     0.028 A 
ATOM      7  C   UNL d   1      60.876  47.984  51.118  0.00  0.00     0.119 A 
ATOM      8  O   UNL d   1      61.120  47.207  51.117  0.00  0.00    -0.300 OA
ATOM      9  C   UNL d   1      61.512  48.451  51.356  0.00  0.00     0.119 A 
ATOM     10  C   UNL d   1      61.898  47.170  51.350  0.00  0.00     0.304 A 
ATOM     11  O   UNL d   1      62.145  47.960  51.501  0.00  0.00    -0.300 OA
ATOM     12  C   UNL d   1      61.425  49.267  51.409  0.00  0.00     0.026 A 
ATOM     13  C   UNL d   1      60.694  49.620  51.221  0.00  0.00     0.004 A 
ENDBRANCH   4   5
ENDBRANCH   2   4
BRANCH   1  14
ATOM     14  C   UNL d   1      57.764  49.399  50.333  0.00  0.00     0.101 C 
BRANCH  14  15
ATOM     15  S   UNL d   1      57.798  49.703  51.099  0.00  0.00    -0.041 SA
BRANCH  15  16
ATOM     16  C   UNL d   1      57.176  49.435  50.638  0.00  0.00     0.233 A 
ATOM     17  N   UNL d   1      57.067  49.559  49.817  0.00  0.00    -0.029 NA
ATOM     18  C   UNL d   1      56.368  49.190  49.599  0.00  0.00     0.788 A 
ATOM     19  N   UNL d   1      56.040  48.839  50.258  0.00  0.00     0.050 NA
ATOM     20  N   UNL d   1      56.047  49.174  48.830  0.00  0.00     0.064 N 
ATOM     21  N   UNL d   1      56.523  48.980  50.906  0.00  0.00    -0.105 NA
ENDBRANCH  15  16
ENDBRANCH  14  15
ENDBRANCH   1  14
TORSDOF 5
ENDMDL
MODEL 3
REMARK VINA RESULT:      54.7      2.053      4.201
REMARK  5 active torsions:
REMARK  status: ('A' for Active; 'I' for Inactive)
REMARK    1  A    between atoms: S_9  and  C_2 
REMARK    2  A    between atoms: C_7  and  C_18 
REMARK       I    between atoms: N_13  and  C_7 
REMARK    3  A    between atoms: C_18  and  S_9 
REMARK    4  A    between atoms: C_20  and  N_13 
REMARK    5  A    between atoms: C_19  and  C_20 
ROOT
ATOM      1  C   UNL d   1      61.216  49.106  50.429  0.00  0.00     0.286 C 
ATOM      2  N   UNL d   1      61.468  48.320  50.352  0.00  0.00    -0.206 NA
ATOM      3  O   UNL d   1      61.604  49.707  50.014  0.00  0.00    -0.265 OA
ENDROOT
BRANCH   2   4
ATOM      4  C   UNL d   1      61.076  47.705  50.772  0.00  0.00     0.102 C 
BRANCH   4   5
ATOM      5  C   UNL d   1      61.164  46.908  50.522  0.00  0.00     0.021 A 
ATOM      6  C   UNL d   1      61.440  46.733  49.758  0.00  0.00     0.028 A 
ATOM      7  C   UNL d   1      61.522  45.939  49.524  0.00  0.00     0.119 A 
ATOM      8  O   UNL d   1      61.773  45.597  48.829  0.00  0.00    -0.300 OA
ATOM      9  C   UNL d   1      61.331  45.335  50.052  0.00  0.00     0.119 A 
ATOM     10  C   UNL d   1      61.744  44.788  48.903  0.00  0.00     0.304 A 
ATOM     11  O   UNL d   1      61.464  44.623  49.679  0.00  0.00    -0.300 OA
ATOM     12  C   UNL d   1      61.059  45.520  50.806  0.00  0.00     0.026 A 
ATOM     13  C   UNL d   1      60.978  46.317  51.035  0.00  0.00     0.004 A 
ENDBRANCH   4   5
ENDBRANCH   2   4
BRANCH   1  14
ATOM     14  C   UNL d   1      60.576  49.274  50.921  0.00  0.00     0.101 C 
BRANCH  14  15
ATOM     15  S   UNL d   1      60.668  49.691  51.627  0.00  0.00    -0.041 SA
BRANCH  15  16
ATOM     16  C   UNL d   1      60.065  49.669  51.073  0.00  0.00     0.233 A 
ATOM     17  N   UNL d   1      59.242  49.707  51.221  0.00  0.00    -0.029 NA
ATOM     18  C   UNL d   1      58.854  49.666  50.500  0.00  0.00     0.788 A 
ATOM     19  N   UNL d   1      59.411  49.603  49.907  0.00  0.00     0.050 NA
ATOM     20  N   UNL d   1      58.029  49.685  50.390  0.00  0.00     0.064 N 
ATOM     21  N   UNL d   1      60.161  49.603  50.241  0.00  0.00    -0.105 NA
ENDBRANCH  15  16
ENDBRANCH  14  15
ENDBRANCH   1  14
TORSDOF 5
ENDMDL
