MODEL 1
REMARK VINA RESULT:      -2.7      0.000      0.000
REMARK  2 active torsions:
REMARK  status: ('A' for Active; 'I' for Inactive)
REMARK    1  A    between atoms: N_5  and  C_1 
REMARK       I    between atoms: C_4  and  N_5 
REMARK    2  A    between atoms: C_7  and  C_4 
ROOT
ATOM      1  C   UNL d   1     -41.918-121.782 -50.940  0.00  0.00     0.060 A 
ATOM      2  C   UNL d   1     -42.068-122.743 -49.870  0.00  0.00     0.123 A 
ATOM      3  C   UNL d   1     -41.608-122.213 -50.301  0.00  0.00     0.032 A 
ATOM      4  C   UNL d   1     -42.868-122.854 -50.075  0.00  0.00     0.123 A 
ATOM      5  O   UNL d   1     -41.757-123.162 -49.244  0.00  0.00    -0.301 OA
ATOM      6  O   UNL d   1     -43.335-123.374 -49.659  0.00  0.00    -0.301 OA
ATOM      7  C   UNL d   1     -42.709-121.892 -51.143  0.00  0.00     0.007 A 
ATOM      8  C   UNL d   1     -43.186-122.433 -50.706  0.00  0.00     0.027 A 
ATOM      9  C   UNL d   1     -42.206-123.695 -48.804  0.00  0.00     0.149 A 
ATOM     10  C   UNL d   1     -43.009-123.810 -49.006  0.00  0.00     0.149 A 
ENDROOT
BRANCH   1  11
ATOM     11  C   UNL d   1     -41.451-121.260 -51.359  0.00  0.00     0.281 C 
ATOM     12  N   UNL d   1     -41.123-121.531 -52.072  0.00  0.00    -0.187 NA
ATOM     13  O   UNL d   1     -41.257-120.437 -51.134  0.00  0.00    -0.265 OA
BRANCH  12  14
ATOM     14  C   UNL d   1     -41.284-122.323 -52.332  0.00  0.00     0.194 A 
ATOM     15  N   UNL d   1     -41.134-123.020 -51.914  0.00  0.00    -0.107 NA
ATOM     16  O   UNL d   1     -41.377-123.661 -52.375  0.00  0.00    -0.210 OA
ATOM     17  C   UNL d   1     -41.683-123.363 -53.093  0.00  0.00     0.128 A 
ATOM     18  C   UNL d   1     -41.620-122.529 -53.054  0.00  0.00     0.068 A 
ATOM     19  C   UNL d   1     -41.986-123.813 -53.711  0.00  0.00     0.029 C 
ENDBRANCH  12  14
ENDBRANCH   1  11
TORSDOF 2
ENDMDL
MODEL 2
REMARK VINA RESULT:      -0.9      1.545      3.279
REMARK  2 active torsions:
REMARK  status: ('A' for Active; 'I' for Inactive)
REMARK    1  A    between atoms: N_5  and  C_1 
REMARK       I    between atoms: C_4  and  N_5 
REMARK    2  A    between atoms: C_7  and  C_4 
ROOT
ATOM      1  C   UNL d   1     -41.630-123.053 -49.697  0.00  0.00     0.060 A 
ATOM      2  C   UNL d   1     -41.375-122.396 -50.960  0.00  0.00     0.123 A 
ATOM      3  C   UNL d   1     -41.493-122.367 -50.145  0.00  0.00     0.032 A 
ATOM      4  C   UNL d   1     -41.392-123.131 -51.352  0.00  0.00     0.123 A 
ATOM      5  O   UNL d   1     -41.242-121.719 -51.394  0.00  0.00    -0.301 OA
ATOM      6  O   UNL d   1     -41.277-123.176 -52.156  0.00  0.00    -0.301 OA
ATOM      7  C   UNL d   1     -41.646-123.780 -50.085  0.00  0.00     0.007 A 
ATOM      8  C   UNL d   1     -41.526-123.817 -50.919  0.00  0.00     0.027 A 
ATOM      9  C   UNL d   1     -41.123-121.734 -52.209  0.00  0.00     0.149 A 
ATOM     10  C   UNL d   1     -41.139-122.469 -52.606  0.00  0.00     0.149 A 
ENDROOT
BRANCH   1  11
ATOM     11  C   UNL d   1     -41.745-123.010 -48.890  0.00  0.00     0.281 C 
ATOM     12  N   UNL d   1     -42.529-123.003 -48.618  0.00  0.00    -0.187 NA
ATOM     13  O   UNL d   1     -41.123-122.971 -48.276  0.00  0.00    -0.265 OA
BRANCH  12  14
ATOM     14  C   UNL d   1     -43.166-123.040 -49.178  0.00  0.00     0.194 A 
ATOM     15  N   UNL d   1     -43.465-123.720 -49.542  0.00  0.00    -0.107 NA
ATOM     16  O   UNL d   1     -44.083-123.498 -50.044  0.00  0.00    -0.210 OA
ATOM     17  C   UNL d   1     -44.174-122.669 -49.996  0.00  0.00     0.128 A 
ATOM     18  C   UNL d   1     -43.598-122.395 -49.453  0.00  0.00     0.068 A 
ATOM     19  C   UNL d   1     -44.726-122.220 -50.406  0.00  0.00     0.029 C 
ENDBRANCH  12  14
ENDBRANCH   1  11
TORSDOF 2
ENDMDL
