MODEL 1
REMARK VINA RESULT:      65.8      0.000      0.000
REMARK  3 active torsions:
REMARK  status: ('A' for Active; 'I' for Inactive)
REMARK    1  A    between atoms: N_2  and  S_1 
REMARK    2  A    between atoms: C_3  and  S_1 
REMARK    3  A    between atoms: C_5  and  N_4 
ROOT
ATOM      1  N   UNL d   1      13.723  15.694  -5.012  0.00  0.00    -0.226 N 
ATOM      2  N   UNL d   1      13.969  17.250  -5.469  0.00  0.00    -0.301 N 
ATOM      3  C   UNL d   1      13.260  16.027  -5.605  0.00  0.00     0.111 A 
ATOM      4  C   UNL d   1      14.309  16.142  -4.648  0.00  0.00     0.111 A 
ATOM      5  C   UNL d   1      13.384  16.809  -5.835  0.00  0.00     0.100 A 
ATOM      6  C   UNL d   1      14.432  16.925  -4.878  0.00  0.00     0.100 A 
ENDROOT
BRANCH   1   7
ATOM      7  S   UNL d   1      13.600  14.911  -4.782  0.00  0.00     0.271 S 
ATOM      8  O   UNL d   1      13.176  15.171  -4.124  0.00  0.00    -0.200 OA
ATOM      9  O   UNL d   1      14.024  14.651  -5.440  0.00  0.00    -0.200 OA
BRANCH   7  10
ATOM     10  C   UNL d   1      13.476  14.128  -4.552  0.00  0.00     0.104 A 
ATOM     11  C   UNL d   1      13.329  13.550  -5.119  0.00  0.00     0.015 A 
ATOM     12  C   UNL d   1      13.206  12.767  -4.889  0.00  0.00     0.028 A 
ATOM     13  C   UNL d   1      13.059  12.188  -5.460  0.00  0.00     0.002 C 
ATOM     14  C   UNL d   1      13.230  12.563  -4.092  0.00  0.00     0.140 A 
ATOM     15  C   UNL d   1      13.376  13.141  -3.525  0.00  0.00     0.030 A 
ATOM     16  F   UNL d   1      13.106  11.780  -3.862  0.00  0.00    -0.204 F 
ATOM     17  C   UNL d   1      13.500  13.923  -3.755  0.00  0.00     0.015 A 
ENDBRANCH   7  10
ENDBRANCH   1   7
BRANCH   2  18
ATOM     18  C   UNL d   1      14.092  18.033  -5.699  0.00  0.00     0.064 A 
ATOM     19  C   UNL d   1      13.530  18.422  -6.157  0.00  0.00     0.016 A 
ATOM     20  C   UNL d   1      13.653  19.205  -6.387  0.00  0.00     0.001 A 
ATOM     21  C   UNL d   1      12.839  18.028  -6.387  0.00  0.00     0.002 C 
ATOM     22  C   UNL d   1      14.339  19.599  -6.159  0.00  0.00     0.000 A 
ATOM     23  C   UNL d   1      14.901  19.210  -5.701  0.00  0.00     0.002 A 
ATOM     24  C   UNL d   1      14.462  20.381  -6.389  0.00  0.00     0.000 C 
ATOM     25  C   UNL d   1      14.778  18.427  -5.471  0.00  0.00     0.018 A 
ENDBRANCH   2  18
TORSDOF 3
ENDMDL
MODEL 2
REMARK VINA RESULT:      67.8      2.167      5.343
REMARK  3 active torsions:
REMARK  status: ('A' for Active; 'I' for Inactive)
REMARK    1  A    between atoms: N_2  and  S_1 
REMARK    2  A    between atoms: C_3  and  S_1 
REMARK    3  A    between atoms: C_5  and  N_4 
ROOT
ATOM      1  N   UNL d   1      13.815  16.670  -5.479  0.00  0.00    -0.226 N 
ATOM      2  N   UNL d   1      13.553  15.091  -5.119  0.00  0.00    -0.301 N 
ATOM      3  C   UNL d   1      14.186  16.329  -4.829  0.00  0.00     0.111 A 
ATOM      4  C   UNL d   1      13.312  16.219  -5.948  0.00  0.00     0.111 A 
ATOM      5  C   UNL d   1      14.054  15.535  -4.648  0.00  0.00     0.100 A 
ATOM      6  C   UNL d   1      13.181  15.424  -5.767  0.00  0.00     0.100 A 
ENDROOT
BRANCH   1   7
ATOM      7  S   UNL d   1      13.946  17.464  -5.660  0.00  0.00     0.271 S 
ATOM      8  O   UNL d   1      13.570  17.361  -6.387  0.00  0.00    -0.200 OA
ATOM      9  O   UNL d   1      14.322  17.568  -4.933  0.00  0.00    -0.200 OA
BRANCH   7  10
ATOM     10  C   UNL d   1      14.078  18.259  -5.841  0.00  0.00     0.104 A 
ATOM     11  C   UNL d   1      13.444  18.751  -6.024  0.00  0.00     0.015 A 
ATOM     12  C   UNL d   1      13.575  19.545  -6.205  0.00  0.00     0.028 A 
ATOM     13  C   UNL d   1      12.936  20.037  -6.389  0.00  0.00     0.002 C 
ATOM     14  C   UNL d   1      14.340  19.847  -6.203  0.00  0.00     0.140 A 
ATOM     15  C   UNL d   1      14.974  19.356  -6.020  0.00  0.00     0.030 A 
ATOM     16  F   UNL d   1      14.472  20.641  -6.383  0.00  0.00    -0.204 F 
ATOM     17  C   UNL d   1      14.843  18.561  -5.839  0.00  0.00     0.015 A 
ENDBRANCH   7  10
ENDBRANCH   1   7
BRANCH   2  18
ATOM     18  C   UNL d   1      13.422  14.297  -4.938  0.00  0.00     0.064 A 
ATOM     19  C   UNL d   1      13.035  14.090  -4.242  0.00  0.00     0.016 A 
ATOM     20  C   UNL d   1      12.904  13.296  -4.061  0.00  0.00     0.001 A 
ATOM     21  C   UNL d   1      12.778  14.680  -3.722  0.00  0.00     0.002 C 
ATOM     22  C   UNL d   1      13.159  12.707  -4.576  0.00  0.00     0.000 A 
ATOM     23  C   UNL d   1      13.545  12.914  -5.273  0.00  0.00     0.002 A 
ATOM     24  C   UNL d   1      13.028  11.914  -4.396  0.00  0.00     0.000 C 
ATOM     25  C   UNL d   1      13.677  13.708  -5.454  0.00  0.00     0.018 A 
ENDBRANCH   2  18
TORSDOF 3
ENDMDL
