MODEL 1
REMARK VINA RESULT:      14.6      0.000      0.000
REMARK  5 active torsions:
REMARK  status: ('A' for Active; 'I' for Inactive)
REMARK    1  A    between atoms: C_2  and  S_1 
REMARK    2  A    between atoms: N_5  and  S_1 
REMARK    3  A    between atoms: C_12  and  N_5 
REMARK    4  A    between atoms: O_16  and  C_8 
REMARK    5  A    between atoms: C_13  and  C_12 
ROOT
ATOM      1  S   UNL d   1      45.766 -16.008  44.301  0.00  0.00     0.286 S 
ATOM      2  O   UNL d   1      45.274 -16.118  43.647  0.00  0.00    -0.198 OA
ATOM      3  O   UNL d   1      46.257 -15.898  44.954  0.00  0.00    -0.198 OA
ENDROOT
BRANCH   1   4
ATOM      4  C   UNL d   1      45.646 -15.193  44.253  0.00  0.00     0.117 A 
ATOM      5  C   UNL d   1      46.205 -14.716  43.876  0.00  0.00     0.027 A 
ATOM      6  C   UNL d   1      46.085 -13.901  43.829  0.00  0.00     0.081 A 
ATOM      7 CL   UNL d   1      46.647 -13.424  43.450  0.00  0.00    -0.080 Cl
ATOM      8  C   UNL d   1      45.408 -13.564  44.158  0.00  0.00     0.105 A 
ATOM      9  C   UNL d   1      44.850 -14.041  44.534  0.00  0.00     0.037 A 
ATOM     10  C   UNL d   1      44.970 -14.856  44.582  0.00  0.00     0.072 A 
ATOM     11 CL   UNL d   1      44.420 -15.332  44.953  0.00  0.00    -0.082 Cl
BRANCH   8  12
ATOM     12  O   UNL d   1      45.288 -12.748  44.110  0.00  0.00    -0.327 OA
ATOM     13  C   UNL d   1      44.779 -12.439  43.540  0.00  0.00     0.181 C 
ENDBRANCH   8  12
ENDBRANCH   1   4
BRANCH   1  14
ATOM     14  N   UNL d   1      45.885 -16.823  44.348  0.00  0.00    -0.155 NA
BRANCH  14  15
ATOM     15  C   UNL d   1      46.278 -17.219  43.740  0.00  0.00     0.131 C 
BRANCH  15  16
ATOM     16  C   UNL d   1      46.283 -18.044  43.720  0.00  0.00     0.101 A 
ATOM     17  N   UNL d   1      46.319 -18.473  44.424  0.00  0.00    -0.242 NA
ATOM     18  C   UNL d   1      46.324 -19.297  44.404  0.00  0.00     0.099 A 
ATOM     19  C   UNL d   1      46.293 -19.693  43.680  0.00  0.00     0.021 A 
ATOM     20  C   UNL d   1      46.258 -19.264  42.972  0.00  0.00     0.003 A 
ATOM     21  C   UNL d   1      46.253 -18.439  42.992  0.00  0.00     0.021 A 
ENDBRANCH  15  16
ENDBRANCH  14  15
ENDBRANCH   1  14
TORSDOF 5
ENDMDL
MODEL 2
REMARK VINA RESULT:      14.6      1.961      4.772
REMARK  5 active torsions:
REMARK  status: ('A' for Active; 'I' for Inactive)
REMARK    1  A    between atoms: C_2  and  S_1 
REMARK    2  A    between atoms: N_5  and  S_1 
REMARK    3  A    between atoms: C_12  and  N_5 
REMARK    4  A    between atoms: O_16  and  C_8 
REMARK    5  A    between atoms: C_13  and  C_12 
ROOT
ATOM      1  S   UNL d   1      46.252 -17.403  44.227  0.00  0.00     0.286 S 
ATOM      2  O   UNL d   1      46.298 -17.795  44.952  0.00  0.00    -0.198 OA
ATOM      3  O   UNL d   1      46.206 -17.011  43.503  0.00  0.00    -0.198 OA
ENDROOT
BRANCH   1   4
ATOM      4  C   UNL d   1      46.341 -18.122  43.832  0.00  0.00     0.117 A 
ATOM      5  C   UNL d   1      46.245 -18.832  44.242  0.00  0.00     0.027 A 
ATOM      6  C   UNL d   1      46.334 -19.551  43.847  0.00  0.00     0.081 A 
ATOM      7 CL   UNL d   1      46.238 -20.263  44.261  0.00  0.00    -0.080 Cl
ATOM      8  C   UNL d   1      46.519 -19.559  43.043  0.00  0.00     0.105 A 
ATOM      9  C   UNL d   1      46.615 -18.850  42.634  0.00  0.00     0.037 A 
ATOM     10  C   UNL d   1      46.526 -18.131  43.029  0.00  0.00     0.072 A 
ATOM     11 CL   UNL d   1      46.620 -17.426  42.628  0.00  0.00    -0.082 Cl
BRANCH   8  12
ATOM     12  O   UNL d   1      46.609 -20.279  42.648  0.00  0.00    -0.327 OA
ATOM     13  C   UNL d   1      46.532 -20.311  41.828  0.00  0.00     0.181 C 
ENDBRANCH   8  12
ENDBRANCH   1   4
BRANCH   1  14
ATOM     14  N   UNL d   1      46.163 -16.684  44.622  0.00  0.00    -0.155 NA
BRANCH  14  15
ATOM     15  C   UNL d   1      45.473 -16.242  44.523  0.00  0.00     0.131 C 
BRANCH  15  16
ATOM     16  C   UNL d   1      45.485 -15.426  44.646  0.00  0.00     0.101 A 
ATOM     17  N   UNL d   1      46.204 -15.021  44.655  0.00  0.00    -0.242 NA
ATOM     18  C   UNL d   1      46.216 -14.205  44.778  0.00  0.00     0.099 A 
ATOM     19  C   UNL d   1      45.509 -13.794  44.891  0.00  0.00     0.021 A 
ATOM     20  C   UNL d   1      44.786 -14.200  44.882  0.00  0.00     0.003 A 
ATOM     21  C   UNL d   1      44.774 -15.016  44.759  0.00  0.00     0.021 A 
ENDBRANCH  15  16
ENDBRANCH  14  15
ENDBRANCH   1  14
TORSDOF 5
ENDMDL
