MODEL 1
REMARK VINA RESULT:      59.4      0.000      0.000
REMARK  5 active torsions:
REMARK  status: ('A' for Active; 'I' for Inactive)
REMARK    1  A    between atoms: N_2  and  S_1 
REMARK    2  A    between atoms: C_14  and  S_1 
REMARK    3  A    between atoms: C_4  and  N_2 
REMARK    4  A    between atoms: S_6  and  C_3 
REMARK    5  A    between atoms: C_10  and  S_6 
ROOT
ATOM      1  C   UNL d   1      13.795  14.072  -3.608  0.00  0.00     0.070 A 
ATOM      2  C   UNL d   1      13.473  12.705  -3.370  0.00  0.00     0.095 A 
ATOM      3  C   UNL d   1      13.581  13.984  -4.401  0.00  0.00     0.202 A 
ATOM      4  C   UNL d   1      13.741  13.432  -3.093  0.00  0.00     0.030 A 
ATOM      5  C   UNL d   1      13.314  13.256  -4.677  0.00  0.00     0.041 A 
ATOM      6  C   UNL d   1      13.260  12.616  -4.162  0.00  0.00     0.022 A 
ATOM      7  O   UNL d   1      13.635  14.634  -4.930  0.00  0.00    -0.286 OA
ATOM      8  C   UNL d   1      13.098  13.167  -5.477  0.00  0.00     0.003 A 
ATOM      9  C   UNL d   1      12.992  11.884  -4.437  0.00  0.00     0.002 A 
ATOM     10  C   UNL d   1      12.831  12.439  -5.754  0.00  0.00     0.000 A 
ATOM     11  C   UNL d   1      12.776  11.795  -5.238  0.00  0.00     0.000 A 
ENDROOT
BRANCH   1  12
ATOM     12  S   UNL d   1      14.062  14.800  -3.331  0.00  0.00    -0.082 SA
BRANCH  12  13
ATOM     13  C   UNL d   1      14.328  15.530  -3.052  0.00  0.00     0.047 A 
ATOM     14  C   UNL d   1      14.592  16.107  -3.580  0.00  0.00     0.087 A 
ATOM     15  N   UNL d   1      14.589  15.950  -4.390  0.00  0.00    -0.244 NA
ATOM     16  C   UNL d   1      14.856  16.833  -3.298  0.00  0.00     0.018 A 
ATOM     17  C   UNL d   1      14.853  16.527  -4.917  0.00  0.00     0.099 A 
ATOM     18  C   UNL d   1      15.118  17.256  -4.632  0.00  0.00     0.021 A 
ATOM     19  C   UNL d   1      15.122  17.415  -3.831  0.00  0.00     0.003 A 
ATOM     20  C   UNL d   1      14.859  16.990  -2.494  0.00  0.00     0.002 A 
ATOM     21  C   UNL d   1      14.597  16.421  -1.957  0.00  0.00     0.001 A 
ATOM     22  C   UNL d   1      14.329  15.686  -2.236  0.00  0.00     0.008 A 
ENDBRANCH  12  13
ENDBRANCH   1  12
BRANCH   2  23
ATOM     23  N   UNL d   1      13.420  12.054  -2.840  0.00  0.00    -0.158 NA
BRANCH  23  24
ATOM     24  S   UNL d   1      13.857  12.060  -2.138  0.00  0.00     0.285 S 
ATOM     25  O   UNL d   1      13.159  11.927  -1.700  0.00  0.00    -0.198 OA
ATOM     26  O   UNL d   1      14.549  12.191  -2.569  0.00  0.00    -0.198 OA
BRANCH  24  27
ATOM     27  C   UNL d   1      14.296  12.065  -1.433  0.00  0.00     0.105 A 
ATOM     28  C   UNL d   1      15.070  11.785  -1.427  0.00  0.00     0.013 A 
ATOM     29  C   UNL d   1      15.515  11.788  -0.725  0.00  0.00     0.001 A 
ATOM     30  C   UNL d   1      15.175  12.077  -0.025  0.00  0.00     0.000 A 
ATOM     31  C   UNL d   1      14.391  12.360  -0.038  0.00  0.00     0.001 A 
ATOM     32  C   UNL d   1      13.959  12.353  -0.737  0.00  0.00     0.013 A 
ENDBRANCH  24  27
ENDBRANCH  23  24
ENDBRANCH   2  23
TORSDOF 5
ENDMDL
MODEL 2
REMARK VINA RESULT:      62.2      1.001      3.918
REMARK  5 active torsions:
REMARK  status: ('A' for Active; 'I' for Inactive)
REMARK    1  A    between atoms: N_2  and  S_1 
REMARK    2  A    between atoms: C_14  and  S_1 
REMARK    3  A    between atoms: C_4  and  N_2 
REMARK    4  A    between atoms: S_6  and  C_3 
REMARK    5  A    between atoms: C_10  and  S_6 
ROOT
ATOM      1  C   UNL d   1      13.591  13.066  -3.045  0.00  0.00     0.070 A 
ATOM      2  C   UNL d   1      13.713  14.181  -3.925  0.00  0.00     0.095 A 
ATOM      3  C   UNL d   1      13.357  12.592  -3.678  0.00  0.00     0.202 A 
ATOM      4  C   UNL d   1      13.770  13.861  -3.168  0.00  0.00     0.030 A 
ATOM      5  C   UNL d   1      13.301  12.913  -4.434  0.00  0.00     0.041 A 
ATOM      6  C   UNL d   1      13.479  13.706  -4.558  0.00  0.00     0.022 A 
ATOM      7  O   UNL d   1      13.174  11.781  -3.556  0.00  0.00    -0.286 OA
ATOM      8  C   UNL d   1      13.064  12.433  -5.074  0.00  0.00     0.003 A 
ATOM      9  C   UNL d   1      13.423  14.030  -5.316  0.00  0.00     0.002 A 
ATOM     10  C   UNL d   1      13.007  12.753  -5.830  0.00  0.00     0.000 A 
ATOM     11  C   UNL d   1      13.186  13.551  -5.956  0.00  0.00     0.000 A 
ENDROOT
BRANCH   1  12
ATOM     12  S   UNL d   1      13.648  12.747  -2.288  0.00  0.00    -0.082 SA
BRANCH  12  13
ATOM     13  C   UNL d   1      13.703  12.424  -1.530  0.00  0.00     0.047 A 
ATOM     14  C   UNL d   1      14.440  12.321  -1.174  0.00  0.00     0.087 A 
ATOM     15  N   UNL d   1      15.124  12.541  -1.579  0.00  0.00    -0.244 NA
ATOM     16  C   UNL d   1      14.491  11.999  -0.418  0.00  0.00     0.018 A 
ATOM     17  C   UNL d   1      15.860  12.438  -1.223  0.00  0.00     0.099 A 
ATOM     18  C   UNL d   1      15.909  12.114  -0.464  0.00  0.00     0.021 A 
ATOM     19  C   UNL d   1      15.235  11.894  -0.059  0.00  0.00     0.003 A 
ATOM     20  C   UNL d   1      13.813  11.779  -0.014  0.00  0.00     0.002 A 
ATOM     21  C   UNL d   1      13.070  11.879  -0.361  0.00  0.00     0.001 A 
ATOM     22  C   UNL d   1      13.013  12.203  -1.123  0.00  0.00     0.008 A 
ENDBRANCH  12  13
ENDBRANCH   1  12
BRANCH   2  23
ATOM     23  N   UNL d   1      13.896  14.992  -4.046  0.00  0.00    -0.158 NA
BRANCH  23  24
ATOM     24  S   UNL d   1      14.228  15.434  -3.432  0.00  0.00     0.285 S 
ATOM     25  O   UNL d   1      13.522  15.362  -2.994  0.00  0.00    -0.198 OA
ATOM     26  O   UNL d   1      14.929  15.507  -3.862  0.00  0.00    -0.198 OA
BRANCH  24  27
ATOM     27  C   UNL d   1      14.563  15.878  -2.815  0.00  0.00     0.105 A 
ATOM     28  C   UNL d   1      14.457  15.644  -2.033  0.00  0.00     0.013 A 
ATOM     29  C   UNL d   1      14.790  16.085  -1.411  0.00  0.00     0.001 A 
ATOM     30  C   UNL d   1      15.233  16.766  -1.581  0.00  0.00     0.000 A 
ATOM     31  C   UNL d   1      15.336  16.998  -2.376  0.00  0.00     0.001 A 
ATOM     32  C   UNL d   1      15.003  16.556  -2.984  0.00  0.00     0.013 A 
ENDBRANCH  24  27
ENDBRANCH  23  24
ENDBRANCH   2  23
TORSDOF 5
ENDMDL
