MODEL 1
REMARK VINA RESULT:      -6.9      0.000      0.000
REMARK  7 active torsions:
REMARK  status: ('A' for Active; 'I' for Inactive)
REMARK    1  A    between atoms: C_2  and  S_1 
REMARK    2  A    between atoms: N_3  and  S_1 
REMARK    3  A    between atoms: C_15  and  N_3 
REMARK    4  A    between atoms: C_6  and  C_16 
REMARK       I    between atoms: N_7  and  C_6 
REMARK    5  A    between atoms: C_8  and  N_7 
REMARK    6  A    between atoms: C_17  and  C_15 
REMARK    7  A    between atoms: C_16  and  C_17 
ROOT
ATOM      1  N   UNL d   1     -47.941  13.368  22.679  0.00  0.00    -0.228 N 
ATOM      2  C   UNL d   1     -48.067  12.776  23.247  0.00  0.00     0.111 C 
ENDROOT
BRANCH   1   3
ATOM      3  S   UNL d   1     -48.581  13.680  22.261  0.00  0.00     0.271 S 
ATOM      4  O   UNL d   1     -48.722  13.432  21.489  0.00  0.00    -0.200 OA
ATOM      5  O   UNL d   1     -48.445  13.934  23.037  0.00  0.00    -0.200 OA
BRANCH   3   6
ATOM      6  C   UNL d   1     -49.078  14.242  22.623  0.00  0.00     0.104 A 
ATOM      7  C   UNL d   1     -48.935  15.044  22.488  0.00  0.00     0.013 A 
ATOM      8  C   UNL d   1     -49.427  15.601  22.847  0.00  0.00     0.001 A 
ATOM      9  C   UNL d   1     -50.051  15.358  23.332  0.00  0.00     0.000 A 
ATOM     10  C   UNL d   1     -50.182  14.553  23.458  0.00  0.00     0.001 A 
ATOM     11  C   UNL d   1     -50.539  15.920  23.688  0.00  0.00     0.000 C 
ATOM     12  C   UNL d   1     -49.692  13.993  23.101  0.00  0.00     0.013 A 
ENDBRANCH   3   6
ENDBRANCH   1   3
BRANCH   1  13
ATOM     13  C   UNL d   1     -47.176  13.642  22.536  0.00  0.00     0.092 C 
BRANCH  13  14
ATOM     14  C   UNL d   1     -46.538  13.125  22.579  0.00  0.00     0.025 C 
BRANCH  14  15
ATOM     15  C   UNL d   1     -45.802  13.350  22.281  0.00  0.00     0.064 C 
BRANCH  15  16
ATOM     16  C   UNL d   1     -45.148  12.860  22.381  0.00  0.00     0.275 C 
ATOM     17  N   UNL d   1     -44.531  12.876  21.833  0.00  0.00    -0.238 NA
ATOM     18  O   UNL d   1     -45.105  12.354  23.023  0.00  0.00    -0.266 OA
BRANCH  17  19
ATOM     19  C   UNL d   1     -43.872  12.386  21.929  0.00  0.00     0.088 C 
ATOM     20  C   UNL d   1     -43.159  12.570  21.555  0.00  0.00     0.025 C 
ATOM     21  C   UNL d   1     -43.933  11.712  22.399  0.00  0.00     0.025 C 
ATOM     22  C   UNL d   1     -44.027  13.085  21.517  0.00  0.00     0.025 C 
ENDBRANCH  17  19
ENDBRANCH  15  16
ENDBRANCH  14  15
ENDBRANCH  13  14
ENDBRANCH   1  13
TORSDOF 7
ENDMDL
MODEL 2
REMARK VINA RESULT:      -6.7      1.246      1.641
REMARK  7 active torsions:
REMARK  status: ('A' for Active; 'I' for Inactive)
REMARK    1  A    between atoms: C_2  and  S_1 
REMARK    2  A    between atoms: N_3  and  S_1 
REMARK    3  A    between atoms: C_15  and  N_3 
REMARK    4  A    between atoms: C_6  and  C_16 
REMARK       I    between atoms: N_7  and  C_6 
REMARK    5  A    between atoms: C_8  and  N_7 
REMARK    6  A    between atoms: C_17  and  C_15 
REMARK    7  A    between atoms: C_16  and  C_17 
ROOT
ATOM      1  N   UNL d   1     -47.646  13.397  22.555  0.00  0.00    -0.228 N 
ATOM      2  C   UNL d   1     -47.943  12.970  21.908  0.00  0.00     0.111 C 
ENDROOT
BRANCH   1   3
ATOM      3  S   UNL d   1     -47.820  14.200  22.632  0.00  0.00     0.271 S 
ATOM      4  O   UNL d   1     -47.209  14.752  22.616  0.00  0.00    -0.200 OA
ATOM      5  O   UNL d   1     -48.439  13.651  22.649  0.00  0.00    -0.200 OA
BRANCH   3   6
ATOM      6  C   UNL d   1     -48.610  14.445  22.725  0.00  0.00     0.104 A 
ATOM      7  C   UNL d   1     -48.846  14.759  23.452  0.00  0.00     0.013 A 
ATOM      8  C   UNL d   1     -49.630  15.002  23.544  0.00  0.00     0.001 A 
ATOM      9  C   UNL d   1     -50.167  14.932  22.920  0.00  0.00     0.000 A 
ATOM     10  C   UNL d   1     -49.917  14.616  22.199  0.00  0.00     0.001 A 
ATOM     11  C   UNL d   1     -50.948  15.176  23.020  0.00  0.00     0.000 C 
ATOM     12  C   UNL d   1     -49.135  14.372  22.103  0.00  0.00     0.013 A 
ENDBRANCH   3   6
ENDBRANCH   1   3
BRANCH   1  13
ATOM     13  C   UNL d   1     -47.178  13.015  23.117  0.00  0.00     0.092 C 
BRANCH  13  14
ATOM     14  C   UNL d   1     -46.544  12.550  22.878  0.00  0.00     0.025 C 
BRANCH  14  15
ATOM     15  C   UNL d   1     -46.088  12.153  23.440  0.00  0.00     0.064 C 
BRANCH  15  16
ATOM     16  C   UNL d   1     -45.386  11.783  23.216  0.00  0.00     0.275 C 
ATOM     17  N   UNL d   1     -45.156  11.079  23.578  0.00  0.00    -0.238 NA
ATOM     18  O   UNL d   1     -44.913  12.112  22.633  0.00  0.00    -0.266 OA
BRANCH  17  19
ATOM     19  C   UNL d   1     -44.453  10.704  23.358  0.00  0.00     0.088 C 
ATOM     20  C   UNL d   1     -44.364   9.890  23.466  0.00  0.00     0.025 C 
ATOM     21  C   UNL d   1     -43.842  11.148  23.030  0.00  0.00     0.025 C 
ATOM     22  C   UNL d   1     -45.167  10.458  23.693  0.00  0.00     0.025 C 
ENDBRANCH  17  19
ENDBRANCH  15  16
ENDBRANCH  14  15
ENDBRANCH  13  14
ENDBRANCH   1  13
TORSDOF 7
ENDMDL
MODEL 3
REMARK VINA RESULT:      -6.2      8.185      9.406
REMARK  7 active torsions:
REMARK  status: ('A' for Active; 'I' for Inactive)
REMARK    1  A    between atoms: C_2  and  S_1 
REMARK    2  A    between atoms: N_3  and  S_1 
REMARK    3  A    between atoms: C_15  and  N_3 
REMARK    4  A    between atoms: C_6  and  C_16 
REMARK       I    between atoms: N_7  and  C_6 
REMARK    5  A    between atoms: C_8  and  N_7 
REMARK    6  A    between atoms: C_17  and  C_15 
REMARK    7  A    between atoms: C_16  and  C_17 
ROOT
ATOM      1  N   UNL d   1     -39.978  14.794  18.822  0.00  0.00    -0.228 N 
ATOM      2  C   UNL d   1     -39.971  15.623  18.779  0.00  0.00     0.111 C 
ENDROOT
BRANCH   1   3
ATOM      3  S   UNL d   1     -40.200  14.350  18.161  0.00  0.00     0.271 S 
ATOM      4  O   UNL d   1     -40.950  14.014  18.131  0.00  0.00    -0.200 OA
ATOM      5  O   UNL d   1     -39.443  14.685  18.186  0.00  0.00    -0.200 OA
BRANCH   3   6
ATOM      6  C   UNL d   1     -39.663  14.246  17.533  0.00  0.00     0.104 A 
ATOM      7  C   UNL d   1     -39.637  14.815  16.935  0.00  0.00     0.013 A 
ATOM      8  C   UNL d   1     -39.105  14.712  16.312  0.00  0.00     0.001 A 
ATOM      9  C   UNL d   1     -38.608  14.051  16.290  0.00  0.00     0.000 A 
ATOM     10  C   UNL d   1     -38.645  13.491  16.895  0.00  0.00     0.001 A 
ATOM     11  C   UNL d   1     -38.078  13.955  15.665  0.00  0.00     0.000 C 
ATOM     12  C   UNL d   1     -39.175  13.590  17.519  0.00  0.00     0.013 A 
ENDBRANCH   3   6
ENDBRANCH   1   3
BRANCH   1  13
ATOM     13  C   UNL d   1     -39.763  14.417  19.524  0.00  0.00     0.092 C 
BRANCH  13  14
ATOM     14  C   UNL d   1     -39.873  14.797  20.245  0.00  0.00     0.025 C 
BRANCH  14  15
ATOM     15  C   UNL d   1     -39.669  14.416  20.948  0.00  0.00     0.064 C 
BRANCH  15  16
ATOM     16  C   UNL d   1     -39.551  14.853  21.636  0.00  0.00     0.275 C 
ATOM     17  N   UNL d   1     -38.921  14.673  22.138  0.00  0.00    -0.238 NA
ATOM     18  O   UNL d   1     -40.056  15.469  21.826  0.00  0.00    -0.266 OA
BRANCH  17  19
ATOM     19  C   UNL d   1     -38.798  15.109  22.829  0.00  0.00     0.088 C 
ATOM     20  C   UNL d   1     -38.796  14.731  23.564  0.00  0.00     0.025 C 
ATOM     21  C   UNL d   1     -38.677  15.922  22.780  0.00  0.00     0.025 C 
ATOM     22  C   UNL d   1     -38.934  14.313  22.656  0.00  0.00     0.025 C 
ENDBRANCH  17  19
ENDBRANCH  15  16
ENDBRANCH  14  15
ENDBRANCH  13  14
ENDBRANCH   1  13
TORSDOF 7
ENDMDL
MODEL 4
REMARK VINA RESULT:      -6.2      1.151      5.194
REMARK  7 active torsions:
REMARK  status: ('A' for Active; 'I' for Inactive)
REMARK    1  A    between atoms: C_2  and  S_1 
REMARK    2  A    between atoms: N_3  and  S_1 
REMARK    3  A    between atoms: C_15  and  N_3 
REMARK    4  A    between atoms: C_6  and  C_16 
REMARK       I    between atoms: N_7  and  C_6 
REMARK    5  A    between atoms: C_8  and  N_7 
REMARK    6  A    between atoms: C_17  and  C_15 
REMARK    7  A    between atoms: C_16  and  C_17 
ROOT
ATOM      1  N   UNL d   1     -46.927  13.167  22.501  0.00  0.00    -0.228 N 
ATOM      2  C   UNL d   1     -47.222  12.736  21.856  0.00  0.00     0.111 C 
ENDROOT
BRANCH   1   3
ATOM      3  S   UNL d   1     -46.263  12.894  22.909  0.00  0.00     0.271 S 
ATOM      4  O   UNL d   1     -46.336  12.668  23.697  0.00  0.00    -0.200 OA
ATOM      5  O   UNL d   1     -46.184  13.119  22.116  0.00  0.00    -0.200 OA
BRANCH   3   6
ATOM      6  C   UNL d   1     -45.528  12.849  22.521  0.00  0.00     0.104 A 
ATOM      7  C   UNL d   1     -45.284  13.487  22.057  0.00  0.00     0.013 A 
ATOM      8  C   UNL d   1     -44.554  13.442  21.672  0.00  0.00     0.001 A 
ATOM      9  C   UNL d   1     -44.080  12.770  21.751  0.00  0.00     0.000 A 
ATOM     10  C   UNL d   1     -44.337  12.139  22.217  0.00  0.00     0.001 A 
ATOM     11  C   UNL d   1     -43.353  12.732  21.363  0.00  0.00     0.000 C 
ATOM     12  C   UNL d   1     -45.064  12.180  22.603  0.00  0.00     0.013 A 
ENDBRANCH   3   6
ENDBRANCH   1   3
BRANCH   1  13
ATOM     13  C   UNL d   1     -47.298  13.867  22.730  0.00  0.00     0.092 C 
BRANCH  13  14
ATOM     14  C   UNL d   1     -48.119  13.905  22.770  0.00  0.00     0.025 C 
BRANCH  14  15
ATOM     15  C   UNL d   1     -48.495  14.632  22.875  0.00  0.00     0.064 C 
BRANCH  15  16
ATOM     16  C   UNL d   1     -49.305  14.661  23.020  0.00  0.00     0.275 C 
ATOM     17  N   UNL d   1     -49.709  15.378  22.969  0.00  0.00    -0.238 NA
ATOM     18  O   UNL d   1     -49.715  13.979  23.216  0.00  0.00    -0.266 OA
BRANCH  17  19
ATOM     19  C   UNL d   1     -50.522  15.413  23.114  0.00  0.00     0.088 C 
ATOM     20  C   UNL d   1     -50.820  15.921  23.693  0.00  0.00     0.025 C 
ATOM     21  C   UNL d   1     -51.032  14.938  22.676  0.00  0.00     0.025 C 
ATOM     22  C   UNL d   1     -49.856  15.789  23.425  0.00  0.00     0.025 C 
ENDBRANCH  17  19
ENDBRANCH  15  16
ENDBRANCH  14  15
ENDBRANCH  13  14
ENDBRANCH   1  13
TORSDOF 7
ENDMDL
