MODEL 1
REMARK VINA RESULT:      18.6      0.000      0.000
REMARK  3 active torsions:
REMARK  status: ('A' for Active; 'I' for Inactive)
REMARK    1  A    between atoms: C_3  and  N_1 
REMARK    2  A    between atoms: N_2  and  C_4 
REMARK    3  A    between atoms: C_7  and  C_8 
ROOT
ATOM      1  C   UNL d   1      13.256  13.315  -4.268  0.00  0.00     0.146 A 
ATOM      2  C   UNL d   1      13.441  13.162  -3.473  0.00  0.00     0.025 A 
ATOM      3  C   UNL d   1      13.349  12.393  -3.162  0.00  0.00     0.002 A 
ATOM      4  C   UNL d   1      12.979  12.697  -4.758  0.00  0.00     0.125 A 
ATOM      5  C   UNL d   1      13.074  11.780  -3.647  0.00  0.00     0.002 A 
ATOM      6  C   UNL d   1      12.887  11.929  -4.447  0.00  0.00     0.023 A 
ATOM      7  N   UNL d   1      12.798  12.845  -5.536  0.00  0.00    -0.146 N 
ENDROOT
BRANCH   3   8
ATOM      8  C   UNL d   1      13.532  12.241  -2.375  0.00  0.00     0.002 A 
ATOM      9  C   UNL d   1      14.290  12.387  -2.089  0.00  0.00     0.025 A 
ATOM     10  C   UNL d   1      14.468  12.232  -1.300  0.00  0.00     0.146 A 
ATOM     11  C   UNL d   1      13.890  11.932  -0.796  0.00  0.00     0.125 A 
ATOM     12  C   UNL d   1      13.131  11.786  -1.082  0.00  0.00     0.023 A 
ATOM     13  N   UNL d   1      14.070  11.780  -0.014  0.00  0.00    -0.146 N 
ATOM     14  C   UNL d   1      12.950  11.940  -1.873  0.00  0.00     0.002 A 
BRANCH  10  15
ATOM     15  N   UNL d   1      15.223  12.377  -1.015  0.00  0.00    -0.112 N 
ATOM     16  O   UNL d   1      15.412  12.917  -0.422  0.00  0.00    -0.532 OA
ATOM     17  O   UNL d   1      15.891  11.999  -1.288  0.00  0.00    -0.532 OA
ENDBRANCH  10  15
ENDBRANCH   3   8
BRANCH   1  18
ATOM     18  N   UNL d   1      13.345  14.064  -4.571  0.00  0.00    -0.112 N 
ATOM     19  O   UNL d   1      14.027  14.338  -4.950  0.00  0.00    -0.532 OA
ATOM     20  O   UNL d   1      12.771  14.631  -4.536  0.00  0.00    -0.532 OA
ENDBRANCH   1  18
TORSDOF 3
ENDMDL
