MODEL 1
REMARK VINA RESULT:      -2.9      0.000      0.000
REMARK  4 active torsions:
REMARK  status: ('A' for Active; 'I' for Inactive)
REMARK    1  A    between atoms: C_6  and  C_1 
REMARK    2  A    between atoms: N_7  and  C_2 
REMARK    3  A    between atoms: C_8  and  C_5 
REMARK    4  A    between atoms: O_10  and  C_6 
ROOT
ATOM      1  C   UNL d   1      31.686  17.296 -23.979  0.00  0.00     0.186 A 
ATOM      2  C   UNL d   1      32.030  16.632 -23.583  0.00  0.00     0.193 A 
ATOM      3  N   UNL d   1      30.896  17.154 -24.082  0.00  0.00    -0.213 NA
ATOM      4  O   UNL d   1      31.396  16.084 -23.454  0.00  0.00    -0.271 OA
ATOM      5  C   UNL d   1      30.713  16.451 -23.781  0.00  0.00     0.184 A 
ENDROOT
BRANCH   5   6
ATOM      6  C   UNL d   1      29.981  16.333 -23.882  0.00  0.00     0.041 A 
ATOM      7  C   UNL d   1      29.992  15.829 -23.212  0.00  0.00     0.004 A 
ATOM      8  C   UNL d   1      29.298  15.452 -22.960  0.00  0.00     0.000 A 
ATOM      9  C   UNL d   1      28.597  15.581 -23.376  0.00  0.00     0.000 A 
ATOM     10  C   UNL d   1      28.586  16.085 -24.046  0.00  0.00     0.000 A 
ATOM     11  C   UNL d   1      29.277  16.446 -24.280  0.00  0.00     0.004 A 
ENDBRANCH   5   6
BRANCH   1  12
ATOM     12  C   UNL d   1      32.171  17.795 -24.116  0.00  0.00     0.317 C 
ATOM     13  O   UNL d   1      32.653  18.368 -23.649  0.00  0.00    -0.257 OA
BRANCH  12  14
ATOM     14  O   UNL d   1      32.451  18.012 -24.760  0.00  0.00    -0.294 OA
ATOM     15  C   UNL d   1      32.515  18.800 -25.094  0.00  0.00     0.185 C 
ENDBRANCH  12  14
ENDBRANCH   1  12
BRANCH   2  16
ATOM     16  N   UNL d   1      32.672  16.712 -23.483  0.00  0.00    -0.281 N 
ATOM     17  C   UNL d   1      32.865  16.001 -23.806  0.00  0.00     0.101 C 
ATOM     18  C   UNL d   1      33.241  17.190 -23.199  0.00  0.00     0.101 C 
ENDBRANCH   2  16
TORSDOF 4
ENDMDL
MODEL 2
REMARK VINA RESULT:      -2.8      1.131      3.336
REMARK  4 active torsions:
REMARK  status: ('A' for Active; 'I' for Inactive)
REMARK    1  A    between atoms: C_6  and  C_1 
REMARK    2  A    between atoms: N_7  and  C_2 
REMARK    3  A    between atoms: C_8  and  C_5 
REMARK    4  A    between atoms: O_10  and  C_6 
ROOT
ATOM      1  C   UNL d   1      30.832  16.804 -24.230  0.00  0.00     0.186 A 
ATOM      2  C   UNL d   1      31.188  16.453 -23.547  0.00  0.00     0.193 A 
ATOM      3  N   UNL d   1      31.264  17.455 -24.440  0.00  0.00    -0.213 NA
ATOM      4  O   UNL d   1      31.860  16.935 -23.361  0.00  0.00    -0.271 OA
ATOM      5  C   UNL d   1      31.866  17.544 -23.943  0.00  0.00     0.184 A 
ENDROOT
BRANCH   5   6
ATOM      6  C   UNL d   1      32.257  18.148 -24.148  0.00  0.00     0.041 A 
ATOM      7  C   UNL d   1      32.484  18.247 -23.347  0.00  0.00     0.004 A 
ATOM      8  C   UNL d   1      32.976  18.876 -23.125  0.00  0.00     0.000 A 
ATOM      9  C   UNL d   1      33.238  19.403 -23.703  0.00  0.00     0.000 A 
ATOM     10  C   UNL d   1      33.011  19.305 -24.504  0.00  0.00     0.000 A 
ATOM     11  C   UNL d   1      32.528  18.682 -24.704  0.00  0.00     0.004 A 
ENDBRANCH   5   6
BRANCH   1  12
ATOM     12  C   UNL d   1      30.258  16.443 -24.437  0.00  0.00     0.317 C 
ATOM     13  O   UNL d   1      30.085  15.638 -24.756  0.00  0.00    -0.257 OA
BRANCH  12  14
ATOM     14  O   UNL d   1      29.553  16.650 -24.451  0.00  0.00    -0.294 OA
ATOM     15  C   UNL d   1      28.988  16.635 -25.097  0.00  0.00     0.185 C 
ENDBRANCH  12  14
ENDBRANCH   1  12
BRANCH   2  16
ATOM     16  N   UNL d   1      30.863  15.920 -23.348  0.00  0.00    -0.281 N 
ATOM     17  C   UNL d   1      31.523  15.460 -23.329  0.00  0.00     0.101 C 
ATOM     18  C   UNL d   1      30.157  15.615 -23.149  0.00  0.00     0.101 C 
ENDBRANCH   2  16
TORSDOF 4
ENDMDL
MODEL 3
REMARK VINA RESULT:      -2.6      1.446      3.282
REMARK  4 active torsions:
REMARK  status: ('A' for Active; 'I' for Inactive)
REMARK    1  A    between atoms: C_6  and  C_1 
REMARK    2  A    between atoms: N_7  and  C_2 
REMARK    3  A    between atoms: C_8  and  C_5 
REMARK    4  A    between atoms: O_10  and  C_6 
ROOT
ATOM      1  C   UNL d   1      29.786  16.768 -24.036  0.00  0.00     0.186 A 
ATOM      2  C   UNL d   1      29.676  15.973 -23.769  0.00  0.00     0.193 A 
ATOM      3  N   UNL d   1      30.573  16.948 -23.992  0.00  0.00    -0.213 NA
ATOM      4  O   UNL d   1      30.447  15.688 -23.561  0.00  0.00    -0.271 OA
ATOM      5  C   UNL d   1      30.971  16.328 -23.717  0.00  0.00     0.184 A 
ENDROOT
BRANCH   5   6
ATOM      6  C   UNL d   1      31.696  16.508 -23.681  0.00  0.00     0.041 A 
ATOM      7  C   UNL d   1      31.851  15.736 -23.392  0.00  0.00     0.004 A 
ATOM      8  C   UNL d   1      32.625  15.506 -23.207  0.00  0.00     0.000 A 
ATOM      9  C   UNL d   1      33.241  16.046 -23.311  0.00  0.00     0.000 A 
ATOM     10  C   UNL d   1      33.086  16.817 -23.599  0.00  0.00     0.000 A 
ATOM     11  C   UNL d   1      32.320  17.026 -23.776  0.00  0.00     0.004 A 
ENDBRANCH   5   6
BRANCH   1  12
ATOM     12  C   UNL d   1      29.171  17.065 -24.227  0.00  0.00     0.317 C 
ATOM     13  O   UNL d   1      28.400  17.253 -23.838  0.00  0.00    -0.257 OA
BRANCH  12  14
ATOM     14  O   UNL d   1      28.962  17.336 -24.877  0.00  0.00    -0.294 OA
ATOM     15  C   UNL d   1      28.754  18.139 -25.097  0.00  0.00     0.185 C 
ENDBRANCH  12  14
ENDBRANCH   1  12
BRANCH   2  16
ATOM     16  N   UNL d   1      29.047  15.792 -23.791  0.00  0.00    -0.281 N 
ATOM     17  C   UNL d   1      29.030  15.563 -23.019  0.00  0.00     0.101 C 
ATOM     18  C   UNL d   1      28.394  15.728 -24.241  0.00  0.00     0.101 C 
ENDBRANCH   2  16
TORSDOF 4
ENDMDL
MODEL 4
REMARK VINA RESULT:      -2.4      2.432      4.149
REMARK  4 active torsions:
REMARK  status: ('A' for Active; 'I' for Inactive)
REMARK    1  A    between atoms: C_6  and  C_1 
REMARK    2  A    between atoms: N_7  and  C_2 
REMARK    3  A    between atoms: C_8  and  C_5 
REMARK    4  A    between atoms: O_10  and  C_6 
ROOT
ATOM      1  C   UNL d   1      32.826  17.943 -23.283  0.00  0.00     0.186 A 
ATOM      2  C   UNL d   1      32.856  18.418 -23.983  0.00  0.00     0.193 A 
ATOM      3  N   UNL d   1      32.889  18.430 -22.640  0.00  0.00    -0.213 NA
ATOM      4  O   UNL d   1      32.942  19.219 -23.719  0.00  0.00    -0.271 OA
ATOM      5  C   UNL d   1      32.957  19.176 -22.878  0.00  0.00     0.184 A 
ENDROOT
BRANCH   5   6
ATOM      6  C   UNL d   1      33.015  19.615 -22.275  0.00  0.00     0.041 A 
ATOM      7  C   UNL d   1      33.117  20.270 -22.787  0.00  0.00     0.004 A 
ATOM      8  C   UNL d   1      33.226  21.031 -22.477  0.00  0.00     0.000 A 
ATOM      9  C   UNL d   1      33.231  21.134 -21.658  0.00  0.00     0.000 A 
ATOM     10  C   UNL d   1      33.129  20.479 -21.146  0.00  0.00     0.000 A 
ATOM     11  C   UNL d   1      33.024  19.739 -21.467  0.00  0.00     0.004 A 
ENDBRANCH   5   6
BRANCH   1  12
ATOM     12  C   UNL d   1      32.754  17.256 -23.439  0.00  0.00     0.317 C 
ATOM     13  O   UNL d   1      32.133  16.738 -23.792  0.00  0.00    -0.257 OA
BRANCH  12  14
ATOM     14  O   UNL d   1      33.228  16.702 -23.344  0.00  0.00    -0.294 OA
ATOM     15  C   UNL d   1      33.102  15.921 -23.011  0.00  0.00     0.185 C 
ENDBRANCH  12  14
ENDBRANCH   1  12
BRANCH   2  16
ATOM     16  N   UNL d   1      32.808  18.055 -24.527  0.00  0.00    -0.281 N 
ATOM     17  C   UNL d   1      32.162  18.453 -24.797  0.00  0.00     0.101 C 
ATOM     18  C   UNL d   1      33.114  17.455 -24.948  0.00  0.00     0.101 C 
ENDBRANCH   2  16
TORSDOF 4
ENDMDL
MODEL 5
REMARK VINA RESULT:      -2.0      4.806      6.149
REMARK  4 active torsions:
REMARK  status: ('A' for Active; 'I' for Inactive)
REMARK    1  A    between atoms: C_6  and  C_1 
REMARK    2  A    between atoms: N_7  and  C_2 
REMARK    3  A    between atoms: C_8  and  C_5 
REMARK    4  A    between atoms: O_10  and  C_6 
ROOT
ATOM      1  C   UNL d   1      32.866  22.036 -20.926  0.00  0.00     0.186 A 
ATOM      2  C   UNL d   1      32.940  22.437 -21.668  0.00  0.00     0.193 A 
ATOM      3  N   UNL d   1      32.921  21.240 -21.058  0.00  0.00    -0.213 NA
ATOM      4  O   UNL d   1      33.044  21.831 -22.251  0.00  0.00    -0.271 OA
ATOM      5  C   UNL d   1      33.025  21.105 -21.825  0.00  0.00     0.184 A 
ENDROOT
BRANCH   5   6
ATOM      6  C   UNL d   1      33.074  20.366 -21.933  0.00  0.00     0.041 A 
ATOM      7  C   UNL d   1      33.144  20.512 -22.755  0.00  0.00     0.004 A 
ATOM      8  C   UNL d   1      33.227  19.882 -23.287  0.00  0.00     0.000 A 
ATOM      9  C   UNL d   1      33.241  19.110 -22.996  0.00  0.00     0.000 A 
ATOM     10  C   UNL d   1      33.172  18.964 -22.174  0.00  0.00     0.000 A 
ATOM     11  C   UNL d   1      33.091  19.594 -21.666  0.00  0.00     0.004 A 
ENDBRANCH   5   6
BRANCH   1  12
ATOM     12  C   UNL d   1      32.776  22.493 -20.392  0.00  0.00     0.317 C 
ATOM     13  O   UNL d   1      32.135  23.028 -20.105  0.00  0.00    -0.257 OA
BRANCH  12  14
ATOM     14  O   UNL d   1      33.240  22.684 -19.855  0.00  0.00    -0.294 OA
ATOM     15  C   UNL d   1      33.093  22.805 -19.018  0.00  0.00     0.185 C 
ENDBRANCH  12  14
ENDBRANCH   1  12
BRANCH   2  16
ATOM     16  N   UNL d   1      32.900  23.087 -21.599  0.00  0.00    -0.281 N 
ATOM     17  C   UNL d   1      33.010  23.230 -22.384  0.00  0.00     0.101 C 
ATOM     18  C   UNL d   1      32.797  23.692 -21.094  0.00  0.00     0.101 C 
ENDBRANCH   2  16
TORSDOF 4
ENDMDL
MODEL 6
REMARK VINA RESULT:      -1.3      6.372      7.551
REMARK  4 active torsions:
REMARK  status: ('A' for Active; 'I' for Inactive)
REMARK    1  A    between atoms: C_6  and  C_1 
REMARK    2  A    between atoms: N_7  and  C_2 
REMARK    3  A    between atoms: C_8  and  C_5 
REMARK    4  A    between atoms: O_10  and  C_6 
ROOT
ATOM      1  C   UNL d   1      32.568  22.445 -20.484  0.00  0.00     0.186 A 
ATOM      2  C   UNL d   1      32.926  21.691 -20.344  0.00  0.00     0.193 A 
ATOM      3  N   UNL d   1      32.649  22.897 -19.818  0.00  0.00    -0.213 NA
ATOM      4  O   UNL d   1      33.226  21.720 -19.552  0.00  0.00    -0.271 OA
ATOM      5  C   UNL d   1      33.030  22.487 -19.266  0.00  0.00     0.184 A 
ENDROOT
BRANCH   5   6
ATOM      6  C   UNL d   1      33.098  22.916 -18.656  0.00  0.00     0.041 A 
ATOM      7  C   UNL d   1      33.106  22.217 -18.193  0.00  0.00     0.004 A 
ATOM      8  C   UNL d   1      33.175  22.263 -17.368  0.00  0.00     0.000 A 
ATOM      9  C   UNL d   1      33.236  23.004 -17.010  0.00  0.00     0.000 A 
ATOM     10  C   UNL d   1      33.228  23.702 -17.474  0.00  0.00     0.000 A 
ATOM     11  C   UNL d   1      33.159  23.639 -18.282  0.00  0.00     0.004 A 
ENDBRANCH   5   6
BRANCH   1  12
ATOM     12  C   UNL d   1      32.295  22.484 -21.138  0.00  0.00     0.317 C 
ATOM     13  O   UNL d   1      31.545  22.245 -21.537  0.00  0.00    -0.257 OA
BRANCH  12  14
ATOM     14  O   UNL d   1      32.586  22.767 -21.750  0.00  0.00    -0.294 OA
ATOM     15  C   UNL d   1      32.253  23.328 -22.308  0.00  0.00     0.185 C 
ENDBRANCH  12  14
ENDBRANCH   1  12
BRANCH   2  16
ATOM     16  N   UNL d   1      32.879  21.297 -20.865  0.00  0.00    -0.281 N 
ATOM     17  C   UNL d   1      32.503  20.714 -20.456  0.00  0.00     0.101 C 
ATOM     18  C   UNL d   1      33.039  21.204 -21.638  0.00  0.00     0.101 C 
ENDBRANCH   2  16
TORSDOF 4
ENDMDL
MODEL 7
REMARK VINA RESULT:      -1.2      2.283      3.937
REMARK  4 active torsions:
REMARK  status: ('A' for Active; 'I' for Inactive)
REMARK    1  A    between atoms: C_6  and  C_1 
REMARK    2  A    between atoms: N_7  and  C_2 
REMARK    3  A    between atoms: C_8  and  C_5 
REMARK    4  A    between atoms: O_10  and  C_6 
ROOT
ATOM      1  C   UNL d   1      32.251  18.394 -23.455  0.00  0.00     0.186 A 
ATOM      2  C   UNL d   1      32.778  17.902 -23.012  0.00  0.00     0.193 A 
ATOM      3  N   UNL d   1      32.354  19.161 -23.218  0.00  0.00    -0.213 NA
ATOM      4  O   UNL d   1      33.203  18.421 -22.495  0.00  0.00    -0.271 OA
ATOM      5  C   UNL d   1      32.906  19.192 -22.658  0.00  0.00     0.184 A 
ENDROOT
BRANCH   5   6
ATOM      6  C   UNL d   1      32.992  19.905 -22.448  0.00  0.00     0.041 A 
ATOM      7  C   UNL d   1      33.074  19.640 -21.658  0.00  0.00     0.004 A 
ATOM      8  C   UNL d   1      33.199  20.183 -21.044  0.00  0.00     0.000 A 
ATOM      9  C   UNL d   1      33.241  20.988 -21.223  0.00  0.00     0.000 A 
ATOM     10  C   UNL d   1      33.158  21.253 -22.014  0.00  0.00     0.000 A 
ATOM     11  C   UNL d   1      33.036  20.706 -22.603  0.00  0.00     0.004 A 
ENDBRANCH   5   6
BRANCH   1  12
ATOM     12  C   UNL d   1      31.863  18.014 -23.911  0.00  0.00     0.317 C 
ATOM     13  O   UNL d   1      31.378  17.277 -23.884  0.00  0.00    -0.257 OA
BRANCH  12  14
ATOM     14  O   UNL d   1      31.731  18.131 -24.625  0.00  0.00    -0.294 OA
ATOM     15  C   UNL d   1      31.029  17.962 -25.088  0.00  0.00     0.185 C 
ENDBRANCH  12  14
ENDBRANCH   1  12
BRANCH   2  16
ATOM     16  N   UNL d   1      32.721  17.271 -23.179  0.00  0.00    -0.281 N 
ATOM     17  C   UNL d   1      32.973  17.004 -22.462  0.00  0.00     0.101 C 
ATOM     18  C   UNL d   1      32.523  16.755 -23.750  0.00  0.00     0.101 C 
ENDBRANCH   2  16
TORSDOF 4
ENDMDL
MODEL 8
REMARK VINA RESULT:      -1.0      4.799      6.415
REMARK  4 active torsions:
REMARK  status: ('A' for Active; 'I' for Inactive)
REMARK    1  A    between atoms: C_6  and  C_1 
REMARK    2  A    between atoms: N_7  and  C_2 
REMARK    3  A    between atoms: C_8  and  C_5 
REMARK    4  A    between atoms: O_10  and  C_6 
ROOT
ATOM      1  C   UNL d   1      32.473  22.044 -21.750  0.00  0.00     0.186 A 
ATOM      2  C   UNL d   1      32.891  21.337 -21.950  0.00  0.00     0.193 A 
ATOM      3  N   UNL d   1      32.566  22.577 -22.352  0.00  0.00    -0.213 NA
ATOM      4  O   UNL d   1      33.241  21.479 -22.709  0.00  0.00    -0.271 OA
ATOM      5  C   UNL d   1      33.011  22.261 -22.918  0.00  0.00     0.184 A 
ENDROOT
BRANCH   5   6
ATOM      6  C   UNL d   1      33.089  22.764 -23.467  0.00  0.00     0.041 A 
ATOM      7  C   UNL d   1      33.072  22.132 -24.018  0.00  0.00     0.004 A 
ATOM      8  C   UNL d   1      33.138  22.283 -24.830  0.00  0.00     0.000 A 
ATOM      9  C   UNL d   1      33.220  23.062 -25.088  0.00  0.00     0.000 A 
ATOM     10  C   UNL d   1      33.237  23.693 -24.538  0.00  0.00     0.000 A 
ATOM     11  C   UNL d   1      33.171  23.527 -23.744  0.00  0.00     0.004 A 
ENDBRANCH   5   6
BRANCH   1  12
ATOM     12  C   UNL d   1      32.155  21.988 -21.119  0.00  0.00     0.317 C 
ATOM     13  O   UNL d   1      31.472  21.542 -20.780  0.00  0.00    -0.257 OA
BRANCH  12  14
ATOM     14  O   UNL d   1      32.314  22.320 -20.483  0.00  0.00    -0.294 OA
ATOM     15  C   UNL d   1      31.796  22.550 -19.838  0.00  0.00     0.185 C 
ENDBRANCH  12  14
ENDBRANCH   1  12
BRANCH   2  16
ATOM     16  N   UNL d   1      32.838  20.880 -21.483  0.00  0.00    -0.281 N 
ATOM     17  C   UNL d   1      32.622  20.301 -21.999  0.00  0.00     0.101 C 
ATOM     18  C   UNL d   1      32.901  20.721 -20.707  0.00  0.00     0.101 C 
ENDBRANCH   2  16
TORSDOF 4
ENDMDL
