MODEL 1
REMARK VINA RESULT:      26.1      0.000      0.000
REMARK  5 active torsions:
REMARK  status: ('A' for Active; 'I' for Inactive)
REMARK    1  A    between atoms: C_6  and  N_1 
REMARK    2  A    between atoms: C_8  and  C_3 
REMARK    3  A    between atoms: C_7  and  C_6 
REMARK    4  A    between atoms: C_9  and  C_7 
REMARK    5  A    between atoms: C_14  and  C_8 
ROOT
ATOM      1  N   UNL d   1      13.421  13.169  -3.206  0.00  0.00    -0.289 N 
ATOM      2  N   UNL d   1      13.707  13.983  -4.236  0.00  0.00    -0.227 NA
ATOM      3  C   UNL d   1      13.718  13.916  -3.408  0.00  0.00     0.148 A 
ATOM      4  C   UNL d   1      13.226  12.775  -3.908  0.00  0.00     0.083 A 
ATOM      5  C   UNL d   1      13.401  13.273  -4.542  0.00  0.00     0.099 A 
ATOM      6  C   UNL d   1      12.910  12.021  -4.058  0.00  0.00     0.019 A 
ATOM      7  C   UNL d   1      13.264  13.027  -5.317  0.00  0.00     0.021 A 
ATOM      8  C   UNL d   1      12.774  11.779  -4.831  0.00  0.00     0.002 A 
ATOM      9  C   UNL d   1      12.951  12.282  -5.461  0.00  0.00     0.002 A 
ENDROOT
BRANCH   1  10
ATOM     10  C   UNL d   1      13.335  12.873  -2.450  0.00  0.00     0.082 C 
BRANCH  10  11
ATOM     11  C   UNL d   1      13.907  12.286  -2.335  0.00  0.00     0.019 C 
BRANCH  11  12
ATOM     12  C   UNL d   1      14.173  12.117  -1.575  0.00  0.00     0.002 A 
ATOM     13  C   UNL d   1      14.984  12.106  -1.418  0.00  0.00     0.000 A 
ATOM     14  C   UNL d   1      15.249  11.936  -0.655  0.00  0.00     0.000 A 
ATOM     15  C   UNL d   1      14.708  11.779  -0.059  0.00  0.00     0.000 A 
ATOM     16  C   UNL d   1      13.899  11.792  -0.223  0.00  0.00     0.000 A 
ATOM     17  C   UNL d   1      13.637  11.960  -0.978  0.00  0.00     0.000 A 
ENDBRANCH  11  12
ENDBRANCH  10  11
ENDBRANCH   1  10
BRANCH   3  18
ATOM     18  C   UNL d   1      13.979  14.490  -2.884  0.00  0.00     0.037 C 
BRANCH  18  19
ATOM     19  C   UNL d   1      14.177  15.244  -3.165  0.00  0.00     0.003 C 
ATOM     20  C   UNL d   1      14.595  15.758  -2.686  0.00  0.00     0.000 C 
ENDBRANCH  18  19
ENDBRANCH   3  18
TORSDOF 5
ENDMDL
