MODEL 1
REMARK VINA RESULT:      -6.8      0.000      0.000
REMARK  3 active torsions:
REMARK  status: ('A' for Active; 'I' for Inactive)
REMARK    1  A    between atoms: C_5  and  C_1 
REMARK    2  A    between atoms: N_6  and  C_2 
REMARK       I    between atoms: C_8  and  N_6 
REMARK    3  A    between atoms: C_9  and  C_8 
ROOT
ATOM      1  C   UNL d   1     -41.552-122.191 -52.958  0.00  0.00     0.231 A 
ATOM      2  C   UNL d   1     -41.472-122.473 -51.654  0.00  0.00     0.297 A 
ATOM      3  O   UNL d   1     -41.737-122.757 -52.382  0.00  0.00    -0.252 OA
ATOM      4  N   UNL d   1     -41.177-121.567 -52.581  0.00  0.00    -0.117 NA
ATOM      5  N   UNL d   1     -41.127-121.740 -51.777  0.00  0.00    -0.101 NA
ENDROOT
BRANCH   2   6
ATOM      6  N   UNL d   1     -41.546-122.866 -50.933  0.00  0.00    -0.165 NA
ATOM      7  C   UNL d   1     -42.116-122.638 -50.396  0.00  0.00     0.282 C 
ATOM      8  O   UNL d   1     -42.628-122.010 -50.566  0.00  0.00    -0.265 OA
BRANCH   7   9
ATOM      9  C   UNL d   1     -42.190-123.032 -49.675  0.00  0.00     0.060 A 
ATOM     10  C   UNL d   1     -42.929-123.201 -49.371  0.00  0.00     0.034 A 
ATOM     11  C   UNL d   1     -42.999-123.594 -48.651  0.00  0.00     0.140 A 
ATOM     12  F   UNL d   1     -43.751-123.771 -48.334  0.00  0.00    -0.204 F 
ATOM     13  C   UNL d   1     -42.322-123.818 -48.235  0.00  0.00     0.030 A 
ATOM     14  C   UNL d   1     -41.577-123.644 -48.547  0.00  0.00     0.003 A 
ATOM     15  C   UNL d   1     -41.512-123.249 -49.271  0.00  0.00     0.005 A 
ENDBRANCH   7   9
ENDBRANCH   2   6
BRANCH   1  16
ATOM     16  C   UNL d   1     -41.721-122.253 -53.766  0.00  0.00     0.168 A 
ATOM     17  O   UNL d   1     -42.431-121.958 -54.058  0.00  0.00    -0.297 OA
ATOM     18  C   UNL d   1     -42.597-122.019 -54.855  0.00  0.00     0.149 A 
ATOM     19  C   UNL d   1     -42.060-122.374 -55.364  0.00  0.00     0.149 A 
ATOM     20  O   UNL d   1     -41.348-122.673 -55.084  0.00  0.00    -0.299 OA
ATOM     21  C   UNL d   1     -41.180-122.612 -54.285  0.00  0.00     0.151 A 
ENDBRANCH   1  16
TORSDOF 3
ENDMDL
MODEL 2
REMARK VINA RESULT:      -6.4      1.945      4.884
REMARK  3 active torsions:
REMARK  status: ('A' for Active; 'I' for Inactive)
REMARK    1  A    between atoms: C_5  and  C_1 
REMARK    2  A    between atoms: N_6  and  C_2 
REMARK       I    between atoms: C_8  and  N_6 
REMARK    3  A    between atoms: C_9  and  C_8 
ROOT
ATOM      1  C   UNL d   1     -41.834-122.685 -50.616  0.00  0.00     0.231 A 
ATOM      2  C   UNL d   1     -41.469-122.465 -51.882  0.00  0.00     0.297 A 
ATOM      3  O   UNL d   1     -41.871-122.988 -51.386  0.00  0.00    -0.252 OA
ATOM      4  N   UNL d   1     -41.412-121.983 -50.645  0.00  0.00    -0.117 NA
ATOM      5  N   UNL d   1     -41.187-121.847 -51.426  0.00  0.00    -0.101 NA
ENDROOT
BRANCH   2   6
ATOM      6  N   UNL d   1     -41.373-122.559 -52.696  0.00  0.00    -0.165 NA
ATOM      7  C   UNL d   1     -41.886-122.195 -53.216  0.00  0.00     0.282 C 
ATOM      8  O   UNL d   1     -42.509-121.727 -52.934  0.00  0.00    -0.265 OA
BRANCH   7   9
ATOM      9  C   UNL d   1     -41.791-122.288 -54.030  0.00  0.00     0.060 A 
ATOM     10  C   UNL d   1     -42.255-121.864 -54.551  0.00  0.00     0.034 A 
ATOM     11  C   UNL d   1     -42.157-121.960 -55.363  0.00  0.00     0.140 A 
ATOM     12  F   UNL d   1     -42.627-121.530 -55.902  0.00  0.00    -0.204 F 
ATOM     13  C   UNL d   1     -41.589-122.485 -55.651  0.00  0.00     0.030 A 
ATOM     14  C   UNL d   1     -41.123-122.911 -55.119  0.00  0.00     0.003 A 
ATOM     15  C   UNL d   1     -41.225-122.811 -54.305  0.00  0.00     0.005 A 
ENDBRANCH   7   9
ENDBRANCH   2   6
BRANCH   1  16
ATOM     16  C   UNL d   1     -42.167-123.037 -49.944  0.00  0.00     0.168 A 
ATOM     17  O   UNL d   1     -42.959-123.258 -49.951  0.00  0.00    -0.297 OA
ATOM     18  C   UNL d   1     -43.287-123.604 -49.289  0.00  0.00     0.149 A 
ATOM     19  C   UNL d   1     -42.832-123.732 -48.618  0.00  0.00     0.149 A 
ATOM     20  O   UNL d   1     -42.040-123.515 -48.599  0.00  0.00    -0.299 OA
ATOM     21  C   UNL d   1     -41.709-123.167 -49.264  0.00  0.00     0.151 A 
ENDBRANCH   1  16
TORSDOF 3
ENDMDL
