MODEL 1
REMARK VINA RESULT:      -6.1      0.000      0.000
REMARK  6 active torsions:
REMARK  status: ('A' for Active; 'I' for Inactive)
REMARK    1  A    between atoms: C_6  and  N_2 
REMARK    2  A    between atoms: C_7  and  C_3 
REMARK    3  A    between atoms: C_14  and  C_6 
REMARK    4  A    between atoms: C_8  and  O_16 
REMARK    5  A    between atoms: C_19  and  C_14 
REMARK    6  A    between atoms: O_16  and  C_19 
ROOT
ATOM      1  N   UNL d   1     -50.450  13.148  23.691  0.00  0.00    -0.224 NA
ATOM      2  N   UNL d   1     -49.246  13.260  23.096  0.00  0.00    -0.286 N 
ATOM      3  C   UNL d   1     -49.788  12.717  23.412  0.00  0.00     0.191 A 
ATOM      4  C   UNL d   1     -49.564  14.027  23.176  0.00  0.00     0.083 A 
ATOM      5  C   UNL d   1     -50.304  13.960  23.541  0.00  0.00     0.099 A 
ATOM      6  C   UNL d   1     -49.284  14.775  22.967  0.00  0.00     0.019 A 
ATOM      7  C   UNL d   1     -50.757  14.631  23.696  0.00  0.00     0.021 A 
ATOM      8  C   UNL d   1     -49.738  15.447  23.122  0.00  0.00     0.002 A 
ATOM      9  C   UNL d   1     -50.474  15.372  23.486  0.00  0.00     0.002 A 
ENDROOT
BRANCH   2  10
ATOM     10  C   UNL d   1     -48.561  12.915  22.797  0.00  0.00     0.084 C 
BRANCH  10  11
ATOM     11  C   UNL d   1     -47.847  13.045  23.174  0.00  0.00     0.046 C 
BRANCH  11  12
ATOM     12  C   UNL d   1     -47.150  12.850  22.783  0.00  0.00     0.124 C 
BRANCH  12  13
ATOM     13  O   UNL d   1     -46.428  12.910  23.177  0.00  0.00    -0.305 OA
BRANCH  13  14
ATOM     14  C   UNL d   1     -45.722  12.842  22.755  0.00  0.00     0.100 A 
ATOM     15  C   UNL d   1     -45.506  13.428  22.213  0.00  0.00     0.025 A 
ATOM     16  C   UNL d   1     -44.805  13.361  21.794  0.00  0.00     0.002 A 
ATOM     17  C   UNL d   1     -44.311  12.707  21.911  0.00  0.00     0.000 A 
ATOM     18  C   UNL d   1     -44.531  12.120  22.458  0.00  0.00     0.002 A 
ATOM     19  C   UNL d   1     -43.609  12.638  21.493  0.00  0.00     0.000 C 
ATOM     20  C   UNL d   1     -45.236  12.191  22.877  0.00  0.00     0.025 A 
ENDBRANCH  13  14
ENDBRANCH  12  13
ENDBRANCH  11  12
ENDBRANCH  10  11
ENDBRANCH   2  10
BRANCH   3  21
ATOM     21  C   UNL d   1     -49.696  11.898  23.446  0.00  0.00     0.271 C 
ATOM     22  O   UNL d   1     -50.324  11.423  23.689  0.00  0.00    -0.280 OA
ENDBRANCH   3  21
TORSDOF 6
ENDMDL
MODEL 2
REMARK VINA RESULT:      -5.9      1.203      2.036
REMARK  6 active torsions:
REMARK  status: ('A' for Active; 'I' for Inactive)
REMARK    1  A    between atoms: C_6  and  N_2 
REMARK    2  A    between atoms: C_7  and  C_3 
REMARK    3  A    between atoms: C_14  and  C_6 
REMARK    4  A    between atoms: C_8  and  O_16 
REMARK    5  A    between atoms: C_19  and  C_14 
REMARK    6  A    between atoms: O_16  and  C_19 
ROOT
ATOM      1  N   UNL d   1     -50.814  14.012  23.404  0.00  0.00    -0.224 NA
ATOM      2  N   UNL d   1     -49.539  13.856  22.996  0.00  0.00    -0.286 N 
ATOM      3  C   UNL d   1     -50.138  14.417  23.120  0.00  0.00     0.191 A 
ATOM      4  C   UNL d   1     -49.836  13.104  23.199  0.00  0.00     0.083 A 
ATOM      5  C   UNL d   1     -50.620  13.199  23.450  0.00  0.00     0.099 A 
ATOM      6  C   UNL d   1     -49.504  12.348  23.191  0.00  0.00     0.019 A 
ATOM      7  C   UNL d   1     -51.064  12.547  23.690  0.00  0.00     0.021 A 
ATOM      8  C   UNL d   1     -49.950  11.696  23.431  0.00  0.00     0.002 A 
ATOM      9  C   UNL d   1     -50.730  11.798  23.680  0.00  0.00     0.002 A 
ENDROOT
BRANCH   2  10
ATOM     10  C   UNL d   1     -48.834  14.174  22.714  0.00  0.00     0.084 C 
BRANCH  10  11
ATOM     11  C   UNL d   1     -48.149  14.085  23.151  0.00  0.00     0.046 C 
BRANCH  11  12
ATOM     12  C   UNL d   1     -47.423  14.153  22.771  0.00  0.00     0.124 C 
BRANCH  12  13
ATOM     13  O   UNL d   1     -46.725  14.018  23.190  0.00  0.00    -0.305 OA
BRANCH  13  14
ATOM     14  C   UNL d   1     -46.087  13.649  22.819  0.00  0.00     0.100 A 
ATOM     15  C   UNL d   1     -45.947  12.843  22.942  0.00  0.00     0.025 A 
ATOM     16  C   UNL d   1     -45.314  12.476  22.574  0.00  0.00     0.002 A 
ATOM     17  C   UNL d   1     -44.812  12.909  22.078  0.00  0.00     0.000 A 
ATOM     18  C   UNL d   1     -44.957  13.720  21.957  0.00  0.00     0.002 A 
ATOM     19  C   UNL d   1     -44.178  12.544  21.709  0.00  0.00     0.000 C 
ATOM     20  C   UNL d   1     -45.594  14.085  22.329  0.00  0.00     0.025 A 
ENDBRANCH  13  14
ENDBRANCH  12  13
ENDBRANCH  11  12
ENDBRANCH  10  11
ENDBRANCH   2  10
BRANCH   3  21
ATOM     21  C   UNL d   1     -50.081  15.230  22.989  0.00  0.00     0.271 C 
ATOM     22  O   UNL d   1     -50.693  15.630  22.609  0.00  0.00    -0.280 OA
ENDBRANCH   3  21
TORSDOF 6
ENDMDL
MODEL 3
REMARK VINA RESULT:      -5.4      9.108     10.339
REMARK  6 active torsions:
REMARK  status: ('A' for Active; 'I' for Inactive)
REMARK    1  A    between atoms: C_6  and  N_2 
REMARK    2  A    between atoms: C_7  and  C_3 
REMARK    3  A    between atoms: C_14  and  C_6 
REMARK    4  A    between atoms: C_8  and  O_16 
REMARK    5  A    between atoms: C_19  and  C_14 
REMARK    6  A    between atoms: O_16  and  C_19 
ROOT
ATOM      1  N   UNL d   1     -39.888  14.852  16.469  0.00  0.00    -0.224 NA
ATOM      2  N   UNL d   1     -39.700  14.361  17.711  0.00  0.00    -0.286 N 
ATOM      3  C   UNL d   1     -40.190  14.848  17.251  0.00  0.00     0.191 A 
ATOM      4  C   UNL d   1     -39.095  14.061  17.222  0.00  0.00     0.083 A 
ATOM      5  C   UNL d   1     -39.209  14.362  16.459  0.00  0.00     0.099 A 
ATOM      6  C   UNL d   1     -38.456  13.557  17.365  0.00  0.00     0.019 A 
ATOM      7  C   UNL d   1     -38.693  14.162  15.848  0.00  0.00     0.021 A 
ATOM      8  C   UNL d   1     -37.940  13.357  16.753  0.00  0.00     0.002 A 
ATOM      9  C   UNL d   1     -38.060  13.660  15.995  0.00  0.00     0.002 A 
ENDROOT
BRANCH   2  10
ATOM     10  C   UNL d   1     -39.929  14.303  18.499  0.00  0.00     0.084 C 
BRANCH  10  11
ATOM     11  C   UNL d   1     -39.432  14.582  19.084  0.00  0.00     0.046 C 
BRANCH  11  12
ATOM     12  C   UNL d   1     -39.544  14.324  19.857  0.00  0.00     0.124 C 
BRANCH  12  13
ATOM     13  O   UNL d   1     -39.154  14.703  20.478  0.00  0.00    -0.305 OA
BRANCH  13  14
ATOM     14  C   UNL d   1     -39.018  14.301  21.186  0.00  0.00     0.100 A 
ATOM     15  C   UNL d   1     -38.393  13.764  21.242  0.00  0.00     0.025 A 
ATOM     16  C   UNL d   1     -38.257  13.364  21.945  0.00  0.00     0.002 A 
ATOM     17  C   UNL d   1     -38.745  13.497  22.600  0.00  0.00     0.000 A 
ATOM     18  C   UNL d   1     -39.374  14.039  22.539  0.00  0.00     0.002 A 
ATOM     19  C   UNL d   1     -38.611  13.098  23.304  0.00  0.00     0.000 C 
ATOM     20  C   UNL d   1     -39.506  14.438  21.831  0.00  0.00     0.025 A 
ENDBRANCH  13  14
ENDBRANCH  12  13
ENDBRANCH  11  12
ENDBRANCH  10  11
ENDBRANCH   2  10
BRANCH   3  21
ATOM     21  C   UNL d   1     -40.856  15.258  17.513  0.00  0.00     0.271 C 
ATOM     22  O   UNL d   1     -41.442  15.477  16.977  0.00  0.00    -0.280 OA
ENDBRANCH   3  21
TORSDOF 6
ENDMDL
MODEL 4
REMARK VINA RESULT:      -4.8      9.219     10.114
REMARK  6 active torsions:
REMARK  status: ('A' for Active; 'I' for Inactive)
REMARK    1  A    between atoms: C_6  and  N_2 
REMARK    2  A    between atoms: C_7  and  C_3 
REMARK    3  A    between atoms: C_14  and  C_6 
REMARK    4  A    between atoms: C_8  and  O_16 
REMARK    5  A    between atoms: C_19  and  C_14 
REMARK    6  A    between atoms: O_16  and  C_19 
ROOT
ATOM      1  N   UNL d   1     -39.484  14.781  16.562  0.00  0.00    -0.224 NA
ATOM      2  N   UNL d   1     -39.245  14.803  17.888  0.00  0.00    -0.286 N 
ATOM      3  C   UNL d   1     -38.946  14.545  17.158  0.00  0.00     0.191 A 
ATOM      4  C   UNL d   1     -39.966  15.199  17.751  0.00  0.00     0.083 A 
ATOM      5  C   UNL d   1     -40.114  15.186  16.937  0.00  0.00     0.099 A 
ATOM      6  C   UNL d   1     -40.507  15.568  18.254  0.00  0.00     0.019 A 
ATOM      7  C   UNL d   1     -40.793  15.537  16.629  0.00  0.00     0.021 A 
ATOM      8  C   UNL d   1     -41.187  15.920  17.945  0.00  0.00     0.002 A 
ATOM      9  C   UNL d   1     -41.328  15.903  17.133  0.00  0.00     0.002 A 
ENDROOT
BRANCH   2  10
ATOM     10  C   UNL d   1     -38.771  14.610  18.533  0.00  0.00     0.084 C 
BRANCH  10  11
ATOM     11  C   UNL d   1     -39.091  14.189  19.156  0.00  0.00     0.046 C 
BRANCH  11  12
ATOM     12  C   UNL d   1     -38.668  14.136  19.859  0.00  0.00     0.124 C 
BRANCH  12  13
ATOM     13  O   UNL d   1     -38.843  13.538  20.400  0.00  0.00    -0.305 OA
BRANCH  13  14
ATOM     14  C   UNL d   1     -38.725  13.665  21.207  0.00  0.00     0.100 A 
ATOM     15  C   UNL d   1     -39.192  14.214  21.611  0.00  0.00     0.025 A 
ATOM     16  C   UNL d   1     -39.076  14.341  22.413  0.00  0.00     0.002 A 
ATOM     17  C   UNL d   1     -38.490  13.920  22.820  0.00  0.00     0.000 A 
ATOM     18  C   UNL d   1     -38.022  13.368  22.409  0.00  0.00     0.002 A 
ATOM     19  C   UNL d   1     -38.372  14.045  23.622  0.00  0.00     0.000 C 
ATOM     20  C   UNL d   1     -38.142  13.244  21.604  0.00  0.00     0.025 A 
ENDBRANCH  13  14
ENDBRANCH  12  13
ENDBRANCH  11  12
ENDBRANCH  10  11
ENDBRANCH   2  10
BRANCH   3  21
ATOM     21  C   UNL d   1     -38.243  14.129  17.038  0.00  0.00     0.271 C 
ATOM     22  O   UNL d   1     -38.069  13.822  16.293  0.00  0.00    -0.280 OA
ENDBRANCH   3  21
TORSDOF 6
ENDMDL
MODEL 5
REMARK VINA RESULT:      -4.3      9.219     10.956
REMARK  6 active torsions:
REMARK  status: ('A' for Active; 'I' for Inactive)
REMARK    1  A    between atoms: C_6  and  N_2 
REMARK    2  A    between atoms: C_7  and  C_3 
REMARK    3  A    between atoms: C_14  and  C_6 
REMARK    4  A    between atoms: C_8  and  O_16 
REMARK    5  A    between atoms: C_19  and  C_14 
REMARK    6  A    between atoms: O_16  and  C_19 
ROOT
ATOM      1  N   UNL d   1     -38.271  13.526  16.510  0.00  0.00    -0.224 NA
ATOM      2  N   UNL d   1     -38.856  14.314  17.434  0.00  0.00    -0.286 N 
ATOM      3  C   UNL d   1     -38.624  13.534  17.270  0.00  0.00     0.191 A 
ATOM      4  C   UNL d   1     -38.651  14.792  16.782  0.00  0.00     0.083 A 
ATOM      5  C   UNL d   1     -38.292  14.309  16.214  0.00  0.00     0.099 A 
ATOM      6  C   UNL d   1     -38.742  15.598  16.627  0.00  0.00     0.019 A 
ATOM      7  C   UNL d   1     -38.027  14.627  15.501  0.00  0.00     0.021 A 
ATOM      8  C   UNL d   1     -38.476  15.916  15.913  0.00  0.00     0.002 A 
ATOM      9  C   UNL d   1     -38.119  15.429  15.351  0.00  0.00     0.002 A 
ENDROOT
BRANCH   2  10
ATOM     10  C   UNL d   1     -39.214  14.410  18.169  0.00  0.00     0.084 C 
BRANCH  10  11
ATOM     11  C   UNL d   1     -39.082  15.094  18.595  0.00  0.00     0.046 C 
BRANCH  11  12
ATOM     12  C   UNL d   1     -39.169  15.077  19.412  0.00  0.00     0.124 C 
BRANCH  12  13
ATOM     13  O   UNL d   1     -39.389  15.761  19.818  0.00  0.00    -0.305 OA
BRANCH  13  14
ATOM     14  C   UNL d   1     -39.300  15.801  20.637  0.00  0.00     0.100 A 
ATOM     15  C   UNL d   1     -39.967  15.848  21.123  0.00  0.00     0.025 A 
ATOM     16  C   UNL d   1     -39.879  15.888  21.938  0.00  0.00     0.002 A 
ATOM     17  C   UNL d   1     -39.123  15.882  22.276  0.00  0.00     0.000 A 
ATOM     18  C   UNL d   1     -38.454  15.835  21.782  0.00  0.00     0.002 A 
ATOM     19  C   UNL d   1     -39.033  15.922  23.090  0.00  0.00     0.000 C 
ATOM     20  C   UNL d   1     -38.547  15.795  20.965  0.00  0.00     0.025 A 
ENDBRANCH  13  14
ENDBRANCH  12  13
ENDBRANCH  11  12
ENDBRANCH  10  11
ENDBRANCH   2  10
BRANCH   3  21
ATOM     21  C   UNL d   1     -38.721  12.881  17.765  0.00  0.00     0.271 C 
ATOM     22  O   UNL d   1     -38.614  12.120  17.468  0.00  0.00    -0.280 OA
ENDBRANCH   3  21
TORSDOF 6
ENDMDL
MODEL 6
REMARK VINA RESULT:      -4.0      1.462      2.462
REMARK  6 active torsions:
REMARK  status: ('A' for Active; 'I' for Inactive)
REMARK    1  A    between atoms: C_6  and  N_2 
REMARK    2  A    between atoms: C_7  and  C_3 
REMARK    3  A    between atoms: C_14  and  C_6 
REMARK    4  A    between atoms: C_8  and  O_16 
REMARK    5  A    between atoms: C_19  and  C_14 
REMARK    6  A    between atoms: O_16  and  C_19 
ROOT
ATOM      1  N   UNL d   1     -48.099  12.574  23.322  0.00  0.00    -0.224 NA
ATOM      2  N   UNL d   1     -46.875  13.068  23.047  0.00  0.00    -0.286 N 
ATOM      3  C   UNL d   1     -47.280  12.395  23.317  0.00  0.00     0.191 A 
ATOM      4  C   UNL d   1     -47.434  13.664  22.884  0.00  0.00     0.083 A 
ATOM      5  C   UNL d   1     -48.186  13.362  23.052  0.00  0.00     0.099 A 
ATOM      6  C   UNL d   1     -47.363  14.438  22.606  0.00  0.00     0.019 A 
ATOM      7  C   UNL d   1     -48.858  13.827  22.944  0.00  0.00     0.021 A 
ATOM      8  C   UNL d   1     -48.036  14.904  22.498  0.00  0.00     0.002 A 
ATOM      9  C   UNL d   1     -48.782  14.596  22.668  0.00  0.00     0.002 A 
ENDROOT
BRANCH   2  10
ATOM     10  C   UNL d   1     -46.058  12.975  23.013  0.00  0.00     0.084 C 
BRANCH  10  11
ATOM     11  C   UNL d   1     -45.691  12.907  22.286  0.00  0.00     0.046 C 
BRANCH  11  12
ATOM     12  C   UNL d   1     -44.877  13.015  22.239  0.00  0.00     0.124 C 
BRANCH  12  13
ATOM     13  O   UNL d   1     -44.466  12.761  21.571  0.00  0.00    -0.305 OA
BRANCH  13  14
ATOM     14  C   UNL d   1     -43.682  12.992  21.457  0.00  0.00     0.100 A 
ATOM     15  C   UNL d   1     -43.072  12.441  21.545  0.00  0.00     0.025 A 
ATOM     16  C   UNL d   1     -42.292  12.670  21.432  0.00  0.00     0.002 A 
ATOM     17  C   UNL d   1     -42.114  13.452  21.229  0.00  0.00     0.000 A 
ATOM     18  C   UNL d   1     -42.731  14.003  21.140  0.00  0.00     0.002 A 
ATOM     19  C   UNL d   1     -41.335  13.683  21.115  0.00  0.00     0.000 C 
ATOM     20  C   UNL d   1     -43.512  13.769  21.255  0.00  0.00     0.025 A 
ENDBRANCH  13  14
ENDBRANCH  12  13
ENDBRANCH  11  12
ENDBRANCH  10  11
ENDBRANCH   2  10
BRANCH   3  21
ATOM     21  C   UNL d   1     -46.941  11.677  23.541  0.00  0.00     0.271 C 
ATOM     22  O   UNL d   1     -47.421  11.026  23.698  0.00  0.00    -0.280 OA
ENDBRANCH   3  21
TORSDOF 6
ENDMDL
MODEL 7
REMARK VINA RESULT:      -3.3      3.282      5.115
REMARK  6 active torsions:
REMARK  status: ('A' for Active; 'I' for Inactive)
REMARK    1  A    between atoms: C_6  and  N_2 
REMARK    2  A    between atoms: C_7  and  C_3 
REMARK    3  A    between atoms: C_14  and  C_6 
REMARK    4  A    between atoms: C_8  and  O_16 
REMARK    5  A    between atoms: C_19  and  C_14 
REMARK    6  A    between atoms: O_16  and  C_19 
ROOT
ATOM      1  N   UNL d   1     -44.901  11.795  23.062  0.00  0.00    -0.224 NA
ATOM      2  N   UNL d   1     -44.298  12.509  22.091  0.00  0.00    -0.286 N 
ATOM      3  C   UNL d   1     -44.216  11.845  22.581  0.00  0.00     0.191 A 
ATOM      4  C   UNL d   1     -45.028  12.874  22.261  0.00  0.00     0.083 A 
ATOM      5  C   UNL d   1     -45.399  12.436  22.858  0.00  0.00     0.099 A 
ATOM      6  C   UNL d   1     -45.405  13.542  21.957  0.00  0.00     0.019 A 
ATOM      7  C   UNL d   1     -46.138  12.663  23.146  0.00  0.00     0.021 A 
ATOM      8  C   UNL d   1     -46.145  13.769  22.246  0.00  0.00     0.002 A 
ATOM      9  C   UNL d   1     -46.509  13.328  22.840  0.00  0.00     0.002 A 
ENDROOT
BRANCH   2  10
ATOM     10  C   UNL d   1     -43.662  12.631  21.583  0.00  0.00     0.084 C 
BRANCH  10  11
ATOM     11  C   UNL d   1     -43.183  13.285  21.686  0.00  0.00     0.046 C 
BRANCH  11  12
ATOM     12  C   UNL d   1     -42.596  13.441  21.132  0.00  0.00     0.124 C 
BRANCH  12  13
ATOM     13  O   UNL d   1     -41.887  13.789  21.370  0.00  0.00    -0.305 OA
BRANCH  13  14
ATOM     14  C   UNL d   1     -41.458  14.255  20.841  0.00  0.00     0.100 A 
ATOM     15  C   UNL d   1     -41.392  15.069  20.968  0.00  0.00     0.025 A 
ATOM     16  C   UNL d   1     -40.966  15.533  20.443  0.00  0.00     0.002 A 
ATOM     17  C   UNL d   1     -40.602  15.188  19.784  0.00  0.00     0.000 A 
ATOM     18  C   UNL d   1     -40.672  14.368  19.660  0.00  0.00     0.002 A 
ATOM     19  C   UNL d   1     -40.176  15.650  19.257  0.00  0.00     0.000 C 
ATOM     20  C   UNL d   1     -41.100  13.906  20.190  0.00  0.00     0.025 A 
ENDBRANCH  13  14
ENDBRANCH  12  13
ENDBRANCH  11  12
ENDBRANCH  10  11
ENDBRANCH   2  10
BRANCH   3  21
ATOM     21  C   UNL d   1     -43.576  11.324  22.596  0.00  0.00     0.271 C 
ATOM     22  O   UNL d   1     -43.579  10.683  23.114  0.00  0.00    -0.280 OA
ENDBRANCH   3  21
TORSDOF 6
ENDMDL
