MODEL 1
REMARK VINA RESULT:      -8.6      0.000      0.000
REMARK  5 active torsions:
REMARK  status: ('A' for Active; 'I' for Inactive)
REMARK    1  A    between atoms: C_7  and  C_2 
REMARK    2  A    between atoms: C_9  and  C_4 
REMARK    3  A    between atoms: C_16  and  C_7 
REMARK    4  A    between atoms: N_8  and  C_9 
REMARK    5  A    between atoms: C_23  and  C_14 
ROOT
ATOM      1  C   UNL d   1      53.490  34.181  54.105  0.00  0.00     0.108 A 
ATOM      2  C   UNL d   1      54.163  33.018  54.124  0.00  0.00     0.139 A 
ATOM      3  O   UNL d   1      53.693  33.518  53.648  0.00  0.00    -0.304 OA
ATOM      4  C   UNL d   1      53.045  34.843  53.934  0.00  0.00     0.079 A 
ATOM      5  C   UNL d   1      53.829  34.092  54.854  0.00  0.00     0.064 A 
ATOM      6  C   UNL d   1      54.243  33.373  54.863  0.00  0.00     0.220 A 
ATOM      7  C   UNL d   1      53.718  34.672  55.430  0.00  0.00     0.009 A 
ATOM      8  C   UNL d   1      52.936  35.420  54.509  0.00  0.00     0.199 A 
ATOM      9  O   UNL d   1      54.665  33.069  55.507  0.00  0.00    -0.284 OA
ATOM     10  C   UNL d   1      53.272  35.335  55.255  0.00  0.00     0.042 A 
ATOM     11  O   UNL d   1      52.486  36.089  54.335  0.00  0.00    -0.286 OA
ENDROOT
BRANCH   2  12
ATOM     12  C   UNL d   1      54.487  32.294  53.891  0.00  0.00     0.028 C 
BRANCH  12  13
ATOM     13  C   UNL d   1      53.994  31.658  53.709  0.00  0.00     0.002 A 
ATOM     14  C   UNL d   1      53.796  31.107  54.292  0.00  0.00     0.000 A 
ATOM     15  C   UNL d   1      53.302  30.471  54.111  0.00  0.00     0.000 A 
ATOM     16  C   UNL d   1      53.006  30.387  53.345  0.00  0.00     0.000 A 
ATOM     17  C   UNL d   1      53.204  30.938  52.762  0.00  0.00     0.000 A 
ATOM     18  C   UNL d   1      53.698  31.574  52.943  0.00  0.00     0.000 A 
BRANCH  16  19
ATOM     19  C   UNL d   1      52.513  29.751  53.163  0.00  0.00     0.000 C 
ATOM     20  C   UNL d   1      52.701  29.246  52.538  0.00  0.00     0.000 C 
ATOM     21  C   UNL d   1      51.827  29.620  53.610  0.00  0.00     0.000 C 
ENDBRANCH  16  19
ENDBRANCH  12  13
ENDBRANCH   2  12
BRANCH   4  22
ATOM     22  C   UNL d   1      52.706  34.938  53.196  0.00  0.00     0.086 C 
BRANCH  22  23
ATOM     23  N   UNL d   1      51.966  34.672  52.956  0.00  0.00    -0.300 N 
ATOM     24  C   UNL d   1      51.858  34.395  52.193  0.00  0.00     0.100 A 
ATOM     25  C   UNL d   1      51.124  34.129  51.949  0.00  0.00     0.100 A 
ATOM     26  N   UNL d   1      50.499  34.144  52.479  0.00  0.00    -0.299 N 
ATOM     27  C   UNL d   1      50.607  34.420  53.242  0.00  0.00     0.100 A 
ATOM     28  C   UNL d   1      49.760  33.879  52.245  0.00  0.00     0.100 C 
ATOM     29  C   UNL d   1      51.346  34.683  53.473  0.00  0.00     0.100 A 
ENDBRANCH  22  23
ENDBRANCH   4  22
TORSDOF 5
ENDMDL
MODEL 2
REMARK VINA RESULT:      -7.8      1.388      3.920
REMARK  5 active torsions:
REMARK  status: ('A' for Active; 'I' for Inactive)
REMARK    1  A    between atoms: C_7  and  C_2 
REMARK    2  A    between atoms: C_9  and  C_4 
REMARK    3  A    between atoms: C_16  and  C_7 
REMARK    4  A    between atoms: N_8  and  C_9 
REMARK    5  A    between atoms: C_23  and  C_14 
ROOT
ATOM      1  C   UNL d   1      53.564  33.379  53.910  0.00  0.00     0.108 A 
ATOM      2  C   UNL d   1      52.520  34.158  54.239  0.00  0.00     0.139 A 
ATOM      3  O   UNL d   1      52.760  33.521  53.756  0.00  0.00    -0.304 OA
ATOM      4  C   UNL d   1      54.087  32.832  53.605  0.00  0.00     0.079 A 
ATOM      5  C   UNL d   1      53.817  33.921  54.481  0.00  0.00     0.064 A 
ATOM      6  C   UNL d   1      53.171  34.400  54.682  0.00  0.00     0.220 A 
ATOM      7  C   UNL d   1      54.599  33.909  54.743  0.00  0.00     0.009 A 
ATOM      8  C   UNL d   1      54.865  32.822  53.869  0.00  0.00     0.199 A 
ATOM      9  O   UNL d   1      53.182  35.017  55.234  0.00  0.00    -0.284 OA
ATOM     10  C   UNL d   1      55.121  33.359  54.436  0.00  0.00     0.042 A 
ATOM     11  O   UNL d   1      55.393  32.269  53.561  0.00  0.00    -0.286 OA
ENDROOT
BRANCH   2  12
ATOM     12  C   UNL d   1      51.761  34.485  54.265  0.00  0.00     0.028 C 
BRANCH  12  13
ATOM     13  C   UNL d   1      51.270  34.447  53.602  0.00  0.00     0.002 A 
ATOM     14  C   UNL d   1      51.456  34.879  52.923  0.00  0.00     0.000 A 
ATOM     15  C   UNL d   1      50.966  34.840  52.261  0.00  0.00     0.000 A 
ATOM     16  C   UNL d   1      50.289  34.368  52.279  0.00  0.00     0.000 A 
ATOM     17  C   UNL d   1      50.103  33.936  52.957  0.00  0.00     0.000 A 
ATOM     18  C   UNL d   1      50.593  33.975  53.620  0.00  0.00     0.000 A 
BRANCH  16  19
ATOM     19  C   UNL d   1      49.798  34.330  51.616  0.00  0.00     0.000 C 
ATOM     20  C   UNL d   1      50.116  34.148  50.875  0.00  0.00     0.000 C 
ATOM     21  C   UNL d   1      48.986  34.473  51.694  0.00  0.00     0.000 C 
ENDBRANCH  16  19
ENDBRANCH  12  13
ENDBRANCH   2  12
BRANCH   4  22
ATOM     22  C   UNL d   1      53.843  32.292  53.041  0.00  0.00     0.086 C 
BRANCH  22  23
ATOM     23  N   UNL d   1      53.524  31.547  53.178  0.00  0.00    -0.300 N 
ATOM     24  C   UNL d   1      52.836  31.320  52.796  0.00  0.00     0.100 A 
ATOM     25  C   UNL d   1      52.513  30.581  52.928  0.00  0.00     0.100 A 
ATOM     26  N   UNL d   1      52.889  30.070  53.448  0.00  0.00    -0.299 N 
ATOM     27  C   UNL d   1      53.577  30.297  53.830  0.00  0.00     0.100 A 
ATOM     28  C   UNL d   1      52.574  29.327  53.588  0.00  0.00     0.100 C 
ATOM     29  C   UNL d   1      53.889  31.039  53.689  0.00  0.00     0.100 A 
ENDBRANCH  22  23
ENDBRANCH   4  22
TORSDOF 5
ENDMDL
MODEL 3
REMARK VINA RESULT:      -6.9      1.546      3.001
REMARK  5 active torsions:
REMARK  status: ('A' for Active; 'I' for Inactive)
REMARK    1  A    between atoms: C_7  and  C_2 
REMARK    2  A    between atoms: C_9  and  C_4 
REMARK    3  A    between atoms: C_16  and  C_7 
REMARK    4  A    between atoms: N_8  and  C_9 
REMARK    5  A    between atoms: C_23  and  C_14 
ROOT
ATOM      1  C   UNL d   1      52.486  33.317  53.163  0.00  0.00     0.108 A 
ATOM      2  C   UNL d   1      52.317  32.053  52.739  0.00  0.00     0.139 A 
ATOM      3  O   UNL d   1      52.888  32.616  52.968  0.00  0.00    -0.304 OA
ATOM      4  C   UNL d   1      52.754  34.043  53.420  0.00  0.00     0.079 A 
ATOM      5  C   UNL d   1      51.676  33.188  53.055  0.00  0.00     0.064 A 
ATOM      6  C   UNL d   1      51.575  32.408  52.793  0.00  0.00     0.220 A 
ATOM      7  C   UNL d   1      51.138  33.794  53.207  0.00  0.00     0.009 A 
ATOM      8  C   UNL d   1      52.215  34.645  53.572  0.00  0.00     0.199 A 
ATOM      9  O   UNL d   1      50.849  32.049  52.617  0.00  0.00    -0.284 OA
ATOM     10  C   UNL d   1      51.409  34.521  53.465  0.00  0.00     0.042 A 
ATOM     11  O   UNL d   1      52.486  35.379  53.832  0.00  0.00    -0.286 OA
ENDROOT
BRANCH   2  12
ATOM     12  C   UNL d   1      52.472  31.277  52.499  0.00  0.00     0.028 C 
BRANCH  12  13
ATOM     13  C   UNL d   1      52.711  30.713  53.053  0.00  0.00     0.002 A 
ATOM     14  C   UNL d   1      52.149  30.245  53.437  0.00  0.00     0.000 A 
ATOM     15  C   UNL d   1      52.388  29.682  53.990  0.00  0.00     0.000 A 
ATOM     16  C   UNL d   1      53.190  29.587  54.158  0.00  0.00     0.000 A 
ATOM     17  C   UNL d   1      53.752  30.054  53.774  0.00  0.00     0.000 A 
ATOM     18  C   UNL d   1      53.513  30.618  53.221  0.00  0.00     0.000 A 
BRANCH  16  19
ATOM     19  C   UNL d   1      53.429  29.023  54.712  0.00  0.00     0.000 C 
ATOM     20  C   UNL d   1      53.842  28.351  54.467  0.00  0.00     0.000 C 
ATOM     21  C   UNL d   1      53.255  29.131  55.515  0.00  0.00     0.000 C 
ENDBRANCH  16  19
ENDBRANCH  12  13
ENDBRANCH   2  12
BRANCH   4  22
ATOM     22  C   UNL d   1      53.553  34.178  53.529  0.00  0.00     0.086 C 
BRANCH  22  23
ATOM     23  N   UNL d   1      53.993  34.008  54.203  0.00  0.00    -0.300 N 
ATOM     24  C   UNL d   1      54.757  33.722  54.132  0.00  0.00     0.100 A 
ATOM     25  C   UNL d   1      55.199  33.551  54.798  0.00  0.00     0.100 A 
ATOM     26  N   UNL d   1      54.867  33.669  55.538  0.00  0.00    -0.299 N 
ATOM     27  C   UNL d   1      54.103  33.955  55.609  0.00  0.00     0.100 A 
ATOM     28  C   UNL d   1      55.302  33.501  56.211  0.00  0.00     0.100 C 
ATOM     29  C   UNL d   1      53.672  34.123  54.935  0.00  0.00     0.100 A 
ENDBRANCH  22  23
ENDBRANCH   4  22
TORSDOF 5
ENDMDL
