MODEL 1
REMARK VINA RESULT:      -9.1      0.000      0.000
REMARK  7 active torsions:
REMARK  status: ('A' for Active; 'I' for Inactive)
REMARK    1  A    between atoms: C_7  and  N_2 
REMARK    2  A    between atoms: C_21  and  C_7 
REMARK    3  A    between atoms: C_8  and  C_19 
REMARK       I    between atoms: N_13  and  C_8 
REMARK    4  A    between atoms: C_9  and  C_20 
REMARK    5  A    between atoms: O_14  and  C_11 
REMARK    6  A    between atoms: C_20  and  N_13 
REMARK    7  A    between atoms: C_19  and  O_14 
ROOT
ATOM      1  C   UNL d   1      53.645  33.136  53.675  0.00  0.00     0.265 A 
ATOM      2  N   UNL d   1      53.426  32.430  53.299  0.00  0.00    -0.272 N 
ATOM      3  C   UNL d   1      53.112  33.770  53.671  0.00  0.00     0.059 A 
ATOM      4  C   UNL d   1      52.379  33.699  53.299  0.00  0.00     0.029 A 
ATOM      5  C   UNL d   1      52.170  32.997  52.929  0.00  0.00     0.021 A 
ATOM      6  C   UNL d   1      52.693  32.359  52.928  0.00  0.00     0.083 A 
ATOM      7  O   UNL d   1      54.371  33.206  54.043  0.00  0.00    -0.267 OA
ATOM      8  C   UNL d   1      51.850  34.333  53.296  0.00  0.00     0.100 A 
ATOM      9  C   UNL d   1      53.328  34.476  54.045  0.00  0.00     0.005 A 
ATOM     10  C   UNL d   1      52.795  35.109  54.040  0.00  0.00     0.002 A 
ATOM     11  C   UNL d   1      52.059  35.038  53.667  0.00  0.00     0.025 A 
ENDROOT
BRANCH   8  12
ATOM     12  O   UNL d   1      51.120  34.262  52.927  0.00  0.00    -0.300 OA
BRANCH  12  13
ATOM     13  C   UNL d   1      50.506  34.770  53.145  0.00  0.00     0.185 C 
BRANCH  13  14
ATOM     14  C   UNL d   1      49.812  34.797  52.699  0.00  0.00     0.304 C 
ATOM     15  N   UNL d   1      49.188  35.289  52.922  0.00  0.00    -0.203 NA
ATOM     16  O   UNL d   1      49.741  34.325  52.023  0.00  0.00    -0.263 OA
BRANCH  15  17
ATOM     17  C   UNL d   1      48.499  35.307  52.468  0.00  0.00     0.127 C 
BRANCH  17  18
ATOM     18  C   UNL d   1      47.902  35.833  52.661  0.00  0.00     0.119 A 
ATOM     19  O   UNL d   1      47.781  36.193  53.387  0.00  0.00    -0.304 OA
ATOM     20  C   UNL d   1      47.126  36.674  53.336  0.00  0.00     0.123 A 
ATOM     21  C   UNL d   1      46.829  36.619  52.570  0.00  0.00     0.029 A 
ATOM     22  C   UNL d   1      47.315  36.095  52.155  0.00  0.00     0.028 A 
ENDBRANCH  17  18
ENDBRANCH  15  17
ENDBRANCH  13  14
ENDBRANCH  12  13
ENDBRANCH   8  12
BRANCH   2  23
ATOM     23  C   UNL d   1      53.944  31.795  53.296  0.00  0.00     0.083 C 
BRANCH  23  24
ATOM     24  C   UNL d   1      53.690  31.056  53.547  0.00  0.00     0.018 A 
ATOM     25  C   UNL d   1      53.439  30.502  52.981  0.00  0.00     0.002 A 
ATOM     26  C   UNL d   1      53.185  29.761  53.241  0.00  0.00     0.007 A 
ATOM     27  C   UNL d   1      53.184  29.584  54.046  0.00  0.00     0.035 A 
ATOM     28  C   UNL d   1      53.436  30.149  54.591  0.00  0.00     0.007 A 
ATOM     29 BR   UNL d   1      52.929  28.844  54.293  0.00  0.00    -0.049 Br
ATOM     30  C   UNL d   1      53.689  30.883  54.337  0.00  0.00     0.002 A 
ENDBRANCH  23  24
ENDBRANCH   2  23
TORSDOF 7
ENDMDL
MODEL 2
REMARK VINA RESULT:      -8.1      2.361      6.870
REMARK  7 active torsions:
REMARK  status: ('A' for Active; 'I' for Inactive)
REMARK    1  A    between atoms: C_7  and  N_2 
REMARK    2  A    between atoms: C_21  and  C_7 
REMARK    3  A    between atoms: C_8  and  C_19 
REMARK       I    between atoms: N_13  and  C_8 
REMARK    4  A    between atoms: C_9  and  C_20 
REMARK    5  A    between atoms: O_14  and  C_11 
REMARK    6  A    between atoms: C_20  and  N_13 
REMARK    7  A    between atoms: C_19  and  O_14 
ROOT
ATOM      1  C   UNL d   1      47.396  35.697  51.803  0.00  0.00     0.265 A 
ATOM      2  N   UNL d   1      47.337  36.049  52.551  0.00  0.00    -0.272 N 
ATOM      3  C   UNL d   1      48.072  35.253  51.626  0.00  0.00     0.059 A 
ATOM      4  C   UNL d   1      48.673  35.163  52.184  0.00  0.00     0.029 A 
ATOM      5  C   UNL d   1      48.607  35.515  52.922  0.00  0.00     0.021 A 
ATOM      6  C   UNL d   1      47.939  35.960  53.109  0.00  0.00     0.083 A 
ATOM      7  O   UNL d   1      46.801  35.786  51.251  0.00  0.00    -0.267 OA
ATOM      8  C   UNL d   1      49.346  34.719  52.004  0.00  0.00     0.100 A 
ATOM      9  C   UNL d   1      48.134  34.900  50.880  0.00  0.00     0.005 A 
ATOM     10  C   UNL d   1      48.809  34.456  50.703  0.00  0.00     0.002 A 
ATOM     11  C   UNL d   1      49.413  34.366  51.264  0.00  0.00     0.025 A 
ENDROOT
BRANCH   8  12
ATOM     12  O   UNL d   1      49.944  34.630  52.559  0.00  0.00    -0.300 OA
BRANCH  12  13
ATOM     13  C   UNL d   1      50.589  34.143  52.384  0.00  0.00     0.185 C 
BRANCH  13  14
ATOM     14  C   UNL d   1      51.241  34.121  52.889  0.00  0.00     0.304 C 
ATOM     15  N   UNL d   1      51.696  33.436  52.958  0.00  0.00    -0.203 NA
ATOM     16  O   UNL d   1      51.441  34.793  53.330  0.00  0.00    -0.263 OA
BRANCH  15  17
ATOM     17  C   UNL d   1      52.346  33.426  53.466  0.00  0.00     0.127 C 
BRANCH  17  18
ATOM     18  C   UNL d   1      52.826  32.764  53.495  0.00  0.00     0.119 A 
ATOM     19  O   UNL d   1      52.653  32.020  53.201  0.00  0.00    -0.304 OA
ATOM     20  C   UNL d   1      53.284  31.525  53.346  0.00  0.00     0.123 A 
ATOM     21  C   UNL d   1      53.864  31.961  53.736  0.00  0.00     0.029 A 
ATOM     22  C   UNL d   1      53.574  32.730  53.825  0.00  0.00     0.028 A 
ENDBRANCH  17  18
ENDBRANCH  15  17
ENDBRANCH  13  14
ENDBRANCH  12  13
ENDBRANCH   8  12
BRANCH   2  23
ATOM     23  C   UNL d   1      46.674  36.492  52.740  0.00  0.00     0.083 C 
BRANCH  23  24
ATOM     24  C   UNL d   1      46.240  36.317  53.415  0.00  0.00     0.018 A 
ATOM     25  C   UNL d   1      46.422  36.709  54.124  0.00  0.00     0.002 A 
ATOM     26  C   UNL d   1      45.982  36.528  54.798  0.00  0.00     0.007 A 
ATOM     27  C   UNL d   1      45.378  35.969  54.758  0.00  0.00     0.035 A 
ATOM     28  C   UNL d   1      45.214  35.592  54.044  0.00  0.00     0.007 A 
ATOM     29 BR   UNL d   1      44.946  35.797  55.435  0.00  0.00    -0.049 Br
ATOM     30  C   UNL d   1      45.648  35.769  53.375  0.00  0.00     0.002 A 
ENDBRANCH  23  24
ENDBRANCH   2  23
TORSDOF 7
ENDMDL
MODEL 3
REMARK VINA RESULT:      -7.3      1.815      3.038
REMARK  7 active torsions:
REMARK  status: ('A' for Active; 'I' for Inactive)
REMARK    1  A    between atoms: C_7  and  N_2 
REMARK    2  A    between atoms: C_21  and  C_7 
REMARK    3  A    between atoms: C_8  and  C_19 
REMARK       I    between atoms: N_13  and  C_8 
REMARK    4  A    between atoms: C_9  and  C_20 
REMARK    5  A    between atoms: O_14  and  C_11 
REMARK    6  A    between atoms: C_20  and  N_13 
REMARK    7  A    between atoms: C_19  and  O_14 
ROOT
ATOM      1  C   UNL d   1      51.536  34.136  52.105  0.00  0.00     0.265 A 
ATOM      2  N   UNL d   1      51.980  34.365  52.767  0.00  0.00    -0.272 N 
ATOM      3  C   UNL d   1      50.726  34.305  52.093  0.00  0.00     0.059 A 
ATOM      4  C   UNL d   1      50.369  34.693  52.727  0.00  0.00     0.029 A 
ATOM      5  C   UNL d   1      50.815  34.917  53.379  0.00  0.00     0.021 A 
ATOM      6  C   UNL d   1      51.623  34.753  53.402  0.00  0.00     0.083 A 
ATOM      7  O   UNL d   1      51.890  33.752  51.477  0.00  0.00    -0.267 OA
ATOM      8  C   UNL d   1      49.560  34.860  52.712  0.00  0.00     0.100 A 
ATOM      9  C   UNL d   1      50.279  34.078  51.434  0.00  0.00     0.005 A 
ATOM     10  C   UNL d   1      49.470  34.247  51.422  0.00  0.00     0.002 A 
ATOM     11  C   UNL d   1      49.111  34.637  52.059  0.00  0.00     0.025 A 
ENDROOT
BRANCH   8  12
ATOM     12  O   UNL d   1      49.205  35.247  53.344  0.00  0.00    -0.300 OA
BRANCH  12  13
ATOM     13  C   UNL d   1      48.459  35.587  53.241  0.00  0.00     0.185 C 
BRANCH  13  14
ATOM     14  C   UNL d   1      48.152  36.096  53.814  0.00  0.00     0.304 C 
ATOM     15  N   UNL d   1      47.380  36.001  54.090  0.00  0.00    -0.203 NA
ATOM     16  O   UNL d   1      48.624  36.706  54.115  0.00  0.00    -0.263 OA
BRANCH  15  17
ATOM     17  C   UNL d   1      47.085  36.516  54.664  0.00  0.00     0.127 C 
BRANCH  17  18
ATOM     18  C   UNL d   1      46.300  36.462  54.890  0.00  0.00     0.119 A 
ATOM     19  O   UNL d   1      45.683  36.155  54.448  0.00  0.00    -0.304 OA
ATOM     20  C   UNL d   1      44.996  36.208  54.882  0.00  0.00     0.123 A 
ATOM     21  C   UNL d   1      45.179  36.553  55.607  0.00  0.00     0.029 A 
ATOM     22  C   UNL d   1      45.991  36.708  55.606  0.00  0.00     0.028 A 
ENDBRANCH  17  18
ENDBRANCH  15  17
ENDBRANCH  13  14
ENDBRANCH  12  13
ENDBRANCH   8  12
BRANCH   2  23
ATOM     23  C   UNL d   1      52.783  34.204  52.792  0.00  0.00     0.083 C 
BRANCH  23  24
ATOM     24  C   UNL d   1      53.102  33.802  53.433  0.00  0.00     0.018 A 
ATOM     25  C   UNL d   1      53.095  32.972  53.431  0.00  0.00     0.002 A 
ATOM     26  C   UNL d   1      53.418  32.574  54.079  0.00  0.00     0.007 A 
ATOM     27  C   UNL d   1      53.738  33.001  54.707  0.00  0.00     0.035 A 
ATOM     28  C   UNL d   1      53.735  33.824  54.688  0.00  0.00     0.007 A 
ATOM     29 BR   UNL d   1      54.056  32.595  55.346  0.00  0.00    -0.049 Br
ATOM     30  C   UNL d   1      53.416  34.221  54.049  0.00  0.00     0.002 A 
ENDBRANCH  23  24
ENDBRANCH   2  23
TORSDOF 7
ENDMDL
MODEL 4
REMARK VINA RESULT:      -6.2      2.197      6.012
REMARK  7 active torsions:
REMARK  status: ('A' for Active; 'I' for Inactive)
REMARK    1  A    between atoms: C_7  and  N_2 
REMARK    2  A    between atoms: C_21  and  C_7 
REMARK    3  A    between atoms: C_8  and  C_19 
REMARK       I    between atoms: N_13  and  C_8 
REMARK    4  A    between atoms: C_9  and  C_20 
REMARK    5  A    between atoms: O_14  and  C_11 
REMARK    6  A    between atoms: C_20  and  N_13 
REMARK    7  A    between atoms: C_19  and  O_14 
ROOT
ATOM      1  C   UNL d   1      51.476  34.667  53.402  0.00  0.00     0.265 A 
ATOM      2  N   UNL d   1      50.735  34.362  53.191  0.00  0.00    -0.272 N 
ATOM      3  C   UNL d   1      52.135  34.167  53.369  0.00  0.00     0.059 A 
ATOM      4  C   UNL d   1      52.054  33.382  53.130  0.00  0.00     0.029 A 
ATOM      5  C   UNL d   1      51.317  33.087  52.923  0.00  0.00     0.021 A 
ATOM      6  C   UNL d   1      50.653  33.576  52.953  0.00  0.00     0.083 A 
ATOM      7  O   UNL d   1      51.556  35.445  53.638  0.00  0.00    -0.267 OA
ATOM      8  C   UNL d   1      52.714  32.886  53.097  0.00  0.00     0.100 A 
ATOM      9  C   UNL d   1      52.877  34.469  53.578  0.00  0.00     0.005 A 
ATOM     10  C   UNL d   1      53.535  33.969  53.544  0.00  0.00     0.002 A 
ATOM     11  C   UNL d   1      53.454  33.180  53.305  0.00  0.00     0.025 A 
ENDROOT
BRANCH   8  12
ATOM     12  O   UNL d   1      52.633  32.104  52.860  0.00  0.00    -0.300 OA
BRANCH  12  13
ATOM     13  C   UNL d   1      53.274  31.589  52.941  0.00  0.00     0.185 C 
BRANCH  13  14
ATOM     14  C   UNL d   1      53.151  30.773  52.959  0.00  0.00     0.304 C 
ATOM     15  N   UNL d   1      53.258  30.347  53.658  0.00  0.00    -0.203 NA
ATOM     16  O   UNL d   1      52.918  30.378  52.269  0.00  0.00    -0.263 OA
BRANCH  15  17
ATOM     17  C   UNL d   1      53.132  29.532  53.664  0.00  0.00     0.127 C 
BRANCH  17  18
ATOM     18  C   UNL d   1      53.246  29.110  54.356  0.00  0.00     0.119 A 
ATOM     19  O   UNL d   1      53.606  28.378  54.429  0.00  0.00    -0.304 OA
ATOM     20  C   UNL d   1      53.604  28.161  55.214  0.00  0.00     0.123 A 
ATOM     21  C   UNL d   1      53.240  28.762  55.643  0.00  0.00     0.029 A 
ATOM     22  C   UNL d   1      53.020  29.349  55.104  0.00  0.00     0.028 A 
ENDBRANCH  17  18
ENDBRANCH  15  17
ENDBRANCH  13  14
ENDBRANCH  12  13
ENDBRANCH   8  12
BRANCH   2  23
ATOM     23  C   UNL d   1      50.074  34.845  53.220  0.00  0.00     0.083 C 
BRANCH  23  24
ATOM     24  C   UNL d   1      49.537  34.846  52.599  0.00  0.00     0.018 A 
ATOM     25  C   UNL d   1      48.795  35.203  52.709  0.00  0.00     0.002 A 
ATOM     26  C   UNL d   1      48.260  35.199  52.080  0.00  0.00     0.007 A 
ATOM     27  C   UNL d   1      48.467  34.848  51.364  0.00  0.00     0.035 A 
ATOM     28  C   UNL d   1      49.209  34.501  51.277  0.00  0.00     0.007 A 
ATOM     29 BR   UNL d   1      47.927  34.851  50.745  0.00  0.00    -0.049 Br
ATOM     30  C   UNL d   1      49.741  34.502  51.897  0.00  0.00     0.002 A 
ENDBRANCH  23  24
ENDBRANCH   2  23
TORSDOF 7
ENDMDL
