MODEL 1
REMARK VINA RESULT:      48.4      0.000      0.000
REMARK  5 active torsions:
REMARK  status: ('A' for Active; 'I' for Inactive)
REMARK    1  A    between atoms: C_2  and  C_1 
REMARK    2  A    between atoms: C_5  and  C_2 
REMARK    3  A    between atoms: C_11  and  C_5 
REMARK    4  A    between atoms: C_10  and  C_12 
REMARK    5  A    between atoms: O_19  and  C_10 
ROOT
ATOM      1  C   UNL d   1     -50.542  25.574  33.493  0.00  0.00     0.131 C 
ATOM      2  C   UNL d   1     -49.780  25.234  33.459  0.00  0.00     0.106 C 
ATOM      3  N   UNL d   1     -49.055  24.919  33.428  0.00  0.00    -0.191 NA
ENDROOT
BRANCH   1   4
ATOM      4  C   UNL d   1     -51.196  25.098  33.452  0.00  0.00     0.123 A 
ATOM      5  N   UNL d   1     -51.177  24.276  33.414  0.00  0.00    -0.238 NA
ATOM      6  C   UNL d   1     -51.977  24.010  33.379  0.00  0.00     0.088 A 
ATOM      7  C   UNL d   1     -52.295  23.276  33.335  0.00  0.00     0.020 A 
ATOM      8  C   UNL d   1     -52.463  24.676  33.396  0.00  0.00     0.049 A 
ATOM      9  C   UNL d   1     -53.102  23.190  33.308  0.00  0.00     0.002 A 
ATOM     10  C   UNL d   1     -53.602  23.874  33.326  0.00  0.00     0.001 A 
ATOM     11  C   UNL d   1     -53.272  24.615  33.370  0.00  0.00     0.008 A 
ATOM     12  S   UNL d   1     -51.965  25.355  33.442  0.00  0.00    -0.066 SA
ENDBRANCH   1   4
BRANCH   1  13
ATOM     13  C   UNL d   1     -50.629  26.389  33.567  0.00  0.00     0.207 C 
ATOM     14  O   UNL d   1     -51.324  26.757  33.306  0.00  0.00    -0.286 OA
BRANCH  13  15
ATOM     15  C   UNL d   1     -50.004  26.857  33.913  0.00  0.00     0.040 A 
ATOM     16  C   UNL d   1     -49.762  27.546  33.544  0.00  0.00     0.003 A 
ATOM     17  C   UNL d   1     -49.158  27.998  33.879  0.00  0.00     0.005 A 
ATOM     18  C   UNL d   1     -48.806  27.753  34.576  0.00  0.00     0.063 A 
ATOM     19  C   UNL d   1     -49.047  27.058  34.951  0.00  0.00     0.005 A 
ATOM     20  C   UNL d   1     -49.652  26.606  34.616  0.00  0.00     0.003 A 
BRANCH  18  21
ATOM     21  C   UNL d   1     -48.181  28.221  34.922  0.00  0.00     0.296 C 
ATOM     22  O   UNL d   1     -47.481  27.853  35.171  0.00  0.00    -0.259 OA
BRANCH  21  23
ATOM     23  O   UNL d   1     -48.274  29.033  35.008  0.00  0.00    -0.296 OA
ATOM     24  C   UNL d   1     -47.764  29.457  35.500  0.00  0.00     0.185 C 
ENDBRANCH  21  23
ENDBRANCH  18  21
ENDBRANCH  13  15
ENDBRANCH   1  13
TORSDOF 5
ENDMDL
