MODEL 1
REMARK VINA RESULT:      -8.9      0.000      0.000
REMARK  4 active torsions:
REMARK  status: ('A' for Active; 'I' for Inactive)
REMARK       I    between atoms: N_2  and  C_1 
REMARK       I    between atoms: N_3  and  C_1 
REMARK    1  A    between atoms: C_7  and  N_3 
REMARK    2  A    between atoms: C_8  and  C_12 
REMARK    3  A    between atoms: C_17  and  C_8 
REMARK    4  A    between atoms: O_18  and  C_9 
ROOT
ATOM      1  C   UNL d   1      50.634  33.795  52.837  0.00  0.00     0.354 C 
ATOM      2  N   UNL d   1      51.407  33.546  52.980  0.00  0.00    -0.256 N 
ATOM      3  N   UNL d   1      50.499  34.539  52.510  0.00  0.00    -0.192 NA
ATOM      4  O   UNL d   1      49.997  33.302  53.021  0.00  0.00    -0.244 OA
ATOM      5  C   UNL d   1      51.541  32.797  53.309  0.00  0.00     0.085 A 
ATOM      6  C   UNL d   1      52.045  34.036  52.797  0.00  0.00     0.085 A 
ATOM      7  C   UNL d   1      52.322  32.545  53.453  0.00  0.00     0.019 A 
ATOM      8  C   UNL d   1      52.810  33.785  52.940  0.00  0.00     0.019 A 
ATOM      9  C   UNL d   1      52.946  33.038  53.269  0.00  0.00     0.003 A 
ENDROOT
BRANCH   3  10
ATOM     10  C   UNL d   1      49.720  34.794  52.365  0.00  0.00     0.086 A 
ATOM     11  C   UNL d   1      49.313  35.209  52.944  0.00  0.00     0.021 A 
ATOM     12  C   UNL d   1      48.541  35.463  52.804  0.00  0.00     0.026 A 
ATOM     13  C   UNL d   1      48.186  35.296  52.079  0.00  0.00     0.094 A 
ATOM     14  C   UNL d   1      48.601  34.874  51.493  0.00  0.00     0.026 A 
ATOM     15  C   UNL d   1      49.371  34.626  51.646  0.00  0.00     0.021 A 
BRANCH  13  16
ATOM     16  O   UNL d   1      47.408  35.548  51.928  0.00  0.00    -0.328 OA
ATOM     17  C   UNL d   1      47.163  36.297  52.168  0.00  0.00     0.181 C 
ENDBRANCH  13  16
ENDBRANCH   3  10
BRANCH   9  18
ATOM     18  C   UNL d   1      53.722  32.786  53.413  0.00  0.00     0.000 C 
BRANCH  18  19
ATOM     19  C   UNL d   1      54.113  33.007  54.100  0.00  0.00     0.000 A 
ATOM     20  C   UNL d   1      53.928  32.643  54.815  0.00  0.00     0.000 A 
ATOM     21  C   UNL d   1      54.323  32.867  55.507  0.00  0.00     0.000 A 
ATOM     22  C   UNL d   1      54.906  33.456  55.479  0.00  0.00     0.000 A 
ATOM     23  C   UNL d   1      55.091  33.819  54.759  0.00  0.00     0.000 A 
ATOM     24  C   UNL d   1      54.696  33.596  54.071  0.00  0.00     0.000 A 
ENDBRANCH  18  19
ENDBRANCH   9  18
TORSDOF 4
ENDMDL
MODEL 2
REMARK VINA RESULT:      -7.9      1.663      6.232
REMARK  4 active torsions:
REMARK  status: ('A' for Active; 'I' for Inactive)
REMARK       I    between atoms: N_2  and  C_1 
REMARK       I    between atoms: N_3  and  C_1 
REMARK    1  A    between atoms: C_7  and  N_3 
REMARK    2  A    between atoms: C_8  and  C_12 
REMARK    3  A    between atoms: C_17  and  C_8 
REMARK    4  A    between atoms: O_18  and  C_9 
ROOT
ATOM      1  C   UNL d   1      49.637  34.625  52.301  0.00  0.00     0.354 C 
ATOM      2  N   UNL d   1      48.932  35.053  52.281  0.00  0.00    -0.256 N 
ATOM      3  N   UNL d   1      50.094  34.625  52.986  0.00  0.00    -0.192 NA
ATOM      4  O   UNL d   1      49.883  34.198  51.638  0.00  0.00    -0.244 OA
ATOM      5  C   UNL d   1      48.473  35.051  51.590  0.00  0.00     0.085 A 
ATOM      6  C   UNL d   1      48.682  35.480  52.941  0.00  0.00     0.085 A 
ATOM      7  C   UNL d   1      47.760  35.483  51.569  0.00  0.00     0.019 A 
ATOM      8  C   UNL d   1      47.983  35.903  52.916  0.00  0.00     0.019 A 
ATOM      9  C   UNL d   1      47.523  35.903  52.229  0.00  0.00     0.003 A 
ENDROOT
BRANCH   3  10
ATOM     10  C   UNL d   1      50.806  34.195  53.010  0.00  0.00     0.086 A 
ATOM     11  C   UNL d   1      50.804  33.420  53.279  0.00  0.00     0.021 A 
ATOM     12  C   UNL d   1      51.507  32.990  53.305  0.00  0.00     0.026 A 
ATOM     13  C   UNL d   1      52.208  33.347  53.059  0.00  0.00     0.094 A 
ATOM     14  C   UNL d   1      52.207  34.134  52.787  0.00  0.00     0.026 A 
ATOM     15  C   UNL d   1      51.498  34.553  52.766  0.00  0.00     0.021 A 
BRANCH  13  16
ATOM     16  O   UNL d   1      52.922  32.923  53.081  0.00  0.00    -0.328 OA
ATOM     17  C   UNL d   1      52.923  32.109  52.946  0.00  0.00     0.181 C 
ENDBRANCH  13  16
ENDBRANCH   3  10
BRANCH   9  18
ATOM     18  C   UNL d   1      46.814  36.332  52.206  0.00  0.00     0.000 C 
BRANCH  18  19
ATOM     19  C   UNL d   1      46.101  35.973  52.397  0.00  0.00     0.000 A 
ATOM     20  C   UNL d   1      45.846  35.952  53.180  0.00  0.00     0.000 A 
ATOM     21  C   UNL d   1      45.126  35.590  53.370  0.00  0.00     0.000 A 
ATOM     22  C   UNL d   1      44.664  35.249  52.773  0.00  0.00     0.000 A 
ATOM     23  C   UNL d   1      44.922  35.271  51.987  0.00  0.00     0.000 A 
ATOM     24  C   UNL d   1      45.639  35.632  51.799  0.00  0.00     0.000 A 
ENDBRANCH  18  19
ENDBRANCH   9  18
TORSDOF 4
ENDMDL
