MODEL 1
REMARK VINA RESULT:       5.1      0.000      0.000
REMARK  5 active torsions:
REMARK  status: ('A' for Active; 'I' for Inactive)
REMARK    1  A    between atoms: C_18  and  N_1 
REMARK    2  A    between atoms: C_13  and  C_6 
REMARK    3  A    between atoms: C_12  and  C_7 
REMARK    4  A    between atoms: C_23  and  C_14 
REMARK    5  A    between atoms: C_19  and  C_18 
ROOT
ATOM      1  C   UNL d   1      58.238   0.601  34.207  0.00  0.00     0.121 A 
ATOM      2  C   UNL d   1      57.457   0.404  34.010  0.00  0.00     0.058 A 
ATOM      3  N   UNL d   1      58.274   0.681  35.026  0.00  0.00    -0.195 NA
ATOM      4  S   UNL d   1      58.803   0.680  33.614  0.00  0.00    -0.068 SA
ATOM      5  C   UNL d   1      58.598   0.563  32.822  0.00  0.00     0.026 A 
ATOM      6  C   UNL d   1      57.817   0.366  32.625  0.00  0.00    -0.001 A 
ATOM      7  C   UNL d   1      58.918   0.559  31.938  0.00  0.00    -0.011 A 
ATOM      8  C   UNL d   1      58.023   0.344  31.832  0.00  0.00    -0.027 A 
ATOM      9  C   UNL d   1      57.247   0.287  33.221  0.00  0.00     0.008 A 
ATOM     10  C   UNL d   1      57.521   0.535  35.333  0.00  0.00     0.311 A 
ATOM     11  S   UNL d   1      57.019   0.365  34.709  0.00  0.00    -0.024 SA
ATOM     12  C   UNL d   1      59.608   0.680  31.505  0.00  0.00     0.049 A 
ATOM     13  O   UNL d   1      57.314   0.557  36.131  0.00  0.00    -0.258 OA
ENDROOT
BRANCH   9  14
ATOM     14  C   UNL d   1      56.474   0.092  33.026  0.00  0.00     0.001 A 
ATOM     15  C   UNL d   1      55.913   0.682  32.900  0.00  0.00     0.000 A 
ATOM     16  C   UNL d   1      55.137   0.486  32.704  0.00  0.00     0.000 A 
ATOM     17  C   UNL d   1      54.909  -0.303  32.631  0.00  0.00     0.000 A 
ATOM     18  C   UNL d   1      55.473  -0.900  32.757  0.00  0.00     0.000 A 
ATOM     19  C   UNL d   1      56.249  -0.704  32.953  0.00  0.00     0.000 A 
ENDBRANCH   9  14
BRANCH   8  20
ATOM     20  C   UNL d   1      57.549   0.178  31.183  0.00  0.00     0.125 A 
ATOM     21  C   UNL d   1      57.553  -0.053  30.391  0.00  0.00     0.251 A 
ATOM     22  N   UNL d   1      58.342  -0.156  30.166  0.00  0.00    -0.239 N 
ATOM     23  O   UNL d   1      56.888  -0.162  29.905  0.00  0.00    -0.271 OA
ATOM     24  C   UNL d   1      58.819   0.008  30.806  0.00  0.00     0.263 A 
ATOM     25  C   UNL d   1      58.326   0.217  31.445  0.00  0.00     0.044 A 
ATOM     26  O   UNL d   1      59.646  -0.030  30.813  0.00  0.00    -0.267 OA
BRANCH  22  27
ATOM     27  C   UNL d   1      58.612  -0.392  29.398  0.00  0.00     0.134 C 
ATOM     28  C   UNL d   1      58.884   0.185  28.846  0.00  0.00     0.026 C 
BRANCH  27  29
ATOM     29  C   UNL d   1      58.608  -1.215  29.183  0.00  0.00     0.228 C 
ATOM     30  O   UNL d   1      59.335  -1.650  29.166  0.00  0.00    -0.643 OA
ATOM     31  O   UNL d   1      57.882  -1.591  28.988  0.00  0.00    -0.643 OA
ENDBRANCH  27  29
ENDBRANCH  22  27
ENDBRANCH   8  20
TORSDOF 5
ENDMDL
