MODEL 1
REMARK VINA RESULT:      -5.3      0.000      0.000
REMARK  2 active torsions:
REMARK  status: ('A' for Active; 'I' for Inactive)
REMARK    1  A    between atoms: C_6  and  N_1 
REMARK    2  A    between atoms: C_7  and  C_6 
ROOT
ATOM      1  N   UNL d   1      56.063  -0.707  32.942  0.00  0.00    -0.287 N 
ATOM      2  N   UNL d   1      56.580  -1.655  32.128  0.00  0.00    -0.224 NA
ATOM      3  C   UNL d   1      56.110  -1.523  32.822  0.00  0.00     0.183 A 
ATOM      4  C   UNL d   1      56.480  -0.336  32.358  0.00  0.00     0.083 A 
ATOM      5  C   UNL d   1      56.806  -0.934  31.844  0.00  0.00     0.099 A 
ATOM      6  C   UNL d   1      56.621   0.462  32.203  0.00  0.00     0.019 A 
ATOM      7  C   UNL d   1      57.264  -0.673  31.194  0.00  0.00     0.021 A 
ATOM      8  C   UNL d   1      57.078   0.682  31.552  0.00  0.00     0.002 A 
ATOM      9  C   UNL d   1      57.393   0.103  31.056  0.00  0.00     0.002 A 
ENDROOT
BRANCH   1  10
ATOM     10  C   UNL d   1      55.977   0.060  33.116  0.00  0.00     0.082 C 
BRANCH  10  11
ATOM     11  C   UNL d   1      55.544   0.267  33.787  0.00  0.00     0.018 A 
ATOM     12  C   UNL d   1      54.736   0.423  33.725  0.00  0.00     0.002 A 
ATOM     13  C   UNL d   1      54.299   0.631  34.397  0.00  0.00     0.000 A 
ATOM     14  C   UNL d   1      54.673   0.682  35.131  0.00  0.00     0.000 A 
ATOM     15  C   UNL d   1      55.485   0.524  35.192  0.00  0.00     0.000 A 
ATOM     16  C   UNL d   1      55.919   0.317  34.520  0.00  0.00     0.002 A 
ENDBRANCH  10  11
ENDBRANCH   1  10
TORSDOF 2
ENDMDL
MODEL 2
REMARK VINA RESULT:      -4.7      0.935      3.324
REMARK  2 active torsions:
REMARK  status: ('A' for Active; 'I' for Inactive)
REMARK    1  A    between atoms: C_6  and  N_1 
REMARK    2  A    between atoms: C_7  and  C_6 
ROOT
ATOM      1  N   UNL d   1      56.774  -0.729  31.948  0.00  0.00    -0.287 N 
ATOM      2  N   UNL d   1      56.051  -1.685  32.574  0.00  0.00    -0.224 NA
ATOM      3  C   UNL d   1      56.648  -1.544  31.988  0.00  0.00     0.183 A 
ATOM      4  C   UNL d   1      56.285  -0.365  32.479  0.00  0.00     0.083 A 
ATOM      5  C   UNL d   1      55.829  -0.969  32.874  0.00  0.00     0.099 A 
ATOM      6  C   UNL d   1      56.175   0.428  32.674  0.00  0.00     0.019 A 
ATOM      7  C   UNL d   1      55.280  -0.717  33.454  0.00  0.00     0.021 A 
ATOM      8  C   UNL d   1      55.624   0.639  33.251  0.00  0.00     0.002 A 
ATOM      9  C   UNL d   1      55.183   0.056  33.633  0.00  0.00     0.002 A 
ENDROOT
BRANCH   1  10
ATOM     10  C   UNL d   1      56.944   0.039  31.857  0.00  0.00     0.082 C 
BRANCH  10  11
ATOM     11  C   UNL d   1      57.536   0.252  31.325  0.00  0.00     0.018 A 
ATOM     12  C   UNL d   1      57.381   0.254  30.514  0.00  0.00     0.002 A 
ATOM     13  C   UNL d   1      57.974   0.468  29.977  0.00  0.00     0.000 A 
ATOM     14  C   UNL d   1      58.722   0.680  30.254  0.00  0.00     0.000 A 
ATOM     15  C   UNL d   1      58.877   0.677  31.068  0.00  0.00     0.000 A 
ATOM     16  C   UNL d   1      58.284   0.464  31.602  0.00  0.00     0.002 A 
ENDBRANCH  10  11
ENDBRANCH   1  10
TORSDOF 2
ENDMDL
MODEL 3
REMARK VINA RESULT:      -4.5      0.957      3.440
REMARK  2 active torsions:
REMARK  status: ('A' for Active; 'I' for Inactive)
REMARK    1  A    between atoms: C_6  and  N_1 
REMARK    2  A    between atoms: C_7  and  C_6 
ROOT
ATOM      1  N   UNL d   1      56.992   0.358  33.163  0.00  0.00    -0.287 N 
ATOM      2  N   UNL d   1      56.971   0.681  34.475  0.00  0.00    -0.224 NA
ATOM      3  C   UNL d   1      57.475   0.548  33.805  0.00  0.00     0.183 A 
ATOM      4  C   UNL d   1      56.222   0.368  33.405  0.00  0.00     0.083 A 
ATOM      5  C   UNL d   1      56.208   0.572  34.234  0.00  0.00     0.099 A 
ATOM      6  C   UNL d   1      55.516   0.223  33.005  0.00  0.00     0.019 A 
ATOM      7  C   UNL d   1      55.460   0.616  34.606  0.00  0.00     0.021 A 
ATOM      8  C   UNL d   1      54.796   0.276  33.405  0.00  0.00     0.002 A 
ATOM      9  C   UNL d   1      54.783   0.473  34.206  0.00  0.00     0.002 A 
ENDROOT
BRANCH   1  10
ATOM     10  C   UNL d   1      56.591   0.169  32.506  0.00  0.00     0.082 C 
BRANCH  10  11
ATOM     11  C   UNL d   1      57.014   0.022  31.814  0.00  0.00     0.018 A 
ATOM     12  C   UNL d   1      57.382   0.642  31.414  0.00  0.00     0.002 A 
ATOM     13  C   UNL d   1      57.808   0.496  30.718  0.00  0.00     0.000 A 
ATOM     14  C   UNL d   1      57.862  -0.273  30.425  0.00  0.00     0.000 A 
ATOM     15  C   UNL d   1      57.491  -0.896  30.827  0.00  0.00     0.000 A 
ATOM     16  C   UNL d   1      57.068  -0.748  31.521  0.00  0.00     0.002 A 
ENDBRANCH  10  11
ENDBRANCH   1  10
TORSDOF 2
ENDMDL
MODEL 4
REMARK VINA RESULT:      -4.3      1.413      2.223
REMARK  2 active torsions:
REMARK  status: ('A' for Active; 'I' for Inactive)
REMARK    1  A    between atoms: C_6  and  N_1 
REMARK    2  A    between atoms: C_7  and  C_6 
ROOT
ATOM      1  N   UNL d   1      57.761   0.356  32.149  0.00  0.00    -0.287 N 
ATOM      2  N   UNL d   1      59.057   0.682  31.941  0.00  0.00    -0.224 NA
ATOM      3  C   UNL d   1      58.468   0.540  32.535  0.00  0.00     0.183 A 
ATOM      4  C   UNL d   1      57.888   0.380  31.351  0.00  0.00     0.083 A 
ATOM      5  C   UNL d   1      58.707   0.585  31.220  0.00  0.00     0.099 A 
ATOM      6  C   UNL d   1      57.389   0.246  30.709  0.00  0.00     0.019 A 
ATOM      7  C   UNL d   1      58.965   0.642  30.426  0.00  0.00     0.021 A 
ATOM      8  C   UNL d   1      57.680   0.311  29.939  0.00  0.00     0.002 A 
ATOM      9  C   UNL d   1      58.470   0.510  29.813  0.00  0.00     0.002 A 
ENDROOT
BRANCH   1  10
ATOM     10  C   UNL d   1      57.053   0.174  31.845  0.00  0.00     0.082 C 
BRANCH  10  11
ATOM     11  C   UNL d   1      56.439  -0.015  32.361  0.00  0.00     0.018 A 
ATOM     12  C   UNL d   1      56.278  -0.804  32.542  0.00  0.00     0.002 A 
ATOM     13  C   UNL d   1      55.661  -0.996  33.061  0.00  0.00     0.000 A 
ATOM     14  C   UNL d   1      55.206  -0.396  33.397  0.00  0.00     0.000 A 
ATOM     15  C   UNL d   1      55.368   0.397  33.215  0.00  0.00     0.000 A 
ATOM     16  C   UNL d   1      55.984   0.585  32.698  0.00  0.00     0.002 A 
ENDBRANCH  10  11
ENDBRANCH   1  10
TORSDOF 2
ENDMDL
MODEL 5
REMARK VINA RESULT:      -3.7      1.637      2.776
REMARK  2 active torsions:
REMARK  status: ('A' for Active; 'I' for Inactive)
REMARK    1  A    between atoms: C_6  and  N_1 
REMARK    2  A    between atoms: C_7  and  C_6 
ROOT
ATOM      1  N   UNL d   1      57.993   0.130  31.335  0.00  0.00    -0.287 N 
ATOM      2  N   UNL d   1      59.150   0.646  30.864  0.00  0.00    -0.224 NA
ATOM      3  C   UNL d   1      58.586   0.681  31.497  0.00  0.00     0.183 A 
ATOM      4  C   UNL d   1      58.165  -0.239  30.637  0.00  0.00     0.083 A 
ATOM      5  C   UNL d   1      58.896   0.087  30.340  0.00  0.00     0.099 A 
ATOM      6  C   UNL d   1      57.773  -0.827  30.213  0.00  0.00     0.019 A 
ATOM      7  C   UNL d   1      59.183  -0.216  29.614  0.00  0.00     0.021 A 
ATOM      8  C   UNL d   1      58.087  -1.102  29.501  0.00  0.00     0.002 A 
ATOM      9  C   UNL d   1      58.793  -0.787  29.214  0.00  0.00     0.002 A 
ENDROOT
BRANCH   1  10
ATOM     10  C   UNL d   1      57.392  -0.377  31.243  0.00  0.00     0.082 C 
BRANCH  10  11
ATOM     11  C   UNL d   1      56.812  -0.413  31.828  0.00  0.00     0.018 A 
ATOM     12  C   UNL d   1      56.620  -1.136  32.177  0.00  0.00     0.002 A 
ATOM     13  C   UNL d   1      56.038  -1.174  32.765  0.00  0.00     0.000 A 
ATOM     14  C   UNL d   1      55.649  -0.487  33.002  0.00  0.00     0.000 A 
ATOM     15  C   UNL d   1      55.842   0.239  32.652  0.00  0.00     0.000 A 
ATOM     16  C   UNL d   1      56.423   0.275  32.066  0.00  0.00     0.002 A 
ENDBRANCH  10  11
ENDBRANCH   1  10
TORSDOF 2
ENDMDL
MODEL 6
REMARK VINA RESULT:      -3.2      1.655      4.274
REMARK  2 active torsions:
REMARK  status: ('A' for Active; 'I' for Inactive)
REMARK    1  A    between atoms: C_6  and  N_1 
REMARK    2  A    between atoms: C_7  and  C_6 
ROOT
ATOM      1  N   UNL d   1      57.790  -0.050  31.335  0.00  0.00    -0.287 N 
ATOM      2  N   UNL d   1      57.499   0.682  32.434  0.00  0.00    -0.224 NA
ATOM      3  C   UNL d   1      57.987   0.642  31.741  0.00  0.00     0.183 A 
ATOM      4  C   UNL d   1      57.208  -0.433  31.744  0.00  0.00     0.083 A 
ATOM      5  C   UNL d   1      57.024   0.029  32.438  0.00  0.00     0.099 A 
ATOM      6  C   UNL d   1      56.806  -1.138  31.599  0.00  0.00     0.019 A 
ATOM      7  C   UNL d   1      56.430  -0.266  32.948  0.00  0.00     0.021 A 
ATOM      8  C   UNL d   1      56.225  -1.397  32.125  0.00  0.00     0.002 A 
ATOM      9  C   UNL d   1      56.047  -0.951  32.796  0.00  0.00     0.002 A 
ENDROOT
BRANCH   1  10
ATOM     10  C   UNL d   1      57.652  -0.694  30.896  0.00  0.00     0.082 C 
BRANCH  10  11
ATOM     11  C   UNL d   1      58.062  -0.783  30.186  0.00  0.00     0.018 A 
ATOM     12  C   UNL d   1      58.432  -1.499  30.010  0.00  0.00     0.002 A 
ATOM     13  C   UNL d   1      58.845  -1.591  29.297  0.00  0.00     0.000 A 
ATOM     14  C   UNL d   1      58.884  -0.964  28.762  0.00  0.00     0.000 A 
ATOM     15  C   UNL d   1      58.512  -0.245  28.940  0.00  0.00     0.000 A 
ATOM     16  C   UNL d   1      58.101  -0.156  29.651  0.00  0.00     0.002 A 
ENDBRANCH  10  11
ENDBRANCH   1  10
TORSDOF 2
ENDMDL
MODEL 7
REMARK VINA RESULT:      -3.0      3.498      5.659
REMARK  2 active torsions:
REMARK  status: ('A' for Active; 'I' for Inactive)
REMARK    1  A    between atoms: C_6  and  N_1 
REMARK    2  A    between atoms: C_7  and  C_6 
ROOT
ATOM      1  N   UNL d   1      58.897  -0.879  28.962  0.00  0.00    -0.287 N 
ATOM      2  N   UNL d   1      58.764   0.455  28.784  0.00  0.00    -0.224 NA
ATOM      3  C   UNL d   1      59.091  -0.256  28.455  0.00  0.00     0.183 A 
ATOM      4  C   UNL d   1      58.471  -0.585  29.582  0.00  0.00     0.083 A 
ATOM      5  C   UNL d   1      58.387   0.258  29.469  0.00  0.00     0.099 A 
ATOM      6  C   UNL d   1      58.137  -0.947  30.243  0.00  0.00     0.019 A 
ATOM      7  C   UNL d   1      57.959   0.681  30.051  0.00  0.00     0.021 A 
ATOM      8  C   UNL d   1      57.722  -0.497  30.796  0.00  0.00     0.002 A 
ATOM      9  C   UNL d   1      57.641   0.317  30.687  0.00  0.00     0.002 A 
ENDROOT
BRANCH   1  10
ATOM     10  C   UNL d   1      58.748  -1.520  29.402  0.00  0.00     0.082 C 
BRANCH  10  11
ATOM     11  C   UNL d   1      59.033  -2.250  29.145  0.00  0.00     0.018 A 
ATOM     12  C   UNL d   1      59.817  -2.462  29.291  0.00  0.00     0.002 A 
ATOM     13  C   UNL d   1      60.106  -3.195  29.035  0.00  0.00     0.000 A 
ATOM     14  C   UNL d   1      59.607  -3.714  28.632  0.00  0.00     0.000 A 
ATOM     15  C   UNL d   1      58.819  -3.500  28.486  0.00  0.00     0.000 A 
ATOM     16  C   UNL d   1      58.534  -2.769  28.743  0.00  0.00     0.002 A 
ENDBRANCH  10  11
ENDBRANCH   1  10
TORSDOF 2
ENDMDL
MODEL 8
REMARK VINA RESULT:      -2.9      4.247      5.674
REMARK  2 active torsions:
REMARK  status: ('A' for Active; 'I' for Inactive)
REMARK    1  A    between atoms: C_6  and  N_1 
REMARK    2  A    between atoms: C_7  and  C_6 
ROOT
ATOM      1  N   UNL d   1      59.843  -1.663  29.064  0.00  0.00    -0.287 N 
ATOM      2  N   UNL d   1      60.917  -2.483  28.999  0.00  0.00    -0.224 NA
ATOM      3  C   UNL d   1      60.665  -1.686  29.148  0.00  0.00     0.183 A 
ATOM      4  C   UNL d   1      59.582  -2.403  28.872  0.00  0.00     0.083 A 
ATOM      5  C   UNL d   1      60.260  -2.921  28.831  0.00  0.00     0.099 A 
ATOM      6  C   UNL d   1      58.827  -2.700  28.725  0.00  0.00     0.019 A 
ATOM      7  C   UNL d   1      60.118  -3.722  28.638  0.00  0.00     0.021 A 
ATOM      8  C   UNL d   1      58.726  -3.497  28.537  0.00  0.00     0.002 A 
ATOM      9  C   UNL d   1      59.381  -3.997  28.498  0.00  0.00     0.002 A 
ENDROOT
BRANCH   1  10
ATOM     10  C   UNL d   1      59.060  -1.569  29.000  0.00  0.00     0.082 C 
BRANCH  10  11
ATOM     11  C   UNL d   1      58.740  -0.821  29.131  0.00  0.00     0.018 A 
ATOM     12  C   UNL d   1      58.686  -0.280  28.510  0.00  0.00     0.002 A 
ATOM     13  C   UNL d   1      58.365   0.473  28.639  0.00  0.00     0.000 A 
ATOM     14  C   UNL d   1      58.098   0.682  29.391  0.00  0.00     0.000 A 
ATOM     15  C   UNL d   1      58.152   0.138  30.014  0.00  0.00     0.000 A 
ATOM     16  C   UNL d   1      58.473  -0.612  29.883  0.00  0.00     0.002 A 
ENDBRANCH  10  11
ENDBRANCH   1  10
TORSDOF 2
ENDMDL
MODEL 9
REMARK VINA RESULT:      -2.7      9.544     10.089
REMARK  2 active torsions:
REMARK  status: ('A' for Active; 'I' for Inactive)
REMARK    1  A    between atoms: C_6  and  N_1 
REMARK    2  A    between atoms: C_7  and  C_6 
ROOT
ATOM      1  N   UNL d   1      60.065  -9.456  33.421  0.00  0.00    -0.287 N 
ATOM      2  N   UNL d   1      60.453  -9.731  32.156  0.00  0.00    -0.224 NA
ATOM      3  C   UNL d   1      60.728  -9.572  32.943  0.00  0.00     0.183 A 
ATOM      4  C   UNL d   1      59.401  -9.536  32.968  0.00  0.00     0.083 A 
ATOM      5  C   UNL d   1      59.646  -9.710  32.169  0.00  0.00     0.099 A 
ATOM      6  C   UNL d   1      58.599  -9.480  33.150  0.00  0.00     0.019 A 
ATOM      7  C   UNL d   1      59.044  -9.817  31.598  0.00  0.00     0.021 A 
ATOM      8  C   UNL d   1      58.032  -9.591  32.560  0.00  0.00     0.002 A 
ATOM      9  C   UNL d   1      58.269  -9.759  31.788  0.00  0.00     0.002 A 
ENDROOT
BRANCH   1  10
ATOM     10  C   UNL d   1      59.476  -9.334  33.937  0.00  0.00     0.082 C 
BRANCH  10  11
ATOM     11  C   UNL d   1      59.664  -9.207  34.729  0.00  0.00     0.018 A 
ATOM     12  C   UNL d   1      59.445  -8.503  35.098  0.00  0.00     0.002 A 
ATOM     13  C   UNL d   1      59.633  -8.373  35.895  0.00  0.00     0.000 A 
ATOM     14  C   UNL d   1      60.041  -8.951  36.319  0.00  0.00     0.000 A 
ATOM     15  C   UNL d   1      60.261  -9.658  35.947  0.00  0.00     0.000 A 
ATOM     16  C   UNL d   1      60.073  -9.785  35.154  0.00  0.00     0.002 A 
ENDBRANCH  10  11
ENDBRANCH   1  10
TORSDOF 2
ENDMDL
