MODEL 1
REMARK VINA RESULT:      -5.0      0.000      0.000
REMARK  5 active torsions:
REMARK  status: ('A' for Active; 'I' for Inactive)
REMARK    1  A    between atoms: S_2  and  C_1 
REMARK    2  A    between atoms: C_9  and  S_2 
REMARK    3  A    between atoms: N_14  and  C_10 
REMARK    4  A    between atoms: C_22  and  N_14 
REMARK    5  A    between atoms: C_23  and  N_14 
ROOT
ATOM      1  C   UNL d   1      56.649  -0.266  32.237  0.00  0.00     0.151 A 
ATOM      2  C   UNL d   1      56.588  -1.009  31.885  0.00  0.00     0.311 A 
ATOM      3  C   UNL d   1      57.174   0.298  31.924  0.00  0.00     0.019 A 
ATOM      4  O   UNL d   1      57.052  -1.190  31.220  0.00  0.00    -0.272 OA
ATOM      5  C   UNL d   1      57.571  -0.630  30.913  0.00  0.00     0.105 A 
ATOM      6  C   UNL d   1      57.632   0.114  31.265  0.00  0.00     0.024 A 
ATOM      7  C   UNL d   1      58.029  -0.813  30.254  0.00  0.00     0.042 A 
ATOM      8  C   UNL d   1      58.548  -0.253  29.947  0.00  0.00     0.066 A 
ATOM      9  O   UNL d   1      56.066  -1.570  32.195  0.00  0.00    -0.258 OA
ATOM     10  C   UNL d   1      58.151   0.675  30.958  0.00  0.00     0.004 A 
ATOM     11  C   UNL d   1      58.609   0.491  30.300  0.00  0.00     0.018 A 
ENDROOT
BRANCH   1  12
ATOM     12  S   UNL d   1      56.188  -0.076  32.903  0.00  0.00     0.215 S 
ATOM     13  O   UNL d   1      56.832  -0.262  33.403  0.00  0.00    -0.217 OA
ATOM     14  O   UNL d   1      55.539   0.113  32.409  0.00  0.00    -0.217 OA
BRANCH  12  15
ATOM     15  C   UNL d   1      55.723   0.116  33.576  0.00  0.00     0.088 A 
ATOM     16  C   UNL d   1      54.905   0.035  33.540  0.00  0.00     0.011 A 
ATOM     17  C   UNL d   1      54.445   0.221  34.197  0.00  0.00     0.001 A 
ATOM     18  C   UNL d   1      54.804   0.489  34.890  0.00  0.00     0.000 A 
ATOM     19  C   UNL d   1      55.627   0.570  34.924  0.00  0.00     0.001 A 
ATOM     20  C   UNL d   1      54.343   0.680  35.562  0.00  0.00     0.000 C 
ATOM     21  C   UNL d   1      56.087   0.383  34.266  0.00  0.00     0.011 A 
ENDBRANCH  12  15
ENDBRANCH   1  12
BRANCH   8  22
ATOM     22  N   UNL d   1      59.015  -0.432  29.280  0.00  0.00    -0.304 N 
BRANCH  22  23
ATOM     23  C   UNL d   1      59.769  -0.099  29.203  0.00  0.00     0.080 C 
ATOM     24  C   UNL d   1      60.057   0.103  28.457  0.00  0.00     0.021 C 
ENDBRANCH  22  23
BRANCH  22  25
ATOM     25  C   UNL d   1      58.720  -0.941  28.702  0.00  0.00     0.080 C 
ATOM     26  C   UNL d   1      59.120  -1.639  28.524  0.00  0.00     0.021 C 
ENDBRANCH  22  25
ENDBRANCH   8  22
TORSDOF 5
ENDMDL
MODEL 2
REMARK VINA RESULT:      -2.1      1.704      5.402
REMARK  5 active torsions:
REMARK  status: ('A' for Active; 'I' for Inactive)
REMARK    1  A    between atoms: S_2  and  C_1 
REMARK    2  A    between atoms: C_9  and  S_2 
REMARK    3  A    between atoms: N_14  and  C_10 
REMARK    4  A    between atoms: C_22  and  N_14 
REMARK    5  A    between atoms: C_23  and  N_14 
ROOT
ATOM      1  C   UNL d   1      57.307  -0.056  31.973  0.00  0.00     0.151 A 
ATOM      2  C   UNL d   1      57.692   0.424  32.523  0.00  0.00     0.311 A 
ATOM      3  C   UNL d   1      56.532  -0.314  32.122  0.00  0.00     0.019 A 
ATOM      4  O   UNL d   1      57.302   0.645  33.221  0.00  0.00    -0.272 OA
ATOM      5  C   UNL d   1      56.534   0.388  33.366  0.00  0.00     0.105 A 
ATOM      6  C   UNL d   1      56.149  -0.092  32.816  0.00  0.00     0.024 A 
ATOM      7  C   UNL d   1      56.150   0.609  34.060  0.00  0.00     0.042 A 
ATOM      8  C   UNL d   1      55.382   0.352  34.204  0.00  0.00     0.066 A 
ATOM      9  O   UNL d   1      58.464   0.682  32.375  0.00  0.00    -0.258 OA
ATOM     10  C   UNL d   1      55.380  -0.350  32.960  0.00  0.00     0.004 A 
ATOM     11  C   UNL d   1      54.997  -0.128  33.654  0.00  0.00     0.018 A 
ENDROOT
BRANCH   1  12
ATOM     12  S   UNL d   1      57.690  -0.282  31.271  0.00  0.00     0.215 S 
ATOM     13  O   UNL d   1      58.097  -0.885  31.685  0.00  0.00    -0.217 OA
ATOM     14  O   UNL d   1      57.288   0.317  30.849  0.00  0.00    -0.217 OA
BRANCH  12  15
ATOM     15  C   UNL d   1      58.078  -0.512  30.561  0.00  0.00     0.088 A 
ATOM     16  C   UNL d   1      58.350   0.065  30.043  0.00  0.00     0.011 A 
ATOM     17  C   UNL d   1      58.731  -0.155  29.346  0.00  0.00     0.001 A 
ATOM     18  C   UNL d   1      58.838  -0.953  29.169  0.00  0.00     0.000 A 
ATOM     19  C   UNL d   1      58.563  -1.533  29.691  0.00  0.00     0.001 A 
ATOM     20  C   UNL d   1      59.223  -1.184  28.463  0.00  0.00     0.000 C 
ATOM     21  C   UNL d   1      58.182  -1.312  30.388  0.00  0.00     0.011 A 
ENDBRANCH  12  15
ENDBRANCH   1  12
BRANCH   8  22
ATOM     22  N   UNL d   1      54.988   0.573  34.905  0.00  0.00    -0.304 N 
BRANCH  22  23
ATOM     23  C   UNL d   1      54.168   0.682  34.900  0.00  0.00     0.080 C 
ATOM     24  C   UNL d   1      53.745   0.666  35.608  0.00  0.00     0.021 C 
ENDBRANCH  22  23
BRANCH  22  25
ATOM     25  C   UNL d   1      55.422   0.682  35.599  0.00  0.00     0.080 C 
ATOM     26  C   UNL d   1      55.039   0.681  36.329  0.00  0.00     0.021 C 
ENDBRANCH  22  25
ENDBRANCH   8  22
TORSDOF 5
ENDMDL
