MODEL 1
REMARK VINA RESULT:       1.4      0.000      0.000
REMARK  9 active torsions:
REMARK  status: ('A' for Active; 'I' for Inactive)
REMARK    1  A    between atoms: N_2  and  S_1 
REMARK    2  A    between atoms: C_9  and  S_1 
REMARK    3  A    between atoms: C_4  and  N_2 
REMARK    4  A    between atoms: O_22  and  C_6 
REMARK    5  A    between atoms: O_23  and  C_7 
REMARK       I    between atoms: C_12  and  N_13 
REMARK    6  A    between atoms: C_20  and  C_12 
REMARK    7  A    between atoms: N_13  and  C_21 
REMARK    8  A    between atoms: O_14  and  C_20 
REMARK    9  A    between atoms: C_15  and  O_14 
ROOT
ATOM      1  C   UNL d   1      58.756  -2.951  28.640  0.00  0.00     0.105 A 
ATOM      2  C   UNL d   1      59.512  -3.254  28.559  0.00  0.00     0.015 A 
ATOM      3  C   UNL d   1      58.113  -3.450  28.692  0.00  0.00     0.015 A 
ATOM      4  C   UNL d   1      58.976  -4.576  28.581  0.00  0.00     0.085 A 
ATOM      5  C   UNL d   1      59.647  -4.060  28.527  0.00  0.00     0.020 A 
ATOM      6  C   UNL d   1      58.236  -4.257  28.661  0.00  0.00     0.020 A 
ENDROOT
BRANCH   1   7
ATOM      7  S   UNL d   1      58.632  -2.126  28.671  0.00  0.00     0.287 S 
ATOM      8  O   UNL d   1      57.808  -2.244  28.573  0.00  0.00    -0.198 OA
ATOM      9  O   UNL d   1      59.452  -2.000  28.770  0.00  0.00    -0.198 OA
BRANCH   7  10
ATOM     10  N   UNL d   1      58.505  -1.298  28.702  0.00  0.00    -0.139 NA
BRANCH  10  11
ATOM     11  C   UNL d   1      58.626  -0.883  29.404  0.00  0.00     0.182 A 
ATOM     12  N   UNL d   1      57.986  -0.614  29.830  0.00  0.00    -0.185 NA
ATOM     13  C   UNL d   1      58.102  -0.186  30.553  0.00  0.00     0.274 A 
ATOM     14  N   UNL d   1      58.849  -0.043  30.822  0.00  0.00    -0.181 NA
ATOM     15  C   UNL d   1      59.503  -0.300  30.416  0.00  0.00     0.185 A 
ATOM     16  C   UNL d   1      59.396  -0.740  29.674  0.00  0.00     0.084 A 
BRANCH  13  17
ATOM     17  O   UNL d   1      57.442   0.087  30.985  0.00  0.00    -0.297 OA
ATOM     18  C   UNL d   1      57.120  -0.351  31.621  0.00  0.00     0.185 C 
ENDBRANCH  13  17
BRANCH  15  19
ATOM     19  O   UNL d   1      60.266  -0.140  30.714  0.00  0.00    -0.312 OA
ATOM     20  C   UNL d   1      60.652   0.556  30.445  0.00  0.00     0.183 C 
ENDBRANCH  15  19
ENDBRANCH  10  11
ENDBRANCH   7  10
ENDBRANCH   1   7
BRANCH   4  21
ATOM     21  N   UNL d   1      59.078  -5.400  28.552  0.00  0.00    -0.206 NA
ATOM     22  C   UNL d   1      58.422  -5.890  28.493  0.00  0.00     0.304 C 
ATOM     23  O   UNL d   1      57.665  -5.563  28.464  0.00  0.00    -0.263 OA
BRANCH  22  24
ATOM     24  C   UNL d   1      58.524  -6.717  28.464  0.00  0.00     0.185 C 
BRANCH  24  25
ATOM     25  O   UNL d   1      57.868  -7.208  28.457  0.00  0.00    -0.299 OA
BRANCH  25  26
ATOM     26  C   UNL d   1      57.955  -8.057  28.529  0.00  0.00     0.111 A 
ATOM     27  C   UNL d   1      57.302  -8.539  28.662  0.00  0.00     0.081 A 
ATOM     28 CL   UNL d   1      56.525  -8.200  28.731  0.00  0.00    -0.080 Cl
ATOM     29  C   UNL d   1      57.400  -9.352  28.728  0.00  0.00     0.013 A 
ATOM     30  C   UNL d   1      58.168  -9.684  28.660  0.00  0.00     0.001 A 
ATOM     31  C   UNL d   1      58.819  -9.197  28.527  0.00  0.00     0.002 A 
ATOM     32  C   UNL d   1      58.720  -8.384  28.460  0.00  0.00     0.026 A 
ENDBRANCH  25  26
ENDBRANCH  24  25
ENDBRANCH  22  24
ENDBRANCH   4  21
TORSDOF 9
ENDMDL
MODEL 2
REMARK VINA RESULT:       2.7      2.570      7.059
REMARK  9 active torsions:
REMARK  status: ('A' for Active; 'I' for Inactive)
REMARK    1  A    between atoms: N_2  and  S_1 
REMARK    2  A    between atoms: C_9  and  S_1 
REMARK    3  A    between atoms: C_4  and  N_2 
REMARK    4  A    between atoms: O_22  and  C_6 
REMARK    5  A    between atoms: O_23  and  C_7 
REMARK       I    between atoms: C_12  and  N_13 
REMARK    6  A    between atoms: C_20  and  C_12 
REMARK    7  A    between atoms: N_13  and  C_21 
REMARK    8  A    between atoms: O_14  and  C_20 
REMARK    9  A    between atoms: C_15  and  O_14 
ROOT
ATOM      1  C   UNL d   1      58.093  -6.719  28.479  0.00  0.00     0.105 A 
ATOM      2  C   UNL d   1      57.401  -6.283  28.512  0.00  0.00     0.015 A 
ATOM      3  C   UNL d   1      58.817  -6.345  28.456  0.00  0.00     0.015 A 
ATOM      4  C   UNL d   1      58.168  -5.079  28.500  0.00  0.00     0.085 A 
ATOM      5  C   UNL d   1      57.412  -5.465  28.524  0.00  0.00     0.020 A 
ATOM      6  C   UNL d   1      58.841  -5.529  28.467  0.00  0.00     0.020 A 
ENDROOT
BRANCH   1   7
ATOM      7  S   UNL d   1      58.066  -7.553  28.467  0.00  0.00     0.287 S 
ATOM      8  O   UNL d   1      58.904  -7.581  28.457  0.00  0.00    -0.198 OA
ATOM      9  O   UNL d   1      57.231  -7.534  28.477  0.00  0.00    -0.198 OA
BRANCH   7  10
ATOM     10  N   UNL d   1      58.042  -8.391  28.456  0.00  0.00    -0.139 NA
BRANCH  10  11
ATOM     11  C   UNL d   1      58.369  -8.827  29.074  0.00  0.00     0.182 A 
ATOM     12  N   UNL d   1      59.136  -9.094  29.020  0.00  0.00    -0.185 NA
ATOM     13  C   UNL d   1      59.479  -9.543  29.653  0.00  0.00     0.274 A 
ATOM     14  N   UNL d   1      59.045  -9.708  30.313  0.00  0.00    -0.181 NA
ATOM     15  C   UNL d   1      58.278  -9.454  30.391  0.00  0.00     0.185 A 
ATOM     16  C   UNL d   1      57.916  -8.993  29.748  0.00  0.00     0.084 A 
BRANCH  13  17
ATOM     17  O   UNL d   1      60.266  -9.813  29.592  0.00  0.00    -0.297 OA
ATOM     18  C   UNL d   1      60.811  -9.731  30.221  0.00  0.00     0.185 C 
ENDBRANCH  13  17
BRANCH  15  19
ATOM     19  O   UNL d   1      57.848  -9.637  31.081  0.00  0.00    -0.312 OA
ATOM     20  C   UNL d   1      58.031  -9.207  31.781  0.00  0.00     0.183 C 
ENDBRANCH  15  19
ENDBRANCH  10  11
ENDBRANCH   7  10
ENDBRANCH   1   7
BRANCH   4  21
ATOM     21  N   UNL d   1      58.215  -4.251  28.511  0.00  0.00    -0.206 NA
ATOM     22  C   UNL d   1      58.940  -3.885  28.639  0.00  0.00     0.304 C 
ATOM     23  O   UNL d   1      59.616  -4.343  28.756  0.00  0.00    -0.263 OA
BRANCH  22  24
ATOM     24  C   UNL d   1      58.987  -3.053  28.649  0.00  0.00     0.185 C 
BRANCH  24  25
ATOM     25  O   UNL d   1      59.719  -2.688  28.713  0.00  0.00    -0.299 OA
BRANCH  25  26
ATOM     26  C   UNL d   1      59.778  -1.840  28.816  0.00  0.00     0.111 A 
ATOM     27  C   UNL d   1      60.453  -1.500  29.140  0.00  0.00     0.081 A 
ATOM     28 CL   UNL d   1      61.107  -1.988  29.379  0.00  0.00    -0.080 Cl
ATOM     29  C   UNL d   1      60.496  -0.685  29.232  0.00  0.00     0.013 A 
ATOM     30  C   UNL d   1      59.850  -0.206  28.995  0.00  0.00     0.001 A 
ATOM     31  C   UNL d   1      59.176  -0.551  28.671  0.00  0.00     0.002 A 
ATOM     32  C   UNL d   1      59.132  -1.366  28.579  0.00  0.00     0.026 A 
ENDBRANCH  25  26
ENDBRANCH  24  25
ENDBRANCH  22  24
ENDBRANCH   4  21
TORSDOF 9
ENDMDL
MODEL 3
REMARK VINA RESULT:       3.9      2.736      4.704
REMARK  9 active torsions:
REMARK  status: ('A' for Active; 'I' for Inactive)
REMARK    1  A    between atoms: N_2  and  S_1 
REMARK    2  A    between atoms: C_9  and  S_1 
REMARK    3  A    between atoms: C_4  and  N_2 
REMARK    4  A    between atoms: O_22  and  C_6 
REMARK    5  A    between atoms: O_23  and  C_7 
REMARK       I    between atoms: C_12  and  N_13 
REMARK    6  A    between atoms: C_20  and  C_12 
REMARK    7  A    between atoms: N_13  and  C_21 
REMARK    8  A    between atoms: O_14  and  C_20 
REMARK    9  A    between atoms: C_15  and  O_14 
ROOT
ATOM      1  C   UNL d   1      57.105  -0.082  31.292  0.00  0.00     0.105 A 
ATOM      2  C   UNL d   1      57.782  -0.448  31.573  0.00  0.00     0.015 A 
ATOM      3  C   UNL d   1      56.946  -0.062  30.493  0.00  0.00     0.015 A 
ATOM      4  C   UNL d   1      58.147  -0.780  30.234  0.00  0.00     0.085 A 
ATOM      5  C   UNL d   1      58.316  -0.802  31.065  0.00  0.00     0.020 A 
ATOM      6  C   UNL d   1      57.472  -0.413  29.977  0.00  0.00     0.020 A 
ENDROOT
BRANCH   1   7
ATOM      7  S   UNL d   1      56.568   0.276  31.822  0.00  0.00     0.287 S 
ATOM      8  O   UNL d   1      55.933  -0.128  31.453  0.00  0.00    -0.198 OA
ATOM      9  O   UNL d   1      57.196   0.682  32.195  0.00  0.00    -0.198 OA
BRANCH   7  10
ATOM     10  N   UNL d   1      56.027   0.634  32.353  0.00  0.00    -0.139 NA
BRANCH  10  11
ATOM     11  C   UNL d   1      55.793   0.242  33.039  0.00  0.00     0.182 A 
ATOM     12  N   UNL d   1      55.395  -0.466  32.985  0.00  0.00    -0.185 NA
ATOM     13  C   UNL d   1      55.152  -0.875  33.687  0.00  0.00     0.274 A 
ATOM     14  N   UNL d   1      55.313  -0.563  34.413  0.00  0.00    -0.181 NA
ATOM     15  C   UNL d   1      55.708   0.142  34.494  0.00  0.00     0.185 A 
ATOM     16  C   UNL d   1      55.963   0.570  33.781  0.00  0.00     0.084 A 
BRANCH  13  17
ATOM     17  O   UNL d   1      54.745  -1.601  33.625  0.00  0.00    -0.297 OA
ATOM     18  C   UNL d   1      55.143  -2.335  33.666  0.00  0.00     0.185 C 
ENDBRANCH  13  17
BRANCH  15  19
ATOM     19  O   UNL d   1      55.864   0.445  35.255  0.00  0.00    -0.312 OA
ATOM     20  C   UNL d   1      56.663   0.611  35.453  0.00  0.00     0.183 C 
ENDBRANCH  15  19
ENDBRANCH  10  11
ENDBRANCH   7  10
ENDBRANCH   1   7
BRANCH   4  21
ATOM     21  N   UNL d   1      58.669  -1.130  29.691  0.00  0.00    -0.206 NA
ATOM     22  C   UNL d   1      58.475  -1.850  29.345  0.00  0.00     0.304 C 
ATOM     23  O   UNL d   1      57.763  -2.220  29.538  0.00  0.00    -0.263 OA
BRANCH  22  24
ATOM     24  C   UNL d   1      58.998  -2.201  28.801  0.00  0.00     0.185 C 
BRANCH  24  25
ATOM     25  O   UNL d   1      58.815  -2.931  28.474  0.00  0.00    -0.299 OA
BRANCH  25  26
ATOM     26  C   UNL d   1      59.382  -3.572  28.487  0.00  0.00     0.111 A 
ATOM     27  C   UNL d   1      59.135  -4.355  28.521  0.00  0.00     0.081 A 
ATOM     28 CL   UNL d   1      58.305  -4.542  28.544  0.00  0.00    -0.080 Cl
ATOM     29  C   UNL d   1      59.690  -4.960  28.534  0.00  0.00     0.013 A 
ATOM     30  C   UNL d   1      60.507  -4.774  28.512  0.00  0.00     0.001 A 
ATOM     31  C   UNL d   1      60.751  -3.987  28.478  0.00  0.00     0.002 A 
ATOM     32  C   UNL d   1      60.196  -3.382  28.465  0.00  0.00     0.026 A 
ENDBRANCH  25  26
ENDBRANCH  24  25
ENDBRANCH  22  24
ENDBRANCH   4  21
TORSDOF 9
ENDMDL
