MODEL 1
REMARK VINA RESULT:      80.7      0.000      0.000
REMARK  5 active torsions:
REMARK  status: ('A' for Active; 'I' for Inactive)
REMARK    1  A    between atoms: C_2  and  C_1 
REMARK       I    between atoms: N_3  and  C_1 
REMARK    2  A    between atoms: C_6  and  N_4 
REMARK    3  A    between atoms: O_19  and  C_5 
REMARK    4  A    between atoms: O_22  and  C_7 
REMARK    5  A    between atoms: O_23  and  C_8 
ROOT
ATOM      1  C   UNL d   1     -49.006  26.313  33.688  0.00  0.00     0.265 C 
ATOM      2  N   UNL d   1     -48.743  26.976  34.096  0.00  0.00    -0.269 N 
ATOM      3  N   UNL d   1     -48.215  28.310  34.918  0.00  0.00    -0.301 N 
ATOM      4  C   UNL d   1     -47.936  27.118  34.176  0.00  0.00     0.102 A 
ATOM      5  C   UNL d   1     -49.286  27.506  34.430  0.00  0.00     0.102 A 
ATOM      6  C   UNL d   1     -49.022  28.168  34.838  0.00  0.00     0.100 A 
ATOM      7  C   UNL d   1     -47.669  27.788  34.589  0.00  0.00     0.100 A 
ATOM      8  O   UNL d   1     -48.462  25.788  33.357  0.00  0.00    -0.267 OA
ENDROOT
BRANCH   1   9
ATOM      9  C   UNL d   1     -49.813  26.172  33.608  0.00  0.00     0.061 A 
ATOM     10  C   UNL d   1     -50.092  25.395  33.498  0.00  0.00     0.031 A 
ATOM     11  C   UNL d   1     -50.903  25.256  33.418  0.00  0.00     0.118 A 
ATOM     12  C   UNL d   1     -51.435  25.885  33.447  0.00  0.00     0.138 A 
ATOM     13  C   UNL d   1     -51.158  26.654  33.556  0.00  0.00     0.118 A 
ATOM     14  C   UNL d   1     -50.348  26.803  33.637  0.00  0.00     0.031 A 
BRANCH  11  15
ATOM     15  O   UNL d   1     -51.176  24.485  33.309  0.00  0.00    -0.326 OA
ATOM     16  C   UNL d   1     -50.696  23.843  33.498  0.00  0.00     0.181 C 
ENDBRANCH  11  15
BRANCH  12  17
ATOM     17  O   UNL d   1     -52.241  25.744  33.367  0.00  0.00    -0.324 OA
ATOM     18  C   UNL d   1     -52.785  26.326  33.581  0.00  0.00     0.182 C 
ENDBRANCH  12  17
BRANCH  13  19
ATOM     19  O   UNL d   1     -51.693  27.293  33.586  0.00  0.00    -0.326 OA
ATOM     20  C   UNL d   1     -52.461  27.195  33.306  0.00  0.00     0.181 C 
ENDBRANCH  13  19
ENDBRANCH   1   9
BRANCH   3  21
ATOM     21  C   UNL d   1     -47.952  28.978  35.329  0.00  0.00     0.064 A 
ATOM     22  C   UNL d   1     -47.761  29.660  34.918  0.00  0.00     0.016 A 
ATOM     23  C   UNL d   1     -47.499  30.324  35.322  0.00  0.00     0.001 A 
ATOM     24  C   UNL d   1     -47.832  29.676  34.097  0.00  0.00     0.002 C 
ATOM     25  C   UNL d   1     -47.428  30.305  36.151  0.00  0.00     0.000 A 
ATOM     26  C   UNL d   1     -47.622  29.613  36.562  0.00  0.00     0.002 A 
ATOM     27  C   UNL d   1     -47.166  30.968  36.562  0.00  0.00     0.000 C 
ATOM     28  C   UNL d   1     -47.884  28.949  36.151  0.00  0.00     0.018 A 
ENDBRANCH   3  21
TORSDOF 5
ENDMDL
MODEL 2
REMARK VINA RESULT:      81.3      2.157      5.284
REMARK  5 active torsions:
REMARK  status: ('A' for Active; 'I' for Inactive)
REMARK    1  A    between atoms: C_2  and  C_1 
REMARK       I    between atoms: N_3  and  C_1 
REMARK    2  A    between atoms: C_6  and  N_4 
REMARK    3  A    between atoms: O_19  and  C_5 
REMARK    4  A    between atoms: O_22  and  C_7 
REMARK    5  A    between atoms: O_23  and  C_8 
ROOT
ATOM      1  C   UNL d   1     -47.523  28.569  34.775  0.00  0.00     0.265 C 
ATOM      2  N   UNL d   1     -48.203  28.157  34.566  0.00  0.00    -0.269 N 
ATOM      3  N   UNL d   1     -49.572  27.331  34.145  0.00  0.00    -0.301 N 
ATOM      4  C   UNL d   1     -48.153  27.369  34.333  0.00  0.00     0.102 A 
ATOM      5  C   UNL d   1     -48.943  28.531  34.587  0.00  0.00     0.102 A 
ATOM      6  C   UNL d   1     -49.622  28.119  34.377  0.00  0.00     0.100 A 
ATOM      7  C   UNL d   1     -48.840  26.953  34.121  0.00  0.00     0.100 A 
ATOM      8  O   UNL d   1     -46.789  28.194  34.752  0.00  0.00    -0.267 OA
ENDROOT
BRANCH   1   9
ATOM      9  C   UNL d   1     -47.574  29.357  35.008  0.00  0.00     0.061 A 
ATOM     10  C   UNL d   1     -47.291  29.591  35.756  0.00  0.00     0.031 A 
ATOM     11  C   UNL d   1     -47.343  30.383  35.987  0.00  0.00     0.118 A 
ATOM     12  C   UNL d   1     -47.675  30.940  35.479  0.00  0.00     0.138 A 
ATOM     13  C   UNL d   1     -47.955  30.709  34.738  0.00  0.00     0.118 A 
ATOM     14  C   UNL d   1     -47.907  29.917  34.499  0.00  0.00     0.031 A 
BRANCH  11  15
ATOM     15  O   UNL d   1     -47.062  30.611  36.728  0.00  0.00    -0.326 OA
ATOM     16  C   UNL d   1     -46.587  30.101  37.168  0.00  0.00     0.181 C 
ENDBRANCH  11  15
BRANCH  12  17
ATOM     17  O   UNL d   1     -47.726  31.728  35.711  0.00  0.00    -0.324 OA
ATOM     18  C   UNL d   1     -47.226  32.291  35.373  0.00  0.00     0.182 C 
ENDBRANCH  12  17
BRANCH  13  19
ATOM     19  O   UNL d   1     -48.291  31.270  34.221  0.00  0.00    -0.326 OA
ATOM     20  C   UNL d   1     -48.089  31.260  33.422  0.00  0.00     0.181 C 
ENDBRANCH  13  19
ENDBRANCH   1   9
BRANCH   3  21
ATOM     21  C   UNL d   1     -50.257  26.917  33.934  0.00  0.00     0.064 A 
ATOM     22  C   UNL d   1     -50.202  26.140  33.680  0.00  0.00     0.016 A 
ATOM     23  C   UNL d   1     -50.878  25.728  33.470  0.00  0.00     0.001 A 
ATOM     24  C   UNL d   1     -49.464  25.776  33.636  0.00  0.00     0.002 C 
ATOM     25  C   UNL d   1     -51.622  26.098  33.516  0.00  0.00     0.000 A 
ATOM     26  C   UNL d   1     -51.673  26.882  33.773  0.00  0.00     0.002 A 
ATOM     27  C   UNL d   1     -52.305  25.689  33.306  0.00  0.00     0.000 C 
ATOM     28  C   UNL d   1     -50.990  27.293  33.982  0.00  0.00     0.018 A 
ENDBRANCH   3  21
TORSDOF 5
ENDMDL
MODEL 3
REMARK VINA RESULT:      82.1      1.340      2.033
REMARK  5 active torsions:
REMARK  status: ('A' for Active; 'I' for Inactive)
REMARK    1  A    between atoms: C_2  and  C_1 
REMARK       I    between atoms: N_3  and  C_1 
REMARK    2  A    between atoms: C_6  and  N_4 
REMARK    3  A    between atoms: O_19  and  C_5 
REMARK    4  A    between atoms: O_22  and  C_7 
REMARK    5  A    between atoms: O_23  and  C_8 
ROOT
ATOM      1  C   UNL d   1     -48.817  27.674  35.180  0.00  0.00     0.265 C 
ATOM      2  N   UNL d   1     -48.627  28.459  35.024  0.00  0.00    -0.269 N 
ATOM      3  N   UNL d   1     -48.245  30.035  34.708  0.00  0.00    -0.301 N 
ATOM      4  C   UNL d   1     -48.073  28.849  35.491  0.00  0.00     0.102 A 
ATOM      5  C   UNL d   1     -48.989  28.861  34.397  0.00  0.00     0.102 A 
ATOM      6  C   UNL d   1     -48.798  29.645  34.241  0.00  0.00     0.100 A 
ATOM      7  C   UNL d   1     -47.880  29.642  35.334  0.00  0.00     0.100 A 
ATOM      8  O   UNL d   1     -48.454  27.277  35.806  0.00  0.00    -0.267 OA
ENDROOT
BRANCH   1   9
ATOM      9  C   UNL d   1     -49.371  27.284  34.713  0.00  0.00     0.061 A 
ATOM     10  C   UNL d   1     -49.146  26.616  34.269  0.00  0.00     0.031 A 
ATOM     11  C   UNL d   1     -49.705  26.225  33.801  0.00  0.00     0.118 A 
ATOM     12  C   UNL d   1     -50.482  26.497  33.772  0.00  0.00     0.138 A 
ATOM     13  C   UNL d   1     -50.705  27.158  34.212  0.00  0.00     0.118 A 
ATOM     14  C   UNL d   1     -50.152  27.555  34.684  0.00  0.00     0.031 A 
BRANCH  11  15
ATOM     15  O   UNL d   1     -49.479  25.564  33.362  0.00  0.00    -0.326 OA
ATOM     16  C   UNL d   1     -48.709  25.275  33.412  0.00  0.00     0.181 C 
ENDBRANCH  11  15
BRANCH  12  17
ATOM     17  O   UNL d   1     -51.036  26.107  33.306  0.00  0.00    -0.324 OA
ATOM     18  C   UNL d   1     -51.303  25.356  33.521  0.00  0.00     0.182 C 
ENDBRANCH  12  17
BRANCH  13  19
ATOM     19  O   UNL d   1     -51.491  27.436  34.186  0.00  0.00    -0.326 OA
ATOM     20  C   UNL d   1     -51.937  27.330  33.502  0.00  0.00     0.181 C 
ENDBRANCH  13  19
ENDBRANCH   1   9
BRANCH   3  21
ATOM     21  C   UNL d   1     -48.054  30.825  34.550  0.00  0.00     0.064 A 
ATOM     22  C   UNL d   1     -47.396  31.164  34.903  0.00  0.00     0.016 A 
ATOM     23  C   UNL d   1     -47.204  31.945  34.749  0.00  0.00     0.001 A 
ATOM     24  C   UNL d   1     -46.930  30.715  35.413  0.00  0.00     0.002 C 
ATOM     25  C   UNL d   1     -47.677  32.396  34.232  0.00  0.00     0.000 A 
ATOM     26  C   UNL d   1     -48.339  32.049  33.879  0.00  0.00     0.002 A 
ATOM     27  C   UNL d   1     -47.488  33.181  34.074  0.00  0.00     0.000 C 
ATOM     28  C   UNL d   1     -48.528  31.264  34.037  0.00  0.00     0.018 A 
ENDBRANCH   3  21
TORSDOF 5
ENDMDL
MODEL 4
REMARK VINA RESULT:      82.5      2.618      5.545
REMARK  5 active torsions:
REMARK  status: ('A' for Active; 'I' for Inactive)
REMARK    1  A    between atoms: C_2  and  C_1 
REMARK       I    between atoms: N_3  and  C_1 
REMARK    2  A    between atoms: C_6  and  N_4 
REMARK    3  A    between atoms: O_19  and  C_5 
REMARK    4  A    between atoms: O_22  and  C_7 
REMARK    5  A    between atoms: O_23  and  C_8 
ROOT
ATOM      1  C   UNL d   1     -47.851  29.823  35.214  0.00  0.00     0.265 C 
ATOM      2  N   UNL d   1     -48.327  29.210  34.943  0.00  0.00    -0.269 N 
ATOM      3  N   UNL d   1     -49.285  27.979  34.396  0.00  0.00    -0.301 N 
ATOM      4  C   UNL d   1     -48.282  28.467  35.293  0.00  0.00     0.102 A 
ATOM      5  C   UNL d   1     -48.854  29.335  34.316  0.00  0.00     0.102 A 
ATOM      6  C   UNL d   1     -49.330  28.723  34.045  0.00  0.00     0.100 A 
ATOM      7  C   UNL d   1     -48.763  27.847  35.019  0.00  0.00     0.100 A 
ATOM      8  O   UNL d   1     -47.327  29.694  35.839  0.00  0.00    -0.267 OA
ENDROOT
BRANCH   1   9
ATOM      9  C   UNL d   1     -47.896  30.566  34.864  0.00  0.00     0.061 A 
ATOM     10  C   UNL d   1     -48.570  30.781  34.424  0.00  0.00     0.031 A 
ATOM     11  C   UNL d   1     -48.612  31.528  34.073  0.00  0.00     0.118 A 
ATOM     12  C   UNL d   1     -47.989  32.060  34.158  0.00  0.00     0.138 A 
ATOM     13  C   UNL d   1     -47.321  31.848  34.594  0.00  0.00     0.118 A 
ATOM     14  C   UNL d   1     -47.270  31.101  34.948  0.00  0.00     0.031 A 
BRANCH  11  15
ATOM     15  O   UNL d   1     -49.281  31.737  33.639  0.00  0.00    -0.326 OA
ATOM     16  C   UNL d   1     -49.816  32.289  33.936  0.00  0.00     0.181 C 
ENDBRANCH  11  15
BRANCH  12  17
ATOM     17  O   UNL d   1     -48.033  32.803  33.808  0.00  0.00    -0.324 OA
ATOM     18  C   UNL d   1     -47.344  33.232  33.659  0.00  0.00     0.182 C 
ENDBRANCH  12  17
BRANCH  13  19
ATOM     19  O   UNL d   1     -46.688  32.383  34.682  0.00  0.00    -0.326 OA
ATOM     20  C   UNL d   1     -46.381  32.530  35.432  0.00  0.00     0.181 C 
ENDBRANCH  13  19
ENDBRANCH   1   9
BRANCH   3  21
ATOM     21  C   UNL d   1     -49.765  27.364  34.121  0.00  0.00     0.064 A 
ATOM     22  C   UNL d   1     -50.366  27.523  33.588  0.00  0.00     0.016 A 
ATOM     23  C   UNL d   1     -50.844  26.916  33.314  0.00  0.00     0.001 A 
ATOM     24  C   UNL d   1     -50.488  28.295  33.329  0.00  0.00     0.002 C 
ATOM     25  C   UNL d   1     -50.718  26.136  33.578  0.00  0.00     0.000 A 
ATOM     26  C   UNL d   1     -50.110  25.981  34.116  0.00  0.00     0.002 A 
ATOM     27  C   UNL d   1     -51.194  25.523  33.306  0.00  0.00     0.000 C 
ATOM     28  C   UNL d   1     -49.633  26.594  34.388  0.00  0.00     0.018 A 
ENDBRANCH   3  21
TORSDOF 5
ENDMDL
MODEL 5
REMARK VINA RESULT:      83.4      1.848      5.206
REMARK  5 active torsions:
REMARK  status: ('A' for Active; 'I' for Inactive)
REMARK    1  A    between atoms: C_2  and  C_1 
REMARK       I    between atoms: N_3  and  C_1 
REMARK    2  A    between atoms: C_6  and  N_4 
REMARK    3  A    between atoms: O_19  and  C_5 
REMARK    4  A    between atoms: O_22  and  C_7 
REMARK    5  A    between atoms: O_23  and  C_8 
ROOT
ATOM      1  C   UNL d   1     -48.070  27.886  34.301  0.00  0.00     0.265 C 
ATOM      2  N   UNL d   1     -48.780  27.497  34.159  0.00  0.00    -0.269 N 
ATOM      3  N   UNL d   1     -50.208  26.715  33.874  0.00  0.00    -0.301 N 
ATOM      4  C   UNL d   1     -48.777  26.746  33.822  0.00  0.00     0.102 A 
ATOM      5  C   UNL d   1     -49.501  27.856  34.354  0.00  0.00     0.102 A 
ATOM      6  C   UNL d   1     -50.210  27.466  34.211  0.00  0.00     0.100 A 
ATOM      7  C   UNL d   1     -49.495  26.352  33.678  0.00  0.00     0.100 A 
ATOM      8  O   UNL d   1     -47.354  27.526  34.106  0.00  0.00    -0.267 OA
ENDROOT
BRANCH   1   9
ATOM      9  C   UNL d   1     -48.072  28.637  34.639  0.00  0.00     0.061 A 
ATOM     10  C   UNL d   1     -48.470  29.264  34.261  0.00  0.00     0.031 A 
ATOM     11  C   UNL d   1     -48.470  30.017  34.602  0.00  0.00     0.118 A 
ATOM     12  C   UNL d   1     -48.079  30.147  35.315  0.00  0.00     0.138 A 
ATOM     13  C   UNL d   1     -47.685  29.527  35.689  0.00  0.00     0.118 A 
ATOM     14  C   UNL d   1     -47.679  28.769  35.355  0.00  0.00     0.031 A 
BRANCH  11  15
ATOM     15  O   UNL d   1     -48.865  30.635  34.225  0.00  0.00    -0.326 OA
ATOM     16  C   UNL d   1     -48.544  30.985  33.552  0.00  0.00     0.181 C 
ENDBRANCH  11  15
BRANCH  12  17
ATOM     17  O   UNL d   1     -48.081  30.897  35.653  0.00  0.00    -0.324 OA
ATOM     18  C   UNL d   1     -47.623  31.500  35.324  0.00  0.00     0.182 C 
ENDBRANCH  12  17
BRANCH  13  19
ATOM     19  O   UNL d   1     -47.287  29.655  36.411  0.00  0.00    -0.326 OA
ATOM     20  C   UNL d   1     -47.425  29.150  37.047  0.00  0.00     0.181 C 
ENDBRANCH  13  19
ENDBRANCH   1   9
BRANCH   3  21
ATOM     21  C   UNL d   1     -50.923  26.324  33.731  0.00  0.00     0.064 A 
ATOM     22  C   UNL d   1     -50.926  25.515  33.599  0.00  0.00     0.016 A 
ATOM     23  C   UNL d   1     -51.632  25.124  33.458  0.00  0.00     0.001 A 
ATOM     24  C   UNL d   1     -50.216  25.097  33.610  0.00  0.00     0.002 C 
ATOM     25  C   UNL d   1     -52.348  25.549  33.448  0.00  0.00     0.000 A 
ATOM     26  C   UNL d   1     -52.340  26.365  33.581  0.00  0.00     0.002 A 
ATOM     27  C   UNL d   1     -53.060  25.162  33.306  0.00  0.00     0.000 C 
ATOM     28  C   UNL d   1     -51.628  26.753  33.723  0.00  0.00     0.018 A 
ENDBRANCH   3  21
TORSDOF 5
ENDMDL
