MODEL 1
REMARK VINA RESULT:      38.0      0.000      0.000
REMARK  5 active torsions:
REMARK  status: ('A' for Active; 'I' for Inactive)
REMARK    1  A    between atoms: N_2  and  C_3 
REMARK       I    between atoms: C_4  and  N_5 
REMARK    2  A    between atoms: C_8  and  C_4 
REMARK    3  A    between atoms: N_5  and  C_9 
REMARK    4  A    between atoms: C_14  and  N_5 
REMARK    5  A    between atoms: C_20  and  C_14 
ROOT
ATOM      1  C   UNL d   1      13.872  13.180  -2.961  0.00  0.00     0.265 C 
ATOM      2  N   UNL d   1      13.809  12.390  -3.195  0.00  0.00    -0.273 N 
ATOM      3  O   UNL d   1      14.139  13.362  -2.198  0.00  0.00    -0.267 OA
ENDROOT
BRANCH   2   4
ATOM      4  C   UNL d   1      13.544  12.195  -3.952  0.00  0.00     0.079 A 
ATOM      5  C   UNL d   1      13.996  12.231  -4.639  0.00  0.00     0.116 A 
ATOM      6  S   UNL d   1      13.518  11.988  -5.270  0.00  0.00     0.213 S 
ATOM      7  O   UNL d   1      13.207  11.782  -6.004  0.00  0.00    -0.217 OA
ATOM      8  O   UNL d   1      14.238  12.157  -5.628  0.00  0.00    -0.217 OA
ATOM      9  C   UNL d   1      12.769  11.804  -4.963  0.00  0.00     0.100 A 
ATOM     10  C   UNL d   1      12.784  11.931  -4.149  0.00  0.00     0.030 A 
ENDBRANCH   2   4
BRANCH   2  11
ATOM     11  C   UNL d   1      14.014  11.781  -2.661  0.00  0.00     0.083 C 
BRANCH  11  12
ATOM     12  C   UNL d   1      14.133  11.957  -1.866  0.00  0.00     0.018 A 
ATOM     13  C   UNL d   1      14.843  12.315  -1.626  0.00  0.00     0.013 A 
ATOM     14  C   UNL d   1      14.964  12.493  -0.827  0.00  0.00     0.058 A 
ATOM     15 CL   UNL d   1      15.662  12.846  -0.588  0.00  0.00    -0.082 Cl
ATOM     16  C   UNL d   1      14.379  12.314  -0.273  0.00  0.00     0.011 A 
ATOM     17  C   UNL d   1      13.673  11.957  -0.516  0.00  0.00     0.001 A 
ATOM     18  C   UNL d   1      13.550  11.779  -1.307  0.00  0.00     0.002 A 
ENDBRANCH  11  12
ENDBRANCH   2  11
BRANCH   1  19
ATOM     19  C   UNL d   1      13.671  13.775  -3.485  0.00  0.00     0.058 A 
ATOM     20  C   UNL d   1      14.161  14.435  -3.563  0.00  0.00     0.029 A 
ATOM     21  C   UNL d   1      13.961  15.029  -4.086  0.00  0.00     0.137 A 
ATOM     22  C   UNL d   1      13.272  14.968  -4.532  0.00  0.00     0.080 A 
ATOM     23  C   UNL d   1      12.782  14.309  -4.454  0.00  0.00     0.013 A 
ATOM     24 CL   UNL d   1      13.074  15.573  -5.060  0.00  0.00    -0.081 Cl
ATOM     25  C   UNL d   1      12.983  13.713  -3.930  0.00  0.00     0.006 A 
BRANCH  21  26
ATOM     26  N   UNL d   1      14.451  15.689  -4.165  0.00  0.00    -0.113 N 
ATOM     27  O   UNL d   1      14.554  16.195  -3.531  0.00  0.00    -0.532 OA
ATOM     28  O   UNL d   1      14.830  15.830  -4.880  0.00  0.00    -0.532 OA
ENDBRANCH  21  26
ENDBRANCH   1  19
TORSDOF 5
ENDMDL
