MODEL 1
REMARK VINA RESULT:      -1.8      0.000      0.000
REMARK  5 active torsions:
REMARK  status: ('A' for Active; 'I' for Inactive)
REMARK       I    between atoms: N_2  and  C_1 
REMARK    1  A    between atoms: C_4  and  C_1 
REMARK    2  A    between atoms: C_3  and  N_2 
REMARK    3  A    between atoms: N_5  and  C_3 
REMARK    4  A    between atoms: C_7  and  N_5 
REMARK    5  A    between atoms: O_14  and  C_11 
ROOT
ATOM      1  C   UNL d   1      32.305  18.077 -24.308  0.00  0.00     0.283 C 
ATOM      2  N   UNL d   1      32.236  18.772 -23.873  0.00  0.00    -0.179 NA
ATOM      3  O   UNL d   1      33.024  17.897 -24.673  0.00  0.00    -0.265 OA
ENDROOT
BRANCH   2   4
ATOM      4  C   UNL d   1      32.868  19.288 -23.796  0.00  0.00     0.224 C 
ATOM      5  S   UNL d   1      33.157  19.687 -24.469  0.00  0.00    -0.037 SA
BRANCH   4   6
ATOM      6  N   UNL d   1      33.228  19.422 -23.066  0.00  0.00    -0.215 NA
BRANCH   6   7
ATOM      7  C   UNL d   1      33.180  20.158 -22.699  0.00  0.00     0.112 A 
ATOM      8  C   UNL d   1      33.071  20.208 -21.874  0.00  0.00     0.156 A 
ATOM      9  N   UNL d   1      33.023  20.944 -21.508  0.00  0.00    -0.231 NA
ATOM     10 CL   UNL d   1      33.011  19.511 -21.424  0.00  0.00    -0.060 Cl
ATOM     11  C   UNL d   1      33.082  21.631 -21.958  0.00  0.00     0.100 A 
ATOM     12  C   UNL d   1      33.190  21.582 -22.775  0.00  0.00     0.022 A 
ATOM     13  C   UNL d   1      33.240  20.846 -23.150  0.00  0.00     0.023 A 
ENDBRANCH   6   7
ENDBRANCH   4   6
ENDBRANCH   2   4
BRANCH   1  14
ATOM     14  C   UNL d   1      31.665  17.563 -24.381  0.00  0.00     0.080 A 
ATOM     15  C   UNL d   1      31.687  16.826 -24.013  0.00  0.00     0.099 A 
ATOM     16  C   UNL d   1      31.046  16.313 -24.085  0.00  0.00     0.024 A 
ATOM     17  C   UNL d   1      30.383  16.540 -24.530  0.00  0.00     0.002 A 
ATOM     18  C   UNL d   1      30.369  17.283 -24.897  0.00  0.00     0.000 A 
ATOM     19  C   UNL d   1      31.009  17.796 -24.824  0.00  0.00     0.007 A 
BRANCH  15  20
ATOM     20  O   UNL d   1      32.345  16.604 -23.574  0.00  0.00    -0.328 OA
ATOM     21  C   UNL d   1      32.382  15.854 -23.235  0.00  0.00     0.181 C 
ENDBRANCH  15  20
ENDBRANCH   1  14
TORSDOF 5
ENDMDL
MODEL 2
REMARK VINA RESULT:      -1.3      1.625      4.273
REMARK  5 active torsions:
REMARK  status: ('A' for Active; 'I' for Inactive)
REMARK       I    between atoms: N_2  and  C_1 
REMARK    1  A    between atoms: C_4  and  C_1 
REMARK    2  A    between atoms: C_3  and  N_2 
REMARK    3  A    between atoms: N_5  and  C_3 
REMARK    4  A    between atoms: C_7  and  N_5 
REMARK    5  A    between atoms: O_14  and  C_11 
ROOT
ATOM      1  C   UNL d   1      32.849  19.028 -23.751  0.00  0.00     0.283 C 
ATOM      2  N   UNL d   1      32.354  18.380 -23.639  0.00  0.00    -0.179 NA
ATOM      3  O   UNL d   1      33.234  19.124 -24.476  0.00  0.00    -0.265 OA
ENDROOT
BRANCH   2   4
ATOM      4  C   UNL d   1      32.236  17.830 -24.235  0.00  0.00     0.224 C 
ATOM      5  S   UNL d   1      32.078  18.091 -25.011  0.00  0.00    -0.037 SA
BRANCH   4   6
ATOM      6  N   UNL d   1      32.271  17.019 -24.086  0.00  0.00    -0.215 NA
BRANCH   6   7
ATOM      7  C   UNL d   1      31.598  16.601 -23.858  0.00  0.00     0.112 A 
ATOM      8  C   UNL d   1      31.674  15.885 -23.437  0.00  0.00     0.156 A 
ATOM      9  N   UNL d   1      31.001  15.468 -23.210  0.00  0.00    -0.231 NA
ATOM     10 CL   UNL d   1      32.430  15.595 -23.249  0.00  0.00    -0.060 Cl
ATOM     11  C   UNL d   1      30.254  15.758 -23.398  0.00  0.00     0.100 A 
ATOM     12  C   UNL d   1      30.179  16.467 -23.815  0.00  0.00     0.022 A 
ATOM     13  C   UNL d   1      30.851  16.892 -24.047  0.00  0.00     0.023 A 
ENDBRANCH   6   7
ENDBRANCH   4   6
ENDBRANCH   2   4
BRANCH   1  14
ATOM     14  C   UNL d   1      32.962  19.577 -23.147  0.00  0.00     0.080 A 
ATOM     15  C   UNL d   1      33.117  20.364 -23.333  0.00  0.00     0.099 A 
ATOM     16  C   UNL d   1      33.230  20.914 -22.730  0.00  0.00     0.024 A 
ATOM     17  C   UNL d   1      33.188  20.670 -21.937  0.00  0.00     0.002 A 
ATOM     18  C   UNL d   1      33.032  19.877 -21.758  0.00  0.00     0.000 A 
ATOM     19  C   UNL d   1      32.919  19.327 -22.362  0.00  0.00     0.007 A 
BRANCH  15  20
ATOM     20  O   UNL d   1      33.158  20.602 -24.119  0.00  0.00    -0.328 OA
ATOM     21  C   UNL d   1      33.241  21.400 -24.306  0.00  0.00     0.181 C 
ENDBRANCH  15  20
ENDBRANCH   1  14
TORSDOF 5
ENDMDL
MODEL 3
REMARK VINA RESULT:      -0.5      2.639      4.551
REMARK  5 active torsions:
REMARK  status: ('A' for Active; 'I' for Inactive)
REMARK       I    between atoms: N_2  and  C_1 
REMARK    1  A    between atoms: C_4  and  C_1 
REMARK    2  A    between atoms: C_3  and  N_2 
REMARK    3  A    between atoms: N_5  and  C_3 
REMARK    4  A    between atoms: C_7  and  N_5 
REMARK    5  A    between atoms: O_14  and  C_11 
ROOT
ATOM      1  C   UNL d   1      31.231  17.818 -24.293  0.00  0.00     0.283 C 
ATOM      2  N   UNL d   1      30.471  17.825 -23.978  0.00  0.00    -0.179 NA
ATOM      3  O   UNL d   1      31.335  17.660 -25.097  0.00  0.00    -0.265 OA
ENDROOT
BRANCH   2   4
ATOM      4  C   UNL d   1      29.816  17.678 -24.448  0.00  0.00     0.224 C 
ATOM      5  S   UNL d   1      29.394  18.318 -24.777  0.00  0.00    -0.037 SA
BRANCH   4   6
ATOM      6  N   UNL d   1      29.563  16.909 -24.606  0.00  0.00    -0.215 NA
BRANCH   6   7
ATOM      7  C   UNL d   1      28.940  16.573 -24.184  0.00  0.00     0.112 A 
ATOM      8  C   UNL d   1      28.620  15.841 -24.423  0.00  0.00     0.156 A 
ATOM      9  N   UNL d   1      27.997  15.506 -24.000  0.00  0.00    -0.231 NA
ATOM     10 CL   UNL d   1      28.931  15.453 -25.088  0.00  0.00    -0.060 Cl
ATOM     11  C   UNL d   1      27.692  15.894 -23.341  0.00  0.00     0.100 A 
ATOM     12  C   UNL d   1      28.009  16.619 -23.104  0.00  0.00     0.022 A 
ATOM     13  C   UNL d   1      28.635  16.962 -23.524  0.00  0.00     0.023 A 
ENDBRANCH   6   7
ENDBRANCH   4   6
ENDBRANCH   2   4
BRANCH   1  14
ATOM     14  C   UNL d   1      31.884  17.967 -23.813  0.00  0.00     0.080 A 
ATOM     15  C   UNL d   1      32.512  17.434 -23.799  0.00  0.00     0.099 A 
ATOM     16  C   UNL d   1      33.165  17.583 -23.319  0.00  0.00     0.024 A 
ATOM     17  C   UNL d   1      33.187  18.269 -22.853  0.00  0.00     0.002 A 
ATOM     18  C   UNL d   1      32.552  18.800 -22.873  0.00  0.00     0.000 A 
ATOM     19  C   UNL d   1      31.899  18.652 -23.353  0.00  0.00     0.007 A 
BRANCH  15  20
ATOM     20  O   UNL d   1      32.487  16.755 -24.262  0.00  0.00    -0.328 OA
ATOM     21  C   UNL d   1      32.778  16.043 -23.967  0.00  0.00     0.181 C 
ENDBRANCH  15  20
ENDBRANCH   1  14
TORSDOF 5
ENDMDL
MODEL 4
REMARK VINA RESULT:      -0.3      2.408      5.201
REMARK  5 active torsions:
REMARK  status: ('A' for Active; 'I' for Inactive)
REMARK       I    between atoms: N_2  and  C_1 
REMARK    1  A    between atoms: C_4  and  C_1 
REMARK    2  A    between atoms: C_3  and  N_2 
REMARK    3  A    between atoms: N_5  and  C_3 
REMARK    4  A    between atoms: C_7  and  N_5 
REMARK    5  A    between atoms: O_14  and  C_11 
ROOT
ATOM      1  C   UNL d   1      32.642  21.390 -21.157  0.00  0.00     0.283 C 
ATOM      2  N   UNL d   1      33.236  21.099 -21.647  0.00  0.00    -0.179 NA
ATOM      3  O   UNL d   1      31.926  20.981 -21.100  0.00  0.00    -0.265 OA
ENDROOT
BRANCH   2   4
ATOM      4  C   UNL d   1      33.129  20.410 -22.078  0.00  0.00     0.224 C 
ATOM      5  S   UNL d   1      32.902  19.710 -21.685  0.00  0.00    -0.037 SA
BRANCH   4   6
ATOM      6  N   UNL d   1      33.240  20.392 -22.896  0.00  0.00    -0.215 NA
BRANCH   6   7
ATOM      7  C   UNL d   1      33.202  19.682 -23.313  0.00  0.00     0.112 A 
ATOM      8  C   UNL d   1      33.184  19.688 -24.146  0.00  0.00     0.156 A 
ATOM      9  N   UNL d   1      33.146  18.978 -24.562  0.00  0.00    -0.231 NA
ATOM     10 CL   UNL d   1      33.203  20.412 -24.554  0.00  0.00    -0.060 Cl
ATOM     11  C   UNL d   1      33.127  18.263 -24.154  0.00  0.00     0.100 A 
ATOM     12  C   UNL d   1      33.146  18.258 -23.329  0.00  0.00     0.022 A 
ATOM     13  C   UNL d   1      33.183  18.967 -22.904  0.00  0.00     0.023 A 
ENDBRANCH   6   7
ENDBRANCH   4   6
ENDBRANCH   2   4
BRANCH   1  14
ATOM     14  C   UNL d   1      32.757  22.083 -20.726  0.00  0.00     0.080 A 
ATOM     15  C   UNL d   1      32.566  22.811 -21.062  0.00  0.00     0.099 A 
ATOM     16  C   UNL d   1      32.681  23.504 -20.632  0.00  0.00     0.024 A 
ATOM     17  C   UNL d   1      32.988  23.465 -19.862  0.00  0.00     0.002 A 
ATOM     18  C   UNL d   1      33.177  22.729 -19.531  0.00  0.00     0.000 A 
ATOM     19  C   UNL d   1      33.062  22.036 -19.962  0.00  0.00     0.007 A 
BRANCH  15  20
ATOM     20  O   UNL d   1      32.262  22.845 -21.825  0.00  0.00    -0.328 OA
ATOM     21  C   UNL d   1      31.987  23.561 -22.128  0.00  0.00     0.181 C 
ENDBRANCH  15  20
ENDBRANCH   1  14
TORSDOF 5
ENDMDL
MODEL 5
REMARK VINA RESULT:       0.4      1.981      4.649
REMARK  5 active torsions:
REMARK  status: ('A' for Active; 'I' for Inactive)
REMARK       I    between atoms: N_2  and  C_1 
REMARK    1  A    between atoms: C_4  and  C_1 
REMARK    2  A    between atoms: C_3  and  N_2 
REMARK    3  A    between atoms: N_5  and  C_3 
REMARK    4  A    between atoms: C_7  and  N_5 
REMARK    5  A    between atoms: O_14  and  C_11 
ROOT
ATOM      1  C   UNL d   1      33.040  20.681 -22.044  0.00  0.00     0.283 C 
ATOM      2  N   UNL d   1      33.104  20.297 -22.769  0.00  0.00    -0.179 NA
ATOM      3  O   UNL d   1      33.065  20.238 -21.347  0.00  0.00    -0.265 OA
ENDROOT
BRANCH   2   4
ATOM      4  C   UNL d   1      33.190  19.483 -22.811  0.00  0.00     0.224 C 
ATOM      5  S   UNL d   1      33.229  19.037 -22.107  0.00  0.00    -0.037 SA
BRANCH   4   6
ATOM      6  N   UNL d   1      33.240  19.091 -23.535  0.00  0.00    -0.215 NA
BRANCH   6   7
ATOM      7  C   UNL d   1      32.804  18.406 -23.677  0.00  0.00     0.112 A 
ATOM      8  C   UNL d   1      32.367  18.328 -24.383  0.00  0.00     0.156 A 
ATOM      9  N   UNL d   1      31.931  17.644 -24.524  0.00  0.00    -0.231 NA
ATOM     10 CL   UNL d   1      32.373  18.944 -24.941  0.00  0.00    -0.060 Cl
ATOM     11  C   UNL d   1      31.928  17.036 -23.969  0.00  0.00     0.100 A 
ATOM     12  C   UNL d   1      32.362  17.113 -23.270  0.00  0.00     0.022 A 
ATOM     13  C   UNL d   1      32.802  17.799 -23.121  0.00  0.00     0.023 A 
ENDBRANCH   6   7
ENDBRANCH   4   6
ENDBRANCH   2   4
BRANCH   1  14
ATOM     14  C   UNL d   1      32.954  21.499 -22.011  0.00  0.00     0.080 A 
ATOM     15  C   UNL d   1      32.584  21.846 -21.361  0.00  0.00     0.099 A 
ATOM     16  C   UNL d   1      32.498  22.665 -21.327  0.00  0.00     0.024 A 
ATOM     17  C   UNL d   1      32.783  23.136 -21.948  0.00  0.00     0.002 A 
ATOM     18  C   UNL d   1      33.153  22.780 -22.598  0.00  0.00     0.000 A 
ATOM     19  C   UNL d   1      33.240  21.961 -22.632  0.00  0.00     0.007 A 
BRANCH  15  20
ATOM     20  O   UNL d   1      32.303  21.377 -20.748  0.00  0.00    -0.328 OA
ATOM     21  C   UNL d   1      31.925  21.723 -20.103  0.00  0.00     0.181 C 
ENDBRANCH  15  20
ENDBRANCH   1  14
TORSDOF 5
ENDMDL
MODEL 6
REMARK VINA RESULT:       1.0      1.975      2.971
REMARK  5 active torsions:
REMARK  status: ('A' for Active; 'I' for Inactive)
REMARK       I    between atoms: N_2  and  C_1 
REMARK    1  A    between atoms: C_4  and  C_1 
REMARK    2  A    between atoms: C_3  and  N_2 
REMARK    3  A    between atoms: N_5  and  C_3 
REMARK    4  A    between atoms: C_7  and  N_5 
REMARK    5  A    between atoms: O_14  and  C_11 
ROOT
ATOM      1  C   UNL d   1      30.555  16.225 -24.098  0.00  0.00     0.283 C 
ATOM      2  N   UNL d   1      31.125  16.664 -23.698  0.00  0.00    -0.179 NA
ATOM      3  O   UNL d   1      30.759  15.839 -24.799  0.00  0.00    -0.265 OA
ENDROOT
BRANCH   2   4
ATOM      4  C   UNL d   1      31.891  16.724 -23.985  0.00  0.00     0.224 C 
ATOM      5  S   UNL d   1      32.403  16.068 -23.929  0.00  0.00    -0.037 SA
BRANCH   4   6
ATOM      6  N   UNL d   1      32.169  17.421 -24.329  0.00  0.00    -0.215 NA
BRANCH   6   7
ATOM      7  C   UNL d   1      32.526  18.006 -23.872  0.00  0.00     0.112 A 
ATOM      8  C   UNL d   1      32.686  18.755 -24.202  0.00  0.00     0.156 A 
ATOM      9  N   UNL d   1      33.043  19.339 -23.744  0.00  0.00    -0.231 NA
ATOM     10 CL   UNL d   1      32.484  18.908 -24.993  0.00  0.00    -0.060 Cl
ATOM     11  C   UNL d   1      33.241  19.183 -22.960  0.00  0.00     0.100 A 
ATOM     12  C   UNL d   1      33.082  18.441 -22.633  0.00  0.00     0.022 A 
ATOM     13  C   UNL d   1      32.724  17.849 -23.087  0.00  0.00     0.023 A 
ENDBRANCH   6   7
ENDBRANCH   4   6
ENDBRANCH   2   4
BRANCH   1  14
ATOM     14  C   UNL d   1      29.787  16.170 -23.804  0.00  0.00     0.080 A 
ATOM     15  C   UNL d   1      29.181  16.602 -24.156  0.00  0.00     0.099 A 
ATOM     16  C   UNL d   1      28.413  16.547 -23.861  0.00  0.00     0.024 A 
ATOM     17  C   UNL d   1      28.255  16.055 -23.212  0.00  0.00     0.002 A 
ATOM     18  C   UNL d   1      28.870  15.623 -22.863  0.00  0.00     0.000 A 
ATOM     19  C   UNL d   1      29.638  15.679 -23.158  0.00  0.00     0.007 A 
BRANCH  15  20
ATOM     20  O   UNL d   1      29.342  17.088 -24.799  0.00  0.00    -0.328 OA
ATOM     21  C   UNL d   1      28.760  17.595 -25.089  0.00  0.00     0.181 C 
ENDBRANCH  15  20
ENDBRANCH   1  14
TORSDOF 5
ENDMDL
