MODEL 1
REMARK VINA RESULT:      89.9      0.000      0.000
REMARK  2 active torsions:
REMARK  status: ('A' for Active; 'I' for Inactive)
REMARK       I    between atoms: N_2  and  C_1 
REMARK    1  A    between atoms: C_3  and  C_1 
REMARK    2  A    between atoms: C_4  and  N_2 
ROOT
ATOM      1  C   UNL d   1      61.445  45.501  50.120  0.00  0.00     0.059 A 
ATOM      2  C   UNL d   1      61.600  44.881  50.640  0.00  0.00     0.025 A 
ATOM      3  C   UNL d   1      61.930  44.172  50.354  0.00  0.00     0.099 A 
ATOM      4  N   UNL d   1      62.086  43.549  50.875  0.00  0.00    -0.241 NA
ATOM      5  N   UNL d   1      62.427  43.396  49.258  0.00  0.00    -0.241 NA
ATOM      6  C   UNL d   1      62.102  44.090  49.551  0.00  0.00     0.099 A 
ATOM      7  C   UNL d   1      61.618  45.419  49.313  0.00  0.00     0.006 A 
ATOM      8  C   UNL d   1      61.945  44.718  49.029  0.00  0.00     0.021 A 
ATOM      9  C   UNL d   1      62.414  42.847  50.583  0.00  0.00     0.120 A 
ATOM     10  C   UNL d   1      62.584  42.770  49.780  0.00  0.00     0.120 A 
ENDROOT
BRANCH   1  11
ATOM     11  C   UNL d   1      61.119  46.201  50.403  0.00  0.00     0.281 C 
ATOM     12  N   UNL d   1      61.552  46.903  50.370  0.00  0.00    -0.189 NA
ATOM     13  O   UNL d   1      60.359  46.200  50.721  0.00  0.00    -0.265 OA
BRANCH  12  14
ATOM     14  C   UNL d   1      61.224  47.603  50.654  0.00  0.00     0.166 A 
ATOM     15  N   UNL d   1      61.112  48.238  50.140  0.00  0.00    -0.225 NA
ATOM     16  C   UNL d   1      60.783  48.942  50.425  0.00  0.00     0.107 A 
ATOM     17  C   UNL d   1      60.569  49.005  51.219  0.00  0.00     0.054 A 
ATOM     18  C   UNL d   1      60.684  48.365  51.730  0.00  0.00     0.011 A 
ATOM     19 BR   UNL d   1      60.241  49.706  51.504  0.00  0.00    -0.048 Br
ATOM     20  C   UNL d   1      61.012  47.665  51.445  0.00  0.00     0.039 A 
ENDBRANCH  12  14
ENDBRANCH   1  11
TORSDOF 2
ENDMDL
