MODEL 1
REMARK VINA RESULT:      40.0      0.000      0.000
REMARK  5 active torsions:
REMARK  status: ('A' for Active; 'I' for Inactive)
REMARK    1  A    between atoms: C_8  and  C_1 
REMARK    2  A    between atoms: C_7  and  C_4 
REMARK    3  A    between atoms: O_10  and  C_8 
REMARK    4  A    between atoms: C_16  and  O_10 
REMARK    5  A    between atoms: C_19  and  C_16 
ROOT
ATOM      1  C   UNL d   1      46.251 -17.877  43.293  0.00  0.00     0.098 A 
ATOM      2  C   UNL d   1      46.271 -18.193  44.071  0.00  0.00     0.075 A 
ATOM      3  C   UNL d   1      46.359 -19.513  43.532  0.00  0.00     0.354 A 
ATOM      4  C   UNL d   1      46.286 -18.381  42.650  0.00  0.00     0.093 A 
ATOM      5  N   UNL d   1      46.324 -19.005  44.184  0.00  0.00    -0.256 N 
ATOM      6  N   UNL d   1      46.340 -19.201  42.764  0.00  0.00    -0.192 NA
ATOM      7  O   UNL d   1      46.413 -20.329  43.643  0.00  0.00    -0.244 OA
ATOM      8  C   UNL d   1      46.236 -17.695  44.720  0.00  0.00     0.019 C 
ATOM      9  C   UNL d   1      46.343 -19.316  44.948  0.00  0.00     0.104 C 
ENDROOT
BRANCH   1  10
ATOM     10  C   UNL d   1      46.198 -17.062  43.165  0.00  0.00     0.303 C 
ATOM     11  O   UNL d   1      46.493 -16.738  42.472  0.00  0.00    -0.259 OA
BRANCH  10  12
ATOM     12  O   UNL d   1      45.849 -16.586  43.732  0.00  0.00    -0.271 OA
BRANCH  12  13
ATOM     13  C   UNL d   1      45.682 -15.800  43.551  0.00  0.00     0.126 C 
BRANCH  13  14
ATOM     14  C   UNL d   1      45.495 -15.267  44.153  0.00  0.00     0.025 C 
ATOM     15  C   UNL d   1      46.025 -14.692  44.367  0.00  0.00     0.002 C 
ATOM     16  C   UNL d   1      44.776 -15.308  44.543  0.00  0.00     0.002 C 
ENDBRANCH  13  14
ENDBRANCH  12  13
ENDBRANCH  10  12
ENDBRANCH   1  10
BRANCH   4  17
ATOM     17  C   UNL d   1      46.267 -18.071  41.890  0.00  0.00     0.029 A 
ATOM     18  C   UNL d   1      45.867 -18.476  41.285  0.00  0.00     0.059 A 
ATOM     19 CL   UNL d   1      45.488 -19.192  41.453  0.00  0.00    -0.082 Cl
ATOM     20  C   UNL d   1      45.848 -18.160  40.508  0.00  0.00     0.011 A 
ATOM     21  C   UNL d   1      46.229 -17.444  40.348  0.00  0.00     0.001 A 
ATOM     22  C   UNL d   1      46.624 -17.042  40.944  0.00  0.00     0.000 A 
ATOM     23  C   UNL d   1      46.645 -17.371  41.752  0.00  0.00     0.002 A 
ENDBRANCH   4  17
TORSDOF 5
ENDMDL
MODEL 2
REMARK VINA RESULT:      42.9      2.715      4.804
REMARK  5 active torsions:
REMARK  status: ('A' for Active; 'I' for Inactive)
REMARK    1  A    between atoms: C_8  and  C_1 
REMARK    2  A    between atoms: C_7  and  C_4 
REMARK    3  A    between atoms: O_10  and  C_8 
REMARK    4  A    between atoms: C_16  and  O_10 
REMARK    5  A    between atoms: C_19  and  C_16 
ROOT
ATOM      1  C   UNL d   1      44.972 -14.716  44.653  0.00  0.00     0.098 A 
ATOM      2  C   UNL d   1      44.349 -15.261  44.794  0.00  0.00     0.075 A 
ATOM      3  C   UNL d   1      43.398 -14.199  44.700  0.00  0.00     0.354 A 
ATOM      4  C   UNL d   1      44.799 -13.924  44.539  0.00  0.00     0.093 A 
ATOM      5  N   UNL d   1      43.570 -15.000  44.816  0.00  0.00    -0.256 N 
ATOM      6  N   UNL d   1      44.013 -13.661  44.562  0.00  0.00    -0.192 NA
ATOM      7  O   UNL d   1      42.616 -13.935  44.723  0.00  0.00    -0.244 OA
ATOM      8  C   UNL d   1      44.514 -16.055  44.909  0.00  0.00     0.019 C 
ATOM      9  C   UNL d   1      42.958 -15.536  44.954  0.00  0.00     0.104 C 
ENDROOT
BRANCH   1  10
ATOM     10  C   UNL d   1      45.759 -14.964  44.628  0.00  0.00     0.303 C 
ATOM     11  O   UNL d   1      46.363 -14.408  44.603  0.00  0.00    -0.259 OA
BRANCH  10  12
ATOM     12  O   UNL d   1      45.931 -15.764  44.628  0.00  0.00    -0.271 OA
BRANCH  12  13
ATOM     13  C   UNL d   1      45.770 -16.212  43.955  0.00  0.00     0.126 C 
BRANCH  13  14
ATOM     14  C   UNL d   1      46.202 -16.897  43.801  0.00  0.00     0.025 C 
ATOM     15  C   UNL d   1      46.276 -17.469  44.371  0.00  0.00     0.002 C 
ATOM     16  C   UNL d   1      46.563 -17.015  43.075  0.00  0.00     0.002 C 
ENDBRANCH  13  14
ENDBRANCH  12  13
ENDBRANCH  10  12
ENDBRANCH   1  10
BRANCH   4  17
ATOM     17  C   UNL d   1      45.408 -13.391  44.402  0.00  0.00     0.029 A 
ATOM     18  C   UNL d   1      45.407 -12.925  43.715  0.00  0.00     0.059 A 
ATOM     19 CL   UNL d   1      44.789 -13.002  43.169  0.00  0.00    -0.082 Cl
ATOM     20  C   UNL d   1      46.030 -12.380  43.574  0.00  0.00     0.011 A 
ATOM     21  C   UNL d   1      46.643 -12.310  44.124  0.00  0.00     0.001 A 
ATOM     22  C   UNL d   1      46.647 -12.768  44.803  0.00  0.00     0.000 A 
ATOM     23  C   UNL d   1      45.999 -13.335  44.949  0.00  0.00     0.002 A 
ENDBRANCH   4  17
TORSDOF 5
ENDMDL
