MODEL 1
REMARK VINA RESULT:      -6.0      0.000      0.000
REMARK  8 active torsions:
REMARK  status: ('A' for Active; 'I' for Inactive)
REMARK    1  A    between atoms: C_9  and  C_2 
REMARK    2  A    between atoms: S_7  and  C_4 
REMARK    3  A    between atoms: C_6  and  C_13 
REMARK       I    between atoms: N_10  and  C_6 
REMARK    4  A    between atoms: C_13  and  S_7 
REMARK    5  A    between atoms: C_8  and  C_14 
REMARK    6  A    between atoms: O_15  and  C_8 
REMARK    7  A    between atoms: C_14  and  N_10 
REMARK    8  A    between atoms: C_18  and  O_15 
ROOT
ATOM      1  N   UNL d   1     -48.021  12.730  23.021  0.00  0.00    -0.212 NA
ATOM      2  C   UNL d   1     -48.604  12.202  23.245  0.00  0.00     0.171 A 
ATOM      3  N   UNL d   1     -48.247  11.580  23.655  0.00  0.00    -0.188 NA
ATOM      4  C   UNL d   1     -47.294  12.447  23.287  0.00  0.00     0.160 A 
ATOM      5  S   UNL d   1     -47.436  11.731  23.682  0.00  0.00     0.041 SA
ENDROOT
BRANCH   4   6
ATOM      6  S   UNL d   1     -46.556  12.803  23.185  0.00  0.00    -0.054 SA
BRANCH   6   7
ATOM      7  C   UNL d   1     -46.184  12.772  22.458  0.00  0.00     0.100 C 
BRANCH   7   8
ATOM      8  C   UNL d   1     -45.479  13.189  22.324  0.00  0.00     0.286 C 
ATOM      9  N   UNL d   1     -44.844  12.814  21.958  0.00  0.00    -0.200 NA
ATOM     10  O   UNL d   1     -45.425  13.974  22.561  0.00  0.00    -0.265 OA
BRANCH   9  11
ATOM     11  C   UNL d   1     -44.148  13.236  21.829  0.00  0.00     0.171 C 
BRANCH  11  12
ATOM     12  C   UNL d   1     -43.469  12.828  21.574  0.00  0.00     0.320 C 
ATOM     13  O   UNL d   1     -43.329  12.055  21.832  0.00  0.00    -0.257 OA
BRANCH  12  14
ATOM     14  O   UNL d   1     -42.937  13.207  21.061  0.00  0.00    -0.270 OA
BRANCH  14  15
ATOM     15  C   UNL d   1     -42.128  13.226  21.256  0.00  0.00     0.126 C 
ATOM     16  C   UNL d   1     -41.600  13.593  20.753  0.00  0.00     0.029 C 
ENDBRANCH  14  15
ENDBRANCH  12  14
ENDBRANCH  11  12
ENDBRANCH   9  11
ENDBRANCH   7   8
ENDBRANCH   6   7
ENDBRANCH   4   6
BRANCH   2  17
ATOM     17  C   UNL d   1     -49.413  12.270  23.092  0.00  0.00     0.036 A 
ATOM     18  C   UNL d   1     -49.693  12.426  22.323  0.00  0.00     0.003 A 
ATOM     19  C   UNL d   1     -50.491  12.492  22.176  0.00  0.00     0.000 A 
ATOM     20  C   UNL d   1     -51.026  12.404  22.793  0.00  0.00     0.000 A 
ATOM     21  C   UNL d   1     -50.755  12.249  23.561  0.00  0.00     0.000 A 
ATOM     22  C   UNL d   1     -49.951  12.184  23.698  0.00  0.00     0.003 A 
ENDBRANCH   2  17
TORSDOF 8
ENDMDL
MODEL 2
REMARK VINA RESULT:      -5.8      2.446      3.121
REMARK  8 active torsions:
REMARK  status: ('A' for Active; 'I' for Inactive)
REMARK    1  A    between atoms: C_9  and  C_2 
REMARK    2  A    between atoms: S_7  and  C_4 
REMARK    3  A    between atoms: C_6  and  C_13 
REMARK       I    between atoms: N_10  and  C_6 
REMARK    4  A    between atoms: C_13  and  S_7 
REMARK    5  A    between atoms: C_8  and  C_14 
REMARK    6  A    between atoms: O_15  and  C_8 
REMARK    7  A    between atoms: C_14  and  N_10 
REMARK    8  A    between atoms: C_18  and  O_15 
ROOT
ATOM      1  N   UNL d   1     -49.303  13.083  23.302  0.00  0.00    -0.212 NA
ATOM      2  C   UNL d   1     -49.992  13.479  23.107  0.00  0.00     0.171 A 
ATOM      3  N   UNL d   1     -50.554  12.920  22.871  0.00  0.00    -0.188 NA
ATOM      4  C   UNL d   1     -49.424  12.274  23.191  0.00  0.00     0.160 A 
ATOM      5  S   UNL d   1     -50.203  12.175  22.923  0.00  0.00     0.041 SA
ENDROOT
BRANCH   4   6
ATOM      6  S   UNL d   1     -48.877  11.670  23.321  0.00  0.00    -0.054 SA
BRANCH   6   7
ATOM      7  C   UNL d   1     -48.127  11.848  23.591  0.00  0.00     0.100 C 
BRANCH   7   8
ATOM      8  C   UNL d   1     -47.539  11.263  23.625  0.00  0.00     0.286 C 
ATOM      9  N   UNL d   1     -46.746  11.481  23.664  0.00  0.00    -0.200 NA
ATOM     10  O   UNL d   1     -47.758  10.471  23.619  0.00  0.00    -0.265 OA
BRANCH   9  11
ATOM     11  C   UNL d   1     -46.169  10.894  23.698  0.00  0.00     0.171 C 
BRANCH  11  12
ATOM     12  C   UNL d   1     -45.381  11.090  23.514  0.00  0.00     0.320 C 
ATOM     13  O   UNL d   1     -45.174  11.876  23.358  0.00  0.00    -0.257 OA
BRANCH  12  14
ATOM     14  O   UNL d   1     -44.809  10.489  23.490  0.00  0.00    -0.270 OA
BRANCH  14  15
ATOM     15  C   UNL d   1     -44.033  10.675  23.251  0.00  0.00     0.126 C 
ATOM     16  C   UNL d   1     -43.435  10.128  23.357  0.00  0.00     0.029 C 
ENDBRANCH  14  15
ENDBRANCH  12  14
ENDBRANCH  11  12
ENDBRANCH   9  11
ENDBRANCH   7   8
ENDBRANCH   6   7
ENDBRANCH   4   6
BRANCH   2  17
ATOM     17  C   UNL d   1     -50.115  14.295  23.137  0.00  0.00     0.036 A 
ATOM     18  C   UNL d   1     -50.789  14.613  23.508  0.00  0.00     0.003 A 
ATOM     19  C   UNL d   1     -50.907  15.419  23.536  0.00  0.00     0.000 A 
ATOM     20  C   UNL d   1     -50.355  15.922  23.195  0.00  0.00     0.000 A 
ATOM     21  C   UNL d   1     -49.681  15.612  22.824  0.00  0.00     0.000 A 
ATOM     22  C   UNL d   1     -49.572  14.801  22.802  0.00  0.00     0.003 A 
ENDBRANCH   2  17
TORSDOF 8
ENDMDL
MODEL 3
REMARK VINA RESULT:      -5.7      1.779      1.900
REMARK  8 active torsions:
REMARK  status: ('A' for Active; 'I' for Inactive)
REMARK    1  A    between atoms: C_9  and  C_2 
REMARK    2  A    between atoms: S_7  and  C_4 
REMARK    3  A    between atoms: C_6  and  C_13 
REMARK       I    between atoms: N_10  and  C_6 
REMARK    4  A    between atoms: C_13  and  S_7 
REMARK    5  A    between atoms: C_8  and  C_14 
REMARK    6  A    between atoms: O_15  and  C_8 
REMARK    7  A    between atoms: C_14  and  N_10 
REMARK    8  A    between atoms: C_18  and  O_15 
ROOT
ATOM      1  N   UNL d   1     -48.211  13.841  23.044  0.00  0.00    -0.212 NA
ATOM      2  C   UNL d   1     -48.945  14.016  22.729  0.00  0.00     0.171 A 
ATOM      3  N   UNL d   1     -49.048  13.563  22.045  0.00  0.00    -0.188 NA
ATOM      4  C   UNL d   1     -47.845  13.280  22.564  0.00  0.00     0.160 A 
ATOM      5  S   UNL d   1     -48.367  13.108  21.943  0.00  0.00     0.041 SA
ENDROOT
BRANCH   4   6
ATOM      6  S   UNL d   1     -47.098  12.945  22.674  0.00  0.00    -0.054 SA
BRANCH   6   7
ATOM      7  C   UNL d   1     -46.427  13.373  22.491  0.00  0.00     0.100 C 
BRANCH   7   8
ATOM      8  C   UNL d   1     -45.674  13.034  22.567  0.00  0.00     0.286 C 
ATOM      9  N   UNL d   1     -45.100  13.176  21.993  0.00  0.00    -0.200 NA
ATOM     10  O   UNL d   1     -45.510  12.559  23.217  0.00  0.00    -0.265 OA
BRANCH   9  11
ATOM     11  C   UNL d   1     -44.355  12.835  22.077  0.00  0.00     0.171 C 
BRANCH  11  12
ATOM     12  C   UNL d   1     -43.793  12.936  21.471  0.00  0.00     0.320 C 
ATOM     13  O   UNL d   1     -43.921  12.598  20.727  0.00  0.00    -0.257 OA
BRANCH  12  14
ATOM     14  O   UNL d   1     -43.107  13.378  21.624  0.00  0.00    -0.270 OA
BRANCH  14  15
ATOM     15  C   UNL d   1     -42.432  13.256  21.152  0.00  0.00     0.126 C 
ATOM     16  C   UNL d   1     -41.768  13.718  21.270  0.00  0.00     0.029 C 
ENDBRANCH  14  15
ENDBRANCH  12  14
ENDBRANCH  11  12
ENDBRANCH   9  11
ENDBRANCH   7   8
ENDBRANCH   6   7
ENDBRANCH   4   6
BRANCH   2  17
ATOM     17  C   UNL d   1     -49.497  14.550  23.034  0.00  0.00     0.036 A 
ATOM     18  C   UNL d   1     -50.270  14.307  23.224  0.00  0.00     0.003 A 
ATOM     19  C   UNL d   1     -50.811  14.836  23.524  0.00  0.00     0.000 A 
ATOM     20  C   UNL d   1     -50.591  15.619  23.641  0.00  0.00     0.000 A 
ATOM     21  C   UNL d   1     -49.823  15.868  23.454  0.00  0.00     0.000 A 
ATOM     22  C   UNL d   1     -49.287  15.328  23.153  0.00  0.00     0.003 A 
ENDBRANCH   2  17
TORSDOF 8
ENDMDL
MODEL 4
REMARK VINA RESULT:      -4.6      2.538      5.431
REMARK  8 active torsions:
REMARK  status: ('A' for Active; 'I' for Inactive)
REMARK    1  A    between atoms: C_9  and  C_2 
REMARK    2  A    between atoms: S_7  and  C_4 
REMARK    3  A    between atoms: C_6  and  C_13 
REMARK       I    between atoms: N_10  and  C_6 
REMARK    4  A    between atoms: C_13  and  S_7 
REMARK    5  A    between atoms: C_8  and  C_14 
REMARK    6  A    between atoms: O_15  and  C_8 
REMARK    7  A    between atoms: C_14  and  N_10 
REMARK    8  A    between atoms: C_18  and  O_15 
ROOT
ATOM      1  N   UNL d   1     -45.472  12.577  22.994  0.00  0.00    -0.212 NA
ATOM      2  C   UNL d   1     -44.906  12.077  22.680  0.00  0.00     0.171 A 
ATOM      3  N   UNL d   1     -44.642  12.401  21.966  0.00  0.00    -0.188 NA
ATOM      4  C   UNL d   1     -45.570  13.218  22.485  0.00  0.00     0.160 A 
ATOM      5  S   UNL d   1     -45.053  13.107  21.846  0.00  0.00     0.041 SA
ENDROOT
BRANCH   4   6
ATOM      6  S   UNL d   1     -46.085  13.856  22.584  0.00  0.00    -0.054 SA
BRANCH   6   7
ATOM      7  C   UNL d   1     -46.891  13.729  22.614  0.00  0.00     0.100 C 
BRANCH   7   8
ATOM      8  C   UNL d   1     -47.418  14.368  22.676  0.00  0.00     0.286 C 
ATOM      9  N   UNL d   1     -48.230  14.230  22.679  0.00  0.00    -0.200 NA
ATOM     10  O   UNL d   1     -47.120  15.131  22.734  0.00  0.00    -0.265 OA
BRANCH   9  11
ATOM     11  C   UNL d   1     -48.746  14.870  22.741  0.00  0.00     0.171 C 
BRANCH  11  12
ATOM     12  C   UNL d   1     -49.566  14.729  22.737  0.00  0.00     0.320 C 
ATOM     13  O   UNL d   1     -50.033  14.982  23.372  0.00  0.00    -0.257 OA
BRANCH  12  14
ATOM     14  O   UNL d   1     -49.907  14.335  22.091  0.00  0.00    -0.270 OA
BRANCH  14  15
ATOM     15  C   UNL d   1     -50.712  14.124  22.122  0.00  0.00     0.126 C 
ATOM     16  C   UNL d   1     -51.050  13.725  21.494  0.00  0.00     0.029 C 
ENDBRANCH  14  15
ENDBRANCH  12  14
ENDBRANCH  11  12
ENDBRANCH   9  11
ENDBRANCH   7   8
ENDBRANCH   6   7
ENDBRANCH   4   6
BRANCH   2  17
ATOM     17  C   UNL d   1     -44.637  11.370  23.009  0.00  0.00     0.036 A 
ATOM     18  C   UNL d   1     -43.831  11.163  22.984  0.00  0.00     0.003 A 
ATOM     19  C   UNL d   1     -43.569  10.464  23.310  0.00  0.00     0.000 A 
ATOM     20  C   UNL d   1     -44.107   9.957  23.668  0.00  0.00     0.000 A 
ATOM     21  C   UNL d   1     -44.912  10.156  23.697  0.00  0.00     0.000 A 
ATOM     22  C   UNL d   1     -45.164  10.860  23.366  0.00  0.00     0.003 A 
ENDBRANCH   2  17
TORSDOF 8
ENDMDL
MODEL 5
REMARK VINA RESULT:      -4.4      7.999      9.570
REMARK  8 active torsions:
REMARK  status: ('A' for Active; 'I' for Inactive)
REMARK    1  A    between atoms: C_9  and  C_2 
REMARK    2  A    between atoms: S_7  and  C_4 
REMARK    3  A    between atoms: C_6  and  C_13 
REMARK       I    between atoms: N_10  and  C_6 
REMARK    4  A    between atoms: C_13  and  S_7 
REMARK    5  A    between atoms: C_8  and  C_14 
REMARK    6  A    between atoms: O_15  and  C_8 
REMARK    7  A    between atoms: C_14  and  N_10 
REMARK    8  A    between atoms: C_18  and  O_15 
ROOT
ATOM      1  N   UNL d   1     -39.648  14.989  17.933  0.00  0.00    -0.212 NA
ATOM      2  C   UNL d   1     -39.731  15.004  17.119  0.00  0.00     0.171 A 
ATOM      3  N   UNL d   1     -40.522  15.164  16.943  0.00  0.00    -0.188 NA
ATOM      4  C   UNL d   1     -40.382  15.140  18.275  0.00  0.00     0.160 A 
ATOM      5  S   UNL d   1     -40.925  15.249  17.658  0.00  0.00     0.041 SA
ENDROOT
BRANCH   4   6
ATOM      6  S   UNL d   1     -40.554  15.178  19.082  0.00  0.00    -0.054 SA
BRANCH   6   7
ATOM      7  C   UNL d   1     -39.952  15.284  19.624  0.00  0.00     0.100 C 
BRANCH   7   8
ATOM      8  C   UNL d   1     -40.103  15.239  20.439  0.00  0.00     0.286 C 
ATOM      9  N   UNL d   1     -39.484  15.100  20.964  0.00  0.00    -0.200 NA
ATOM     10  O   UNL d   1     -40.873  15.335  20.712  0.00  0.00    -0.265 OA
BRANCH   9  11
ATOM     11  C   UNL d   1     -39.643  15.058  21.771  0.00  0.00     0.171 C 
BRANCH  11  12
ATOM     12  C   UNL d   1     -39.020  14.890  22.298  0.00  0.00     0.320 C 
ATOM     13  O   UNL d   1     -38.508  15.492  22.539  0.00  0.00    -0.257 OA
BRANCH  12  14
ATOM     14  O   UNL d   1     -38.923  14.113  22.575  0.00  0.00    -0.270 OA
BRANCH  14  15
ATOM     15  C   UNL d   1     -38.767  13.987  23.383  0.00  0.00     0.126 C 
ATOM     16  C   UNL d   1     -38.573  13.238  23.645  0.00  0.00     0.029 C 
ENDBRANCH  14  15
ENDBRANCH  12  14
ENDBRANCH  11  12
ENDBRANCH   9  11
ENDBRANCH   7   8
ENDBRANCH   6   7
ENDBRANCH   4   6
BRANCH   2  17
ATOM     17  C   UNL d   1     -39.134  14.880  16.562  0.00  0.00     0.036 A 
ATOM     18  C   UNL d   1     -38.885  14.111  16.363  0.00  0.00     0.003 A 
ATOM     19  C   UNL d   1     -38.296  13.992  15.813  0.00  0.00     0.000 A 
ATOM     20  C   UNL d   1     -37.944  14.639  15.451  0.00  0.00     0.000 A 
ATOM     21  C   UNL d   1     -38.186  15.408  15.643  0.00  0.00     0.000 A 
ATOM     22  C   UNL d   1     -38.779  15.516  16.197  0.00  0.00     0.003 A 
ENDBRANCH   2  17
TORSDOF 8
ENDMDL
MODEL 6
REMARK VINA RESULT:      -3.9      4.356      8.901
REMARK  8 active torsions:
REMARK  status: ('A' for Active; 'I' for Inactive)
REMARK    1  A    between atoms: C_9  and  C_2 
REMARK    2  A    between atoms: S_7  and  C_4 
REMARK    3  A    between atoms: C_6  and  C_13 
REMARK       I    between atoms: N_10  and  C_6 
REMARK    4  A    between atoms: C_13  and  S_7 
REMARK    5  A    between atoms: C_8  and  C_14 
REMARK    6  A    between atoms: O_15  and  C_8 
REMARK    7  A    between atoms: C_14  and  N_10 
REMARK    8  A    between atoms: C_18  and  O_15 
ROOT
ATOM      1  N   UNL d   1     -39.815  14.340  18.551  0.00  0.00    -0.212 NA
ATOM      2  C   UNL d   1     -39.039  14.306  18.294  0.00  0.00     0.171 A 
ATOM      3  N   UNL d   1     -38.549  14.540  18.918  0.00  0.00    -0.188 NA
ATOM      4  C   UNL d   1     -39.822  14.595  19.335  0.00  0.00     0.160 A 
ATOM      5  S   UNL d   1     -39.034  14.719  19.562  0.00  0.00     0.041 SA
ENDROOT
BRANCH   4   6
ATOM      6  S   UNL d   1     -40.486  14.708  19.813  0.00  0.00    -0.054 SA
BRANCH   6   7
ATOM      7  C   UNL d   1     -40.727  14.119  20.324  0.00  0.00     0.100 C 
BRANCH   7   8
ATOM      8  C   UNL d   1     -41.407  14.215  20.791  0.00  0.00     0.286 C 
ATOM      9  N   UNL d   1     -41.915  13.579  20.912  0.00  0.00    -0.200 NA
ATOM     10  O   UNL d   1     -41.563  14.948  21.128  0.00  0.00    -0.265 OA
BRANCH   9  11
ATOM     11  C   UNL d   1     -42.586  13.683  21.377  0.00  0.00     0.171 C 
BRANCH  11  12
ATOM     12  C   UNL d   1     -43.155  13.076  21.409  0.00  0.00     0.320 C 
ATOM     13  O   UNL d   1     -42.917  12.284  21.401  0.00  0.00    -0.257 OA
BRANCH  12  14
ATOM     14  O   UNL d   1     -43.960  13.277  21.448  0.00  0.00    -0.270 OA
BRANCH  14  15
ATOM     15  C   UNL d   1     -44.472  12.811  21.911  0.00  0.00     0.126 C 
ATOM     16  C   UNL d   1     -45.229  13.076  22.067  0.00  0.00     0.029 C 
ENDBRANCH  14  15
ENDBRANCH  12  14
ENDBRANCH  11  12
ENDBRANCH   9  11
ENDBRANCH   7   8
ENDBRANCH   6   7
ENDBRANCH   4   6
BRANCH   2  17
ATOM     17  C   UNL d   1     -38.779  14.078  17.544  0.00  0.00     0.036 A 
ATOM     18  C   UNL d   1     -38.500  13.307  17.403  0.00  0.00     0.003 A 
ATOM     19  C   UNL d   1     -38.244  13.085  16.662  0.00  0.00     0.000 A 
ATOM     20  C   UNL d   1     -38.261  13.630  16.047  0.00  0.00     0.000 A 
ATOM     21  C   UNL d   1     -38.538  14.400  16.180  0.00  0.00     0.000 A 
ATOM     22  C   UNL d   1     -38.793  14.612  16.928  0.00  0.00     0.003 A 
ENDBRANCH   2  17
TORSDOF 8
ENDMDL
MODEL 7
REMARK VINA RESULT:      -3.6      2.778      7.575
REMARK  8 active torsions:
REMARK  status: ('A' for Active; 'I' for Inactive)
REMARK    1  A    between atoms: C_9  and  C_2 
REMARK    2  A    between atoms: S_7  and  C_4 
REMARK    3  A    between atoms: C_6  and  C_13 
REMARK       I    between atoms: N_10  and  C_6 
REMARK    4  A    between atoms: C_13  and  S_7 
REMARK    5  A    between atoms: C_8  and  C_14 
REMARK    6  A    between atoms: O_15  and  C_8 
REMARK    7  A    between atoms: C_14  and  N_10 
REMARK    8  A    between atoms: C_18  and  O_15 
ROOT
ATOM      1  N   UNL d   1     -40.885  13.602  21.179  0.00  0.00    -0.212 NA
ATOM      2  C   UNL d   1     -40.328  14.199  21.222  0.00  0.00     0.171 A 
ATOM      3  N   UNL d   1     -40.699  14.914  21.038  0.00  0.00    -0.188 NA
ATOM      4  C   UNL d   1     -41.610  13.934  20.968  0.00  0.00     0.160 A 
ATOM      5  S   UNL d   1     -41.492  14.750  20.881  0.00  0.00     0.041 SA
ENDROOT
BRANCH   4   6
ATOM      6  S   UNL d   1     -42.325  13.535  20.862  0.00  0.00    -0.054 SA
BRANCH   6   7
ATOM      7  C   UNL d   1     -42.807  13.380  21.503  0.00  0.00     0.100 C 
BRANCH   7   8
ATOM      8  C   UNL d   1     -43.558  13.043  21.398  0.00  0.00     0.286 C 
ATOM      9  N   UNL d   1     -44.147  13.173  21.958  0.00  0.00    -0.200 NA
ATOM     10  O   UNL d   1     -43.703  12.582  20.733  0.00  0.00    -0.265 OA
BRANCH   9  11
ATOM     11  C   UNL d   1     -44.890  12.835  21.845  0.00  0.00     0.171 C 
BRANCH  11  12
ATOM     12  C   UNL d   1     -45.469  12.922  22.437  0.00  0.00     0.320 C 
ATOM     13  O   UNL d   1     -45.383  12.533  23.162  0.00  0.00    -0.257 OA
BRANCH  12  14
ATOM     14  O   UNL d   1     -46.129  13.404  22.290  0.00  0.00    -0.270 OA
BRANCH  14  15
ATOM     15  C   UNL d   1     -46.891  13.107  22.450  0.00  0.00     0.126 C 
ATOM     16  C   UNL d   1     -47.529  13.617  22.458  0.00  0.00     0.029 C 
ENDBRANCH  14  15
ENDBRANCH  12  14
ENDBRANCH  11  12
ENDBRANCH   9  11
ENDBRANCH   7   8
ENDBRANCH   6   7
ENDBRANCH   4   6
BRANCH   2  17
ATOM     17  C   UNL d   1     -39.529  14.112  21.415  0.00  0.00     0.036 A 
ATOM     18  C   UNL d   1     -38.955  13.993  20.824  0.00  0.00     0.003 A 
ATOM     19  C   UNL d   1     -38.169  13.908  21.018  0.00  0.00     0.000 A 
ATOM     20  C   UNL d   1     -37.940  13.940  21.806  0.00  0.00     0.000 A 
ATOM     21  C   UNL d   1     -38.505  14.059  22.400  0.00  0.00     0.000 A 
ATOM     22  C   UNL d   1     -39.293  14.143  22.194  0.00  0.00     0.003 A 
ENDBRANCH   2  17
TORSDOF 8
ENDMDL
MODEL 8
REMARK VINA RESULT:      -3.4      2.065      5.855
REMARK  8 active torsions:
REMARK  status: ('A' for Active; 'I' for Inactive)
REMARK    1  A    between atoms: C_9  and  C_2 
REMARK    2  A    between atoms: S_7  and  C_4 
REMARK    3  A    between atoms: C_6  and  C_13 
REMARK       I    between atoms: N_10  and  C_6 
REMARK    4  A    between atoms: C_13  and  S_7 
REMARK    5  A    between atoms: C_8  and  C_14 
REMARK    6  A    between atoms: O_15  and  C_8 
REMARK    7  A    between atoms: C_14  and  N_10 
REMARK    8  A    between atoms: C_18  and  O_15 
ROOT
ATOM      1  N   UNL d   1     -45.507  12.372  22.599  0.00  0.00    -0.212 NA
ATOM      2  C   UNL d   1     -45.047  12.967  22.275  0.00  0.00     0.171 A 
ATOM      3  N   UNL d   1     -45.472  13.675  22.319  0.00  0.00    -0.188 NA
ATOM      4  C   UNL d   1     -46.221  12.699  22.849  0.00  0.00     0.160 A 
ATOM      5  S   UNL d   1     -46.198  13.509  22.674  0.00  0.00     0.041 SA
ENDROOT
BRANCH   4   6
ATOM      6  S   UNL d   1     -46.849  12.300  23.208  0.00  0.00    -0.054 SA
BRANCH   6   7
ATOM      7  C   UNL d   1     -47.569  12.674  23.306  0.00  0.00     0.100 C 
BRANCH   7   8
ATOM      8  C   UNL d   1     -48.267  12.233  23.393  0.00  0.00     0.286 C 
ATOM      9  N   UNL d   1     -48.989  12.562  23.175  0.00  0.00    -0.200 NA
ATOM     10  O   UNL d   1     -48.226  11.471  23.698  0.00  0.00    -0.265 OA
BRANCH   9  11
ATOM     11  C   UNL d   1     -49.677  12.118  23.265  0.00  0.00     0.171 C 
BRANCH  11  12
ATOM     12  C   UNL d   1     -50.411  12.470  23.092  0.00  0.00     0.320 C 
ATOM     13  O   UNL d   1     -50.959  12.604  23.697  0.00  0.00    -0.257 OA
BRANCH  12  14
ATOM     14  O   UNL d   1     -50.585  12.681  22.308  0.00  0.00    -0.270 OA
BRANCH  14  15
ATOM     15  C   UNL d   1     -51.011  13.381  22.161  0.00  0.00     0.126 C 
ATOM     16  C   UNL d   1     -51.063  13.670  21.399  0.00  0.00     0.029 C 
ENDBRANCH  14  15
ENDBRANCH  12  14
ENDBRANCH  11  12
ENDBRANCH   9  11
ENDBRANCH   7   8
ENDBRANCH   6   7
ENDBRANCH   4   6
BRANCH   2  17
ATOM     17  C   UNL d   1     -44.290  12.884  21.956  0.00  0.00     0.036 A 
ATOM     18  C   UNL d   1     -43.975  13.460  21.444  0.00  0.00     0.003 A 
ATOM     19  C   UNL d   1     -43.228  13.375  21.131  0.00  0.00     0.000 A 
ATOM     20  C   UNL d   1     -42.780  12.714  21.324  0.00  0.00     0.000 A 
ATOM     21  C   UNL d   1     -43.087  12.137  21.834  0.00  0.00     0.000 A 
ATOM     22  C   UNL d   1     -43.838  12.232  22.142  0.00  0.00     0.003 A 
ENDBRANCH   2  17
TORSDOF 8
ENDMDL
MODEL 9
REMARK VINA RESULT:      -3.3      2.193      6.498
REMARK  8 active torsions:
REMARK  status: ('A' for Active; 'I' for Inactive)
REMARK    1  A    between atoms: C_9  and  C_2 
REMARK    2  A    between atoms: S_7  and  C_4 
REMARK    3  A    between atoms: C_6  and  C_13 
REMARK       I    between atoms: N_10  and  C_6 
REMARK    4  A    between atoms: C_13  and  S_7 
REMARK    5  A    between atoms: C_8  and  C_14 
REMARK    6  A    between atoms: O_15  and  C_8 
REMARK    7  A    between atoms: C_14  and  N_10 
REMARK    8  A    between atoms: C_18  and  O_15 
ROOT
ATOM      1  N   UNL d   1     -43.009  13.569  21.771  0.00  0.00    -0.212 NA
ATOM      2  C   UNL d   1     -42.438  13.527  21.187  0.00  0.00     0.171 A 
ATOM      3  N   UNL d   1     -42.652  12.928  20.659  0.00  0.00    -0.188 NA
ATOM      4  C   UNL d   1     -43.585  12.999  21.618  0.00  0.00     0.160 A 
ATOM      5  S   UNL d   1     -43.361  12.601  20.925  0.00  0.00     0.041 SA
ENDROOT
BRANCH   4   6
ATOM      6  S   UNL d   1     -44.262  12.846  22.065  0.00  0.00    -0.054 SA
BRANCH   6   7
ATOM      7  C   UNL d   1     -44.966  13.218  21.882  0.00  0.00     0.100 C 
BRANCH   7   8
ATOM      8  C   UNL d   1     -45.609  13.191  22.406  0.00  0.00     0.286 C 
ATOM      9  N   UNL d   1     -46.339  13.493  22.175  0.00  0.00    -0.200 NA
ATOM     10  O   UNL d   1     -45.506  12.861  23.152  0.00  0.00    -0.265 OA
BRANCH   9  11
ATOM     11  C   UNL d   1     -46.972  13.462  22.702  0.00  0.00     0.171 C 
BRANCH  11  12
ATOM     12  C   UNL d   1     -47.716  13.743  22.458  0.00  0.00     0.320 C 
ATOM     13  O   UNL d   1     -48.116  13.371  21.837  0.00  0.00    -0.257 OA
BRANCH  12  14
ATOM     14  O   UNL d   1     -48.049  14.398  22.845  0.00  0.00    -0.270 OA
BRANCH  14  15
ATOM     15  C   UNL d   1     -48.877  14.476  22.873  0.00  0.00     0.126 C 
ATOM     16  C   UNL d   1     -49.209  15.158  23.177  0.00  0.00     0.029 C 
ENDBRANCH  14  15
ENDBRANCH  12  14
ENDBRANCH  11  12
ENDBRANCH   9  11
ENDBRANCH   7   8
ENDBRANCH   6   7
ENDBRANCH   4   6
BRANCH   2  17
ATOM     17  C   UNL d   1     -41.762  13.997  21.126  0.00  0.00     0.036 A 
ATOM     18  C   UNL d   1     -41.005  13.680  21.265  0.00  0.00     0.003 A 
ATOM     19  C   UNL d   1     -40.340  14.146  21.204  0.00  0.00     0.000 A 
ATOM     20  C   UNL d   1     -40.418  14.939  21.003  0.00  0.00     0.000 A 
ATOM     21  C   UNL d   1     -41.168  15.262  20.863  0.00  0.00     0.000 A 
ATOM     22  C   UNL d   1     -41.830  14.784  20.927  0.00  0.00     0.003 A 
ENDBRANCH   2  17
TORSDOF 8
ENDMDL
