MODEL 1
REMARK VINA RESULT:      -5.6      0.000      0.000
REMARK  8 active torsions:
REMARK  status: ('A' for Active; 'I' for Inactive)
REMARK    1  A    between atoms: S_5  and  C_2 
REMARK       I    between atoms: C_3  and  N_9 
REMARK    2  A    between atoms: C_16  and  C_3 
REMARK       I    between atoms: C_4  and  N_8 
REMARK    3  A    between atoms: C_17  and  C_4 
REMARK    4  A    between atoms: C_10  and  S_5 
REMARK    5  A    between atoms: S_11  and  C_6 
REMARK    6  A    between atoms: N_8  and  C_10 
REMARK    7  A    between atoms: N_9  and  C_12 
REMARK    8  A    between atoms: C_12  and  S_11 
ROOT
ATOM      1  N   UNL d   1     -44.813  13.365  21.952  0.00  0.00    -0.214 NA
ATOM      2  C   UNL d   1     -44.199  12.849  21.759  0.00  0.00     0.196 A 
ATOM      3  C   UNL d   1     -45.367  13.130  22.515  0.00  0.00     0.116 A 
ATOM      4  N   UNL d   1     -44.127  12.102  22.120  0.00  0.00    -0.220 NA
ATOM      5  C   UNL d   1     -45.318  12.403  22.882  0.00  0.00     0.047 A 
ATOM      6  C   UNL d   1     -44.705  11.887  22.690  0.00  0.00     0.103 A 
ENDROOT
BRANCH   2   7
ATOM      7  S   UNL d   1     -43.611  13.041  21.194  0.00  0.00    -0.027 SA
BRANCH   7   8
ATOM      8  C   UNL d   1     -42.850  13.205  21.422  0.00  0.00     0.141 C 
BRANCH   8   9
ATOM      9  N   UNL d   1     -42.423  13.771  20.951  0.00  0.00    -0.199 NA
ATOM     10  C   UNL d   1     -41.596  13.879  21.100  0.00  0.00     0.280 C 
ATOM     11  O   UNL d   1     -41.224  13.440  21.692  0.00  0.00    -0.265 OA
BRANCH  10  12
ATOM     12  C   UNL d   1     -41.146  14.416  20.668  0.00  0.00     0.058 A 
ATOM     13  C   UNL d   1     -40.724  14.181  19.999  0.00  0.00     0.005 A 
ATOM     14  C   UNL d   1     -40.278  14.740  19.580  0.00  0.00     0.000 A 
ATOM     15  C   UNL d   1     -40.254  15.523  19.827  0.00  0.00     0.000 A 
ATOM     16  C   UNL d   1     -40.668  15.756  20.483  0.00  0.00     0.000 A 
ATOM     17  C   UNL d   1     -41.121  15.195  20.911  0.00  0.00     0.005 A 
ENDBRANCH  10  12
ENDBRANCH   8   9
ENDBRANCH   7   8
ENDBRANCH   2   7
BRANCH   3  18
ATOM     18  S   UNL d   1     -45.989  13.644  22.715  0.00  0.00    -0.047 SA
BRANCH  18  19
ATOM     19  C   UNL d   1     -46.752  13.484  22.444  0.00  0.00     0.139 C 
BRANCH  19  20
ATOM     20  N   UNL d   1     -47.388  13.917  22.730  0.00  0.00    -0.199 NA
ATOM     21  C   UNL d   1     -48.126  13.839  22.379  0.00  0.00     0.280 C 
ATOM     22  O   UNL d   1     -48.223  13.320  21.734  0.00  0.00    -0.265 OA
BRANCH  21  23
ATOM     23  C   UNL d   1     -48.766  14.273  22.665  0.00  0.00     0.058 A 
ATOM     24  C   UNL d   1     -49.346  13.906  23.120  0.00  0.00     0.005 A 
ATOM     25  C   UNL d   1     -49.994  14.318  23.416  0.00  0.00     0.000 A 
ATOM     26  C   UNL d   1     -50.074  15.126  23.257  0.00  0.00     0.000 A 
ATOM     27  C   UNL d   1     -49.497  15.527  22.795  0.00  0.00     0.000 A 
ATOM     28  C   UNL d   1     -48.848  15.086  22.506  0.00  0.00     0.005 A 
ENDBRANCH  21  23
ENDBRANCH  19  20
ENDBRANCH  18  19
ENDBRANCH   3  18
TORSDOF 8
ENDMDL
MODEL 2
REMARK VINA RESULT:      -5.5      0.321      6.843
REMARK  8 active torsions:
REMARK  status: ('A' for Active; 'I' for Inactive)
REMARK    1  A    between atoms: S_5  and  C_2 
REMARK       I    between atoms: C_3  and  N_9 
REMARK    2  A    between atoms: C_16  and  C_3 
REMARK       I    between atoms: C_4  and  N_8 
REMARK    3  A    between atoms: C_17  and  C_4 
REMARK    4  A    between atoms: C_10  and  S_5 
REMARK    5  A    between atoms: S_11  and  C_6 
REMARK    6  A    between atoms: N_8  and  C_10 
REMARK    7  A    between atoms: N_9  and  C_12 
REMARK    8  A    between atoms: C_12  and  S_11 
ROOT
ATOM      1  N   UNL d   1     -44.784  13.320  21.952  0.00  0.00    -0.214 NA
ATOM      2  C   UNL d   1     -45.330  13.107  22.532  0.00  0.00     0.196 A 
ATOM      3  C   UNL d   1     -44.164  12.804  21.780  0.00  0.00     0.116 A 
ATOM      4  N   UNL d   1     -45.268  12.386  22.945  0.00  0.00    -0.220 NA
ATOM      5  C   UNL d   1     -44.084  12.093  22.170  0.00  0.00     0.047 A 
ATOM      6  C   UNL d   1     -44.628  11.879  22.751  0.00  0.00     0.103 A 
ENDROOT
BRANCH   2   7
ATOM      7  S   UNL d   1     -45.976  13.596  22.744  0.00  0.00    -0.027 SA
BRANCH   7   8
ATOM      8  C   UNL d   1     -46.720  13.452  22.455  0.00  0.00     0.141 C 
BRANCH   8   9
ATOM      9  N   UNL d   1     -47.352  13.926  22.771  0.00  0.00    -0.199 NA
ATOM     10  C   UNL d   1     -48.116  13.876  22.409  0.00  0.00     0.280 C 
ATOM     11  O   UNL d   1     -48.233  13.375  21.764  0.00  0.00    -0.265 OA
BRANCH  10  12
ATOM     12  C   UNL d   1     -48.754  14.318  22.684  0.00  0.00     0.058 A 
ATOM     13  C   UNL d   1     -48.806  15.130  22.546  0.00  0.00     0.005 A 
ATOM     14  C   UNL d   1     -49.458  15.553  22.833  0.00  0.00     0.000 A 
ATOM     15  C   UNL d   1     -50.051  15.169  23.252  0.00  0.00     0.000 A 
ATOM     16  C   UNL d   1     -50.003  14.372  23.389  0.00  0.00     0.000 A 
ATOM     17  C   UNL d   1     -49.345  13.938  23.101  0.00  0.00     0.005 A 
ENDBRANCH  10  12
ENDBRANCH   8   9
ENDBRANCH   7   8
ENDBRANCH   2   7
BRANCH   3  18
ATOM     18  S   UNL d   1     -43.611  13.011  21.196  0.00  0.00    -0.047 SA
BRANCH  18  19
ATOM     19  C   UNL d   1     -42.843  13.215  21.418  0.00  0.00     0.139 C 
BRANCH  19  20
ATOM     20  N   UNL d   1     -42.426  13.776  20.986  0.00  0.00    -0.199 NA
ATOM     21  C   UNL d   1     -41.623  13.880  21.121  0.00  0.00     0.280 C 
ATOM     22  O   UNL d   1     -41.237  13.415  21.695  0.00  0.00    -0.265 OA
BRANCH  21  23
ATOM     23  C   UNL d   1     -41.202  14.443  20.689  0.00  0.00     0.058 A 
ATOM     24  C   UNL d   1     -41.195  15.229  20.929  0.00  0.00     0.005 A 
ATOM     25  C   UNL d   1     -40.783  15.809  20.515  0.00  0.00     0.000 A 
ATOM     26  C   UNL d   1     -40.360  15.604  19.834  0.00  0.00     0.000 A 
ATOM     27  C   UNL d   1     -40.349  14.807  19.565  0.00  0.00     0.000 A 
ATOM     28  C   UNL d   1     -40.777  14.237  20.004  0.00  0.00     0.005 A 
ENDBRANCH  21  23
ENDBRANCH  19  20
ENDBRANCH  18  19
ENDBRANCH   3  18
TORSDOF 8
ENDMDL
