MODEL 1
REMARK VINA RESULT:      -2.9      0.000      0.000
REMARK  9 active torsions:
REMARK  status: ('A' for Active; 'I' for Inactive)
REMARK    1  A    between atoms: C_27  and  N_1 
REMARK    2  A    between atoms: S_11  and  C_2 
REMARK    3  A    between atoms: C_28  and  S_11 
REMARK    4  A    between atoms: C_18  and  C_28 
REMARK    5  A    between atoms: C_19  and  C_35 
REMARK       I    between atoms: N_23  and  C_19 
REMARK    6  A    between atoms: C_32  and  N_23 
REMARK    7  A    between atoms: C_34  and  C_27 
REMARK    8  A    between atoms: C_30  and  C_32 
REMARK    9  A    between atoms: C_35  and  C_34 
ROOT
ATOM      1  N   UNL d   1      33.125  21.249 -21.860  0.00  0.00    -0.253 N 
ATOM      2  C   UNL d   1      33.090  21.999 -22.197  0.00  0.00     0.182 A 
ATOM      3  C   UNL d   1      33.044  21.164 -21.036  0.00  0.00     0.268 A 
ATOM      4  C   UNL d   1      32.931  21.826 -20.557  0.00  0.00     0.076 A 
ATOM      5  N   UNL d   1      32.976  22.653 -21.705  0.00  0.00    -0.222 NA
ATOM      6  C   UNL d   1      32.897  22.576 -20.894  0.00  0.00     0.090 A 
ATOM      7  C   UNL d   1      32.851  21.738 -19.737  0.00  0.00     0.033 A 
ATOM      8  C   UNL d   1      32.781  23.233 -20.394  0.00  0.00     0.046 A 
ATOM      9  C   UNL d   1      32.735  22.409 -19.239  0.00  0.00     0.119 A 
ATOM     10  C   UNL d   1      32.700  23.159 -19.576  0.00  0.00     0.121 A 
ATOM     11  O   UNL d   1      33.079  20.413 -20.700  0.00  0.00    -0.267 OA
ATOM     12  O   UNL d   1      32.637  22.503 -18.409  0.00  0.00    -0.300 OA
ATOM     13  O   UNL d   1      32.583  23.702 -18.953  0.00  0.00    -0.299 OA
ATOM     14  C   UNL d   1      32.542  23.305 -18.228  0.00  0.00     0.304 A 
ENDROOT
BRANCH   1  15
ATOM     15  C   UNL d   1      33.241  20.579 -22.359  0.00  0.00     0.085 C 
BRANCH  15  16
ATOM     16  C   UNL d   1      32.869  19.877 -22.175  0.00  0.00     0.024 C 
BRANCH  16  17
ATOM     17  C   UNL d   1      32.733  19.320 -22.775  0.00  0.00     0.064 C 
BRANCH  17  18
ATOM     18  C   UNL d   1      32.818  18.516 -22.621  0.00  0.00     0.279 C 
ATOM     19  N   UNL d   1      32.489  17.962 -23.138  0.00  0.00    -0.206 NA
ATOM     20  O   UNL d   1      33.228  18.264 -21.956  0.00  0.00    -0.265 OA
BRANCH  19  21
ATOM     21  C   UNL d   1      32.077  18.214 -23.805  0.00  0.00     0.102 C 
BRANCH  21  22
ATOM     22  C   UNL d   1      31.509  17.724 -24.141  0.00  0.00     0.021 A 
ATOM     23  C   UNL d   1      31.458  16.937 -23.897  0.00  0.00     0.028 A 
ATOM     24  C   UNL d   1      30.891  16.448 -24.233  0.00  0.00     0.119 A 
ATOM     25  O   UNL d   1      30.705  15.653 -24.108  0.00  0.00    -0.300 OA
ATOM     26  C   UNL d   1      30.378  16.739 -24.807  0.00  0.00     0.119 A 
ATOM     27  C   UNL d   1      30.079  15.459 -24.606  0.00  0.00     0.304 A 
ATOM     28  O   UNL d   1      29.876  16.130 -25.039  0.00  0.00    -0.300 OA
ATOM     29  C   UNL d   1      30.436  17.528 -25.045  0.00  0.00     0.026 A 
ATOM     30  C   UNL d   1      31.000  18.015 -24.712  0.00  0.00     0.004 A 
ENDBRANCH  21  22
ENDBRANCH  19  21
ENDBRANCH  17  18
ENDBRANCH  16  17
ENDBRANCH  15  16
ENDBRANCH   1  15
BRANCH   2  31
ATOM     31  S   UNL d   1      33.173  22.068 -23.027  0.00  0.00    -0.044 SA
BRANCH  31  32
ATOM     32  C   UNL d   1      33.196  22.824 -23.373  0.00  0.00     0.102 C 
BRANCH  32  33
ATOM     33  C   UNL d   1      32.915  22.931 -24.143  0.00  0.00     0.303 C 
ATOM     34  O   UNL d   1      32.399  23.550 -24.307  0.00  0.00    -0.263 OA
ATOM     35  N   UNL d   1      33.157  22.415 -24.735  0.00  0.00    -0.102 N 
ENDBRANCH  32  33
ENDBRANCH  31  32
ENDBRANCH   2  31
TORSDOF 9
ENDMDL
