MODEL 1
REMARK VINA RESULT:      64.3      0.000      0.000
REMARK  7 active torsions:
REMARK  status: ('A' for Active; 'I' for Inactive)
REMARK       I    between atoms: C_3  and  N_1 
REMARK    1  A    between atoms: C_4  and  N_2 
REMARK    2  A    between atoms: C_15  and  C_3 
REMARK    3  A    between atoms: C_12  and  C_4 
REMARK    4  A    between atoms: C_13  and  C_4 
REMARK    5  A    between atoms: C_5  and  C_17 
REMARK    6  A    between atoms: C_16  and  C_15 
REMARK    7  A    between atoms: C_17  and  C_16 
ROOT
ATOM      1  N   UNL d   1     -49.359  27.448  34.157  0.00  0.00    -0.269 N 
ATOM      2  N   UNL d   1     -50.323  26.118  33.872  0.00  0.00    -0.301 N 
ATOM      3  C   UNL d   1     -48.881  28.104  34.306  0.00  0.00     0.265 C 
ATOM      4  C   UNL d   1     -49.416  26.843  34.728  0.00  0.00     0.102 A 
ATOM      5  C   UNL d   1     -49.788  27.381  33.445  0.00  0.00     0.102 A 
ATOM      6  C   UNL d   1     -50.268  26.717  33.306  0.00  0.00     0.100 A 
ATOM      7  C   UNL d   1     -49.902  26.169  34.586  0.00  0.00     0.100 A 
ATOM      8  O   UNL d   1     -48.832  28.693  33.739  0.00  0.00    -0.267 OA
ENDROOT
BRANCH   2   9
ATOM      9  C   UNL d   1     -50.798  25.459  33.733  0.00  0.00     0.064 C 
BRANCH   9  10
ATOM     10  C   UNL d   1     -51.627  25.541  33.673  0.00  0.00     0.016 A 
ATOM     11  C   UNL d   1     -52.115  24.926  33.922  0.00  0.00     0.001 A 
ATOM     12  C   UNL d   1     -52.928  25.018  33.858  0.00  0.00     0.000 A 
ATOM     13  C   UNL d   1     -53.256  25.710  33.552  0.00  0.00     0.000 A 
ATOM     14  C   UNL d   1     -52.758  26.319  33.306  0.00  0.00     0.000 A 
ATOM     15  C   UNL d   1     -51.935  26.240  33.364  0.00  0.00     0.001 A 
ENDBRANCH   9  10
BRANCH   9  16
ATOM     16  C   UNL d   1     -50.455  24.715  33.653  0.00  0.00     0.016 A 
ATOM     17  C   UNL d   1     -50.886  24.043  33.835  0.00  0.00     0.001 A 
ATOM     18  C   UNL d   1     -50.548  23.293  33.757  0.00  0.00     0.000 A 
ATOM     19  C   UNL d   1     -49.763  23.226  33.492  0.00  0.00     0.000 A 
ATOM     20  C   UNL d   1     -49.327  23.909  33.309  0.00  0.00     0.000 A 
ATOM     21  C   UNL d   1     -49.676  24.648  33.391  0.00  0.00     0.001 A 
ENDBRANCH   9  16
ENDBRANCH   2   9
BRANCH   3  22
ATOM     22  C   UNL d   1     -48.464  28.162  35.005  0.00  0.00     0.061 C 
BRANCH  22  23
ATOM     23  C   UNL d   1     -48.196  28.893  35.258  0.00  0.00     0.011 C 
BRANCH  23  24
ATOM     24  C   UNL d   1     -47.696  28.945  35.905  0.00  0.00     0.070 C 
BRANCH  24  25
ATOM     25  C   UNL d   1     -47.514  29.677  36.224  0.00  0.00     0.211 C 
ATOM     26  O   UNL d   1     -47.354  29.749  37.017  0.00  0.00    -0.644 OA
ATOM     27  O   UNL d   1     -47.493  30.344  35.733  0.00  0.00    -0.644 OA
ENDBRANCH  24  25
ENDBRANCH  23  24
ENDBRANCH  22  23
ENDBRANCH   3  22
TORSDOF 7
ENDMDL
