MODEL 1
REMARK VINA RESULT:      -2.7      0.000      0.000
REMARK  4 active torsions:
REMARK  status: ('A' for Active; 'I' for Inactive)
REMARK    1  A    between atoms: C_5  and  C_1 
REMARK    2  A    between atoms: C_4  and  C_2 
REMARK    3  A    between atoms: C_12  and  C_4 
REMARK    4  A    between atoms: C_13  and  C_5 
ROOT
ATOM      1  C   UNL d   1      30.964  16.442 -24.100  0.00  0.00     0.039 A 
ATOM      2  C   UNL d   1      32.088  17.426 -24.012  0.00  0.00     0.039 A 
ATOM      3  C   UNL d   1      31.762  16.639 -23.844  0.00  0.00     0.196 A 
ATOM      4  C   UNL d   1      30.485  17.027 -24.524  0.00  0.00     0.003 A 
ATOM      5  C   UNL d   1      31.609  18.011 -24.436  0.00  0.00     0.003 A 
ATOM      6  O   UNL d   1      32.219  16.082 -23.440  0.00  0.00    -0.287 OA
ATOM      7  C   UNL d   1      30.805  17.808 -24.693  0.00  0.00     0.000 A 
ATOM      8  C   UNL d   1      30.349  18.365 -25.097  0.00  0.00     0.000 C 
ENDROOT
BRANCH   1   9
ATOM      9  C   UNL d   1      30.648  15.694 -23.943  0.00  0.00     0.005 C 
BRANCH   9  10
ATOM     10  C   UNL d   1      29.948  15.616 -23.523  0.00  0.00     0.019 A 
ATOM     11  C   UNL d   1      29.965  15.620 -22.700  0.00  0.00     0.099 A 
ATOM     12  N   UNL d   1      29.265  15.542 -22.276  0.00  0.00    -0.242 NA
ATOM     13  C   UNL d   1      28.543  15.459 -22.673  0.00  0.00     0.099 A 
ATOM     14  C   UNL d   1      28.528  15.456 -23.501  0.00  0.00     0.021 A 
ATOM     15  C   UNL d   1      29.231  15.534 -23.921  0.00  0.00     0.003 A 
ENDBRANCH   9  10
ENDBRANCH   1   9
BRANCH   2  16
ATOM     16  C   UNL d   1      32.851  17.623 -23.770  0.00  0.00     0.005 C 
BRANCH  16  17
ATOM     17  C   UNL d   1      32.981  18.263 -23.267  0.00  0.00     0.019 A 
ATOM     18  C   UNL d   1      32.981  18.147 -22.452  0.00  0.00     0.099 A 
ATOM     19  N   UNL d   1      33.109  18.780 -21.945  0.00  0.00    -0.242 NA
ATOM     20  C   UNL d   1      33.241  19.539 -22.255  0.00  0.00     0.099 A 
ATOM     21  C   UNL d   1      33.241  19.650 -23.072  0.00  0.00     0.021 A 
ATOM     22  C   UNL d   1      33.110  19.010 -23.574  0.00  0.00     0.003 A 
ENDBRANCH  16  17
ENDBRANCH   2  16
TORSDOF 4
ENDMDL
MODEL 2
REMARK VINA RESULT:      -2.3      1.127      4.260
REMARK  4 active torsions:
REMARK  status: ('A' for Active; 'I' for Inactive)
REMARK    1  A    between atoms: C_5  and  C_1 
REMARK    2  A    between atoms: C_4  and  C_2 
REMARK    3  A    between atoms: C_12  and  C_4 
REMARK    4  A    between atoms: C_13  and  C_5 
ROOT
ATOM      1  C   UNL d   1      32.193  17.440 -24.130  0.00  0.00     0.039 A 
ATOM      2  C   UNL d   1      30.882  16.791 -24.445  0.00  0.00     0.039 A 
ATOM      3  C   UNL d   1      31.433  17.456 -24.534  0.00  0.00     0.196 A 
ATOM      4  C   UNL d   1      32.410  16.761 -23.637  0.00  0.00     0.003 A 
ATOM      5  C   UNL d   1      31.100  16.113 -23.952  0.00  0.00     0.003 A 
ATOM      6  O   UNL d   1      31.226  18.103 -25.004  0.00  0.00    -0.287 OA
ATOM      7  C   UNL d   1      31.867  16.100 -23.547  0.00  0.00     0.000 A 
ATOM      8  C   UNL d   1      32.074  15.453 -23.077  0.00  0.00     0.000 C 
ENDROOT
BRANCH   1   9
ATOM      9  C   UNL d   1      32.722  18.071 -24.211  0.00  0.00     0.005 C 
BRANCH   9  10
ATOM     10  C   UNL d   1      32.868  18.576 -23.581  0.00  0.00     0.019 A 
ATOM     11  C   UNL d   1      32.789  19.388 -23.685  0.00  0.00     0.099 A 
ATOM     12  N   UNL d   1      32.936  19.897 -23.055  0.00  0.00    -0.242 NA
ATOM     13  C   UNL d   1      33.162  19.595 -22.318  0.00  0.00     0.099 A 
ATOM     14  C   UNL d   1      33.241  18.777 -22.216  0.00  0.00     0.021 A 
ATOM     15  C   UNL d   1      33.094  18.273 -22.848  0.00  0.00     0.003 A 
ENDBRANCH   9  10
ENDBRANCH   1   9
BRANCH   2  16
ATOM     16  C   UNL d   1      30.152  16.799 -24.828  0.00  0.00     0.005 C 
BRANCH  16  17
ATOM     17  C   UNL d   1      29.457  16.645 -24.412  0.00  0.00     0.019 A 
ATOM     18  C   UNL d   1      29.063  17.261 -24.033  0.00  0.00     0.099 A 
ATOM     19  N   UNL d   1      28.371  17.115 -23.617  0.00  0.00    -0.242 NA
ATOM     20  C   UNL d   1      28.066  16.343 -23.578  0.00  0.00     0.099 A 
ATOM     21  C   UNL d   1      28.465  15.729 -23.958  0.00  0.00     0.021 A 
ATOM     22  C   UNL d   1      29.159  15.884 -24.374  0.00  0.00     0.003 A 
ENDBRANCH  16  17
ENDBRANCH   2  16
TORSDOF 4
ENDMDL
MODEL 3
REMARK VINA RESULT:      -2.2      2.513      5.542
REMARK  4 active torsions:
REMARK  status: ('A' for Active; 'I' for Inactive)
REMARK    1  A    between atoms: C_5  and  C_1 
REMARK    2  A    between atoms: C_4  and  C_2 
REMARK    3  A    between atoms: C_12  and  C_4 
REMARK    4  A    between atoms: C_13  and  C_5 
ROOT
ATOM      1  C   UNL d   1      33.239  21.209 -22.297  0.00  0.00     0.039 A 
ATOM      2  C   UNL d   1      33.234  19.883 -22.990  0.00  0.00     0.039 A 
ATOM      3  C   UNL d   1      33.236  20.751 -23.026  0.00  0.00     0.196 A 
ATOM      4  C   UNL d   1      33.241  20.808 -21.529  0.00  0.00     0.003 A 
ATOM      5  C   UNL d   1      33.236  19.482 -22.222  0.00  0.00     0.003 A 
ATOM      6  O   UNL d   1      33.234  21.133 -23.758  0.00  0.00    -0.287 OA
ATOM      7  C   UNL d   1      33.239  19.948 -21.490  0.00  0.00     0.000 A 
ATOM      8  C   UNL d   1      33.241  19.566 -20.758  0.00  0.00     0.000 C 
ENDROOT
BRANCH   1   9
ATOM      9  C   UNL d   1      33.241  22.036 -22.325  0.00  0.00     0.005 C 
BRANCH   9  10
ATOM     10  C   UNL d   1      32.859  22.474 -21.745  0.00  0.00     0.019 A 
ATOM     11  C   UNL d   1      32.095  22.748 -21.880  0.00  0.00     0.099 A 
ATOM     12  N   UNL d   1      31.710  23.187 -21.302  0.00  0.00    -0.242 NA
ATOM     13  C   UNL d   1      32.088  23.355 -20.584  0.00  0.00     0.099 A 
ATOM     14  C   UNL d   1      32.857  23.079 -20.451  0.00  0.00     0.021 A 
ATOM     15  C   UNL d   1      33.238  22.640 -21.032  0.00  0.00     0.003 A 
ENDBRANCH   9  10
ENDBRANCH   1   9
BRANCH   2  16
ATOM     16  C   UNL d   1      33.231  19.436 -23.683  0.00  0.00     0.005 C 
BRANCH  16  17
ATOM     17  C   UNL d   1      32.837  18.712 -23.714  0.00  0.00     0.019 A 
ATOM     18  C   UNL d   1      32.036  18.691 -23.900  0.00  0.00     0.099 A 
ATOM     19  N   UNL d   1      31.639  17.974 -23.933  0.00  0.00    -0.242 NA
ATOM     20  C   UNL d   1      32.046  17.266 -23.779  0.00  0.00     0.099 A 
ATOM     21  C   UNL d   1      32.850  17.292 -23.594  0.00  0.00     0.021 A 
ATOM     22  C   UNL d   1      33.241  18.017 -23.563  0.00  0.00     0.003 A 
ENDBRANCH  16  17
ENDBRANCH   2  16
TORSDOF 4
ENDMDL
MODEL 4
REMARK VINA RESULT:      -2.0      1.192      1.748
REMARK  4 active torsions:
REMARK  status: ('A' for Active; 'I' for Inactive)
REMARK    1  A    between atoms: C_5  and  C_1 
REMARK    2  A    between atoms: C_4  and  C_2 
REMARK    3  A    between atoms: C_12  and  C_4 
REMARK    4  A    between atoms: C_13  and  C_5 
ROOT
ATOM      1  C   UNL d   1      30.279  16.892 -24.422  0.00  0.00     0.039 A 
ATOM      2  C   UNL d   1      31.675  17.417 -24.311  0.00  0.00     0.039 A 
ATOM      3  C   UNL d   1      30.862  17.499 -24.602  0.00  0.00     0.196 A 
ATOM      4  C   UNL d   1      30.503  16.198 -23.952  0.00  0.00     0.003 A 
ATOM      5  C   UNL d   1      31.899  16.724 -23.841  0.00  0.00     0.003 A 
ATOM      6  O   UNL d   1      30.649  18.160 -25.050  0.00  0.00    -0.287 OA
ATOM      7  C   UNL d   1      31.309  16.113 -23.662  0.00  0.00     0.000 A 
ATOM      8  C   UNL d   1      31.522  15.453 -23.214  0.00  0.00     0.000 C 
ENDROOT
BRANCH   1   9
ATOM      9  C   UNL d   1      29.502  16.964 -24.696  0.00  0.00     0.005 C 
BRANCH   9  10
ATOM     10  C   UNL d   1      28.874  16.680 -24.251  0.00  0.00     0.019 A 
ATOM     11  C   UNL d   1      28.562  15.937 -24.418  0.00  0.00     0.099 A 
ATOM     12  N   UNL d   1      27.933  15.649 -23.975  0.00  0.00    -0.242 NA
ATOM     13  C   UNL d   1      27.611  16.103 -23.361  0.00  0.00     0.099 A 
ATOM     14  C   UNL d   1      27.927  16.850 -23.195  0.00  0.00     0.021 A 
ATOM     15  C   UNL d   1      28.556  17.134 -23.641  0.00  0.00     0.003 A 
ENDBRANCH   9  10
ENDBRANCH   1   9
BRANCH   2  16
ATOM     16  C   UNL d   1      32.240  17.994 -24.479  0.00  0.00     0.005 C 
BRANCH  16  17
ATOM     17  C   UNL d   1      32.574  18.444 -23.874  0.00  0.00     0.019 A 
ATOM     18  C   UNL d   1      32.580  19.265 -23.932  0.00  0.00     0.099 A 
ATOM     19  N   UNL d   1      32.910  19.719 -23.334  0.00  0.00    -0.242 NA
ATOM     20  C   UNL d   1      33.241  19.350 -22.667  0.00  0.00     0.099 A 
ATOM     21  C   UNL d   1      33.233  18.526 -22.614  0.00  0.00     0.021 A 
ATOM     22  C   UNL d   1      32.899  18.078 -23.218  0.00  0.00     0.003 A 
ENDBRANCH  16  17
ENDBRANCH   2  16
TORSDOF 4
ENDMDL
MODEL 5
REMARK VINA RESULT:      -2.0      2.281      4.016
REMARK  4 active torsions:
REMARK  status: ('A' for Active; 'I' for Inactive)
REMARK    1  A    between atoms: C_5  and  C_1 
REMARK    2  A    between atoms: C_4  and  C_2 
REMARK    3  A    between atoms: C_12  and  C_4 
REMARK    4  A    between atoms: C_13  and  C_5 
ROOT
ATOM      1  C   UNL d   1      33.237  19.298 -22.730  0.00  0.00     0.039 A 
ATOM      2  C   UNL d   1      33.231  20.627 -22.042  0.00  0.00     0.039 A 
ATOM      3  C   UNL d   1      33.234  19.760 -22.003  0.00  0.00     0.196 A 
ATOM      4  C   UNL d   1      33.238  19.697 -23.500  0.00  0.00     0.003 A 
ATOM      5  C   UNL d   1      33.232  21.025 -22.812  0.00  0.00     0.003 A 
ATOM      6  O   UNL d   1      33.233  19.380 -21.270  0.00  0.00    -0.287 OA
ATOM      7  C   UNL d   1      33.235  20.556 -23.542  0.00  0.00     0.000 A 
ATOM      8  C   UNL d   1      33.236  20.936 -24.276  0.00  0.00     0.000 C 
ENDROOT
BRANCH   1   9
ATOM      9  C   UNL d   1      33.240  18.472 -22.699  0.00  0.00     0.005 C 
BRANCH   9  10
ATOM     10  C   UNL d   1      32.817  18.032 -23.248  0.00  0.00     0.019 A 
ATOM     11  C   UNL d   1      33.208  17.474 -23.709  0.00  0.00     0.099 A 
ATOM     12  N   UNL d   1      32.787  17.031 -24.260  0.00  0.00    -0.242 NA
ATOM     13  C   UNL d   1      31.972  17.145 -24.353  0.00  0.00     0.099 A 
ATOM     14  C   UNL d   1      31.581  17.707 -23.888  0.00  0.00     0.021 A 
ATOM     15  C   UNL d   1      32.005  18.147 -23.338  0.00  0.00     0.003 A 
ENDBRANCH   9  10
ENDBRANCH   1   9
BRANCH   2  16
ATOM     16  C   UNL d   1      33.228  21.076 -21.351  0.00  0.00     0.005 C 
BRANCH  16  17
ATOM     17  C   UNL d   1      32.860  21.814 -21.331  0.00  0.00     0.019 A 
ATOM     18  C   UNL d   1      33.230  22.464 -21.674  0.00  0.00     0.099 A 
ATOM     19  N   UNL d   1      32.870  23.201 -21.657  0.00  0.00    -0.242 NA
ATOM     20  C   UNL d   1      32.128  23.292 -21.293  0.00  0.00     0.099 A 
ATOM     21  C   UNL d   1      31.761  22.638 -20.950  0.00  0.00     0.021 A 
ATOM     22  C   UNL d   1      32.130  21.902 -20.971  0.00  0.00     0.003 A 
ENDBRANCH  16  17
ENDBRANCH   2  16
TORSDOF 4
ENDMDL
MODEL 6
REMARK VINA RESULT:      -0.3      1.673      2.694
REMARK  4 active torsions:
REMARK  status: ('A' for Active; 'I' for Inactive)
REMARK    1  A    between atoms: C_5  and  C_1 
REMARK    2  A    between atoms: C_4  and  C_2 
REMARK    3  A    between atoms: C_12  and  C_4 
REMARK    4  A    between atoms: C_13  and  C_5 
ROOT
ATOM      1  C   UNL d   1      32.951  17.884 -23.534  0.00  0.00     0.039 A 
ATOM      2  C   UNL d   1      33.141  19.100 -22.684  0.00  0.00     0.039 A 
ATOM      3  C   UNL d   1      33.053  18.240 -22.757  0.00  0.00     0.196 A 
ATOM      4  C   UNL d   1      32.937  18.382 -24.244  0.00  0.00     0.003 A 
ATOM      5  C   UNL d   1      33.127  19.598 -23.393  0.00  0.00     0.003 A 
ATOM      6  O   UNL d   1      33.066  17.765 -22.081  0.00  0.00    -0.287 OA
ATOM      7  C   UNL d   1      33.025  19.236 -24.175  0.00  0.00     0.000 A 
ATOM      8  C   UNL d   1      33.011  19.710 -24.851  0.00  0.00     0.000 C 
ENDROOT
BRANCH   1   9
ATOM      9  C   UNL d   1      32.866  17.065 -23.610  0.00  0.00     0.005 C 
BRANCH   9  10
ATOM     10  C   UNL d   1      32.206  16.746 -23.978  0.00  0.00     0.019 A 
ATOM     11  C   UNL d   1      31.477  16.770 -23.596  0.00  0.00     0.099 A 
ATOM     12  N   UNL d   1      30.814  16.451 -23.961  0.00  0.00    -0.242 NA
ATOM     13  C   UNL d   1      30.874  16.105 -24.711  0.00  0.00     0.099 A 
ATOM     14  C   UNL d   1      31.609  16.082 -25.093  0.00  0.00     0.021 A 
ATOM     15  C   UNL d   1      32.270  16.402 -24.724  0.00  0.00     0.003 A 
ENDBRANCH   9  10
ENDBRANCH   1   9
BRANCH   2  16
ATOM     16  C   UNL d   1      33.239  19.449 -21.943  0.00  0.00     0.005 C 
BRANCH  16  17
ATOM     17  C   UNL d   1      33.005  20.229 -21.812  0.00  0.00     0.019 A 
ATOM     18  C   UNL d   1      33.071  20.783 -22.417  0.00  0.00     0.099 A 
ATOM     19  N   UNL d   1      32.840  21.560 -22.292  0.00  0.00    -0.242 NA
ATOM     20  C   UNL d   1      32.539  21.790 -21.553  0.00  0.00     0.099 A 
ATOM     21  C   UNL d   1      32.475  21.232 -20.949  0.00  0.00     0.021 A 
ATOM     22  C   UNL d   1      32.709  20.453 -21.082  0.00  0.00     0.003 A 
ENDBRANCH  16  17
ENDBRANCH   2  16
TORSDOF 4
ENDMDL
