MODEL 1
REMARK VINA RESULT:       6.0      0.000      0.000
REMARK  1 active torsions:
REMARK  status: ('A' for Active; 'I' for Inactive)
REMARK    1  A    between atoms: C_8  and  C_3 
ROOT
ATOM      1  N   UNL d   1     -51.879  26.026  33.313  0.00  0.00    -0.145 NA
ATOM      2  N   UNL d   1     -51.383  26.697  33.314  0.00  0.00    -0.106 NA
ATOM      3  C   UNL d   1     -51.549  25.275  33.317  0.00  0.00     0.103 A 
ATOM      4  C   UNL d   1     -50.564  26.605  33.319  0.00  0.00     0.297 A 
ATOM      5  C   UNL d   1     -50.721  25.189  33.322  0.00  0.00     0.026 A 
ATOM      6  C   UNL d   1     -50.241  25.844  33.323  0.00  0.00     0.066 A 
ATOM      7  O   UNL d   1     -50.081  27.264  33.319  0.00  0.00    -0.264 OA
ENDROOT
BRANCH   3   8
ATOM      8  C   UNL d   1     -52.021  24.610  33.317  0.00  0.00     0.019 A 
ATOM      9  C   UNL d   1     -52.847  24.706  33.317  0.00  0.00     0.002 A 
ATOM     10  C   UNL d   1     -53.335  24.036  33.317  0.00  0.00     0.000 A 
ATOM     11  C   UNL d   1     -52.997  23.280  33.316  0.00  0.00     0.000 A 
ATOM     12  C   UNL d   1     -52.179  23.189  33.315  0.00  0.00     0.000 A 
ATOM     13  C   UNL d   1     -51.697  23.858  33.316  0.00  0.00     0.002 A 
ENDBRANCH   3   8
TORSDOF 1
ENDMDL
MODEL 2
REMARK VINA RESULT:       7.6      1.860      3.136
REMARK  1 active torsions:
REMARK  status: ('A' for Active; 'I' for Inactive)
REMARK    1  A    between atoms: C_8  and  C_3 
ROOT
ATOM      1  N   UNL d   1     -51.474  23.831  33.358  0.00  0.00    -0.145 NA
ATOM      2  N   UNL d   1     -52.149  23.341  33.357  0.00  0.00    -0.106 NA
ATOM      3  C   UNL d   1     -51.562  24.646  33.337  0.00  0.00     0.103 A 
ATOM      4  C   UNL d   1     -52.902  23.675  33.334  0.00  0.00     0.297 A 
ATOM      5  C   UNL d   1     -52.325  24.978  33.314  0.00  0.00     0.026 A 
ATOM      6  C   UNL d   1     -52.980  24.498  33.313  0.00  0.00     0.066 A 
ATOM      7  O   UNL d   1     -53.561  23.193  33.332  0.00  0.00    -0.264 OA
ENDROOT
BRANCH   3   8
ATOM      8  C   UNL d   1     -50.911  25.138  33.338  0.00  0.00     0.019 A 
ATOM      9  C   UNL d   1     -51.031  25.960  33.371  0.00  0.00     0.002 A 
ATOM     10  C   UNL d   1     -50.375  26.467  33.372  0.00  0.00     0.000 A 
ATOM     11  C   UNL d   1     -49.609  26.152  33.342  0.00  0.00     0.000 A 
ATOM     12  C   UNL d   1     -49.495  25.337  33.310  0.00  0.00     0.000 A 
ATOM     13  C   UNL d   1     -50.150  24.836  33.308  0.00  0.00     0.002 A 
ENDBRANCH   3   8
TORSDOF 1
ENDMDL
