MODEL 1
REMARK VINA RESULT:      56.5      0.000      0.000
REMARK  3 active torsions:
REMARK  status: ('A' for Active; 'I' for Inactive)
REMARK    1  A    between atoms: C_6  and  N_1 
REMARK    2  A    between atoms: C_5  and  C_6 
REMARK       I    between atoms: N_8  and  C_5 
REMARK    3  A    between atoms: C_10  and  N_8 
ROOT
ATOM      1  C   UNL d   1     -49.218  28.164  34.114  0.00  0.00     0.297 C 
ATOM      2  N   UNL d   1     -49.419  27.888  33.358  0.00  0.00    -0.207 NA
ATOM      3  O   UNL d   1     -49.523  27.791  34.780  0.00  0.00    -0.264 OA
ENDROOT
BRANCH   1   4
ATOM      4  C   UNL d   1     -48.715  28.810  34.195  0.00  0.00     0.145 C 
BRANCH   4   5
ATOM      5  N   UNL d   1     -48.344  28.957  34.913  0.00  0.00    -0.282 N 
ATOM      6  C   UNL d   1     -48.307  28.444  35.561  0.00  0.00     0.183 A 
ATOM      7  N   UNL d   1     -47.883  28.819  36.159  0.00  0.00    -0.224 NA
ATOM      8  C   UNL d   1     -47.654  29.566  35.886  0.00  0.00     0.099 A 
ATOM      9  C   UNL d   1     -47.942  29.649  35.114  0.00  0.00     0.083 A 
ATOM     10  C   UNL d   1     -47.226  30.173  36.240  0.00  0.00     0.021 A 
ATOM     11  C   UNL d   1     -47.793  30.348  34.705  0.00  0.00     0.019 A 
ATOM     12  C   UNL d   1     -47.369  30.956  35.046  0.00  0.00     0.002 A 
ATOM     13  C   UNL d   1     -47.078  30.875  35.824  0.00  0.00     0.002 A 
ENDBRANCH   4   5
ENDBRANCH   1   4
BRANCH   2  14
ATOM     14  C   UNL d   1     -49.929  27.236  33.345  0.00  0.00     0.085 A 
ATOM     15  C   UNL d   1     -49.620  26.478  33.352  0.00  0.00     0.019 A 
ATOM     16  C   UNL d   1     -50.122  25.824  33.339  0.00  0.00     0.002 A 
ATOM     17  C   UNL d   1     -49.810  25.060  33.346  0.00  0.00     0.000 C 
ATOM     18  C   UNL d   1     -50.947  25.939  33.319  0.00  0.00     0.000 A 
ATOM     19  C   UNL d   1     -51.255  26.702  33.313  0.00  0.00     0.002 A 
ATOM     20  C   UNL d   1     -51.457  25.287  33.306  0.00  0.00     0.000 C 
ATOM     21  C   UNL d   1     -50.745  27.355  33.326  0.00  0.00     0.019 A 
ENDBRANCH   2  14
TORSDOF 3
ENDMDL
MODEL 2
REMARK VINA RESULT:      56.6      0.955      4.879
REMARK  3 active torsions:
REMARK  status: ('A' for Active; 'I' for Inactive)
REMARK    1  A    between atoms: C_6  and  N_1 
REMARK    2  A    between atoms: C_5  and  C_6 
REMARK       I    between atoms: N_8  and  C_5 
REMARK    3  A    between atoms: C_10  and  N_8 
ROOT
ATOM      1  C   UNL d   1     -49.171  27.094  34.075  0.00  0.00     0.297 C 
ATOM      2  N   UNL d   1     -48.950  27.880  33.930  0.00  0.00    -0.207 NA
ATOM      3  O   UNL d   1     -49.069  26.771  34.823  0.00  0.00    -0.264 OA
ENDROOT
BRANCH   1   4
ATOM      4  C   UNL d   1     -49.491  26.640  33.467  0.00  0.00     0.145 C 
BRANCH   4   5
ATOM      5  N   UNL d   1     -50.302  26.515  33.428  0.00  0.00    -0.282 N 
ATOM      6  C   UNL d   1     -50.888  27.098  33.420  0.00  0.00     0.183 A 
ATOM      7  N   UNL d   1     -51.621  26.724  33.377  0.00  0.00    -0.224 NA
ATOM      8  C   UNL d   1     -51.493  25.906  33.358  0.00  0.00     0.099 A 
ATOM      9  C   UNL d   1     -50.674  25.780  33.390  0.00  0.00     0.083 A 
ATOM     10  C   UNL d   1     -52.012  25.269  33.316  0.00  0.00     0.021 A 
ATOM     11  C   UNL d   1     -50.388  25.008  33.379  0.00  0.00     0.019 A 
ATOM     12  C   UNL d   1     -50.895  24.369  33.338  0.00  0.00     0.002 A 
ATOM     13  C   UNL d   1     -51.719  24.494  33.306  0.00  0.00     0.002 A 
ENDBRANCH   4   5
ENDBRANCH   1   4
BRANCH   2  14
ATOM     14  C   UNL d   1     -48.635  28.282  34.582  0.00  0.00     0.085 A 
ATOM     15  C   UNL d   1     -48.108  28.898  34.465  0.00  0.00     0.019 A 
ATOM     16  C   UNL d   1     -47.791  29.302  35.109  0.00  0.00     0.002 A 
ATOM     17  C   UNL d   1     -47.260  29.923  34.989  0.00  0.00     0.000 C 
ATOM     18  C   UNL d   1     -48.010  29.081  35.882  0.00  0.00     0.000 A 
ATOM     19  C   UNL d   1     -48.540  28.463  35.997  0.00  0.00     0.002 A 
ATOM     20  C   UNL d   1     -47.695  29.484  36.533  0.00  0.00     0.000 C 
ATOM     21  C   UNL d   1     -48.855  28.060  35.345  0.00  0.00     0.019 A 
ENDBRANCH   2  14
TORSDOF 3
ENDMDL
MODEL 3
REMARK VINA RESULT:      57.7      0.776      4.784
REMARK  3 active torsions:
REMARK  status: ('A' for Active; 'I' for Inactive)
REMARK    1  A    between atoms: C_6  and  N_1 
REMARK    2  A    between atoms: C_5  and  C_6 
REMARK       I    between atoms: N_8  and  C_5 
REMARK    3  A    between atoms: C_10  and  N_8 
ROOT
ATOM      1  C   UNL d   1     -49.223  28.010  34.145  0.00  0.00     0.297 C 
ATOM      2  N   UNL d   1     -48.933  28.786  34.098  0.00  0.00    -0.207 NA
ATOM      3  O   UNL d   1     -49.032  27.540  34.791  0.00  0.00    -0.264 OA
ENDROOT
BRANCH   1   4
ATOM      4  C   UNL d   1     -49.701  27.715  33.544  0.00  0.00     0.145 C 
BRANCH   4   5
ATOM      5  N   UNL d   1     -49.803  26.904  33.459  0.00  0.00    -0.282 N 
ATOM      6  C   UNL d   1     -49.205  26.339  33.381  0.00  0.00     0.183 A 
ATOM      7  N   UNL d   1     -49.560  25.599  33.311  0.00  0.00    -0.224 NA
ATOM      8  C   UNL d   1     -50.380  25.701  33.346  0.00  0.00     0.099 A 
ATOM      9  C   UNL d   1     -50.528  26.511  33.437  0.00  0.00     0.083 A 
ATOM     10  C   UNL d   1     -51.003  25.164  33.306  0.00  0.00     0.021 A 
ATOM     11  C   UNL d   1     -51.308  26.772  33.488  0.00  0.00     0.019 A 
ATOM     12  C   UNL d   1     -51.933  26.248  33.449  0.00  0.00     0.002 A 
ATOM     13  C   UNL d   1     -51.786  25.431  33.357  0.00  0.00     0.002 A 
ENDBRANCH   4   5
ENDBRANCH   1   4
BRANCH   2  14
ATOM     14  C   UNL d   1     -48.458  29.023  34.734  0.00  0.00     0.085 A 
ATOM     15  C   UNL d   1     -48.245  29.810  34.812  0.00  0.00     0.019 A 
ATOM     16  C   UNL d   1     -47.773  30.052  35.443  0.00  0.00     0.002 A 
ATOM     17  C   UNL d   1     -47.559  30.846  35.521  0.00  0.00     0.000 C 
ATOM     18  C   UNL d   1     -47.512  29.491  36.001  0.00  0.00     0.000 A 
ATOM     19  C   UNL d   1     -47.727  28.701  35.921  0.00  0.00     0.002 A 
ATOM     20  C   UNL d   1     -47.038  29.728  36.637  0.00  0.00     0.000 C 
ATOM     21  C   UNL d   1     -48.203  28.464  35.284  0.00  0.00     0.019 A 
ENDBRANCH   2  14
TORSDOF 3
ENDMDL
