MODEL 1
REMARK VINA RESULT:      -9.3      0.000      0.000
REMARK  4 active torsions:
REMARK  status: ('A' for Active; 'I' for Inactive)
REMARK    1  A    between atoms: N_6  and  C_1 
REMARK    2  A    between atoms: C_10  and  C_2 
REMARK       I    between atoms: C_9  and  N_6 
REMARK    3  A    between atoms: C_11  and  C_9 
REMARK    4  A    between atoms: O_20  and  C_10 
ROOT
ATOM      1  C   UNL d   1      51.892  33.735  53.020  0.00  0.00     0.119 A 
ATOM      2  C   UNL d   1      52.606  33.947  53.374  0.00  0.00     0.087 A 
ATOM      3  C   UNL d   1      53.053  33.265  53.458  0.00  0.00     0.008 A 
ATOM      4  C   UNL d   1      52.629  32.636  53.163  0.00  0.00     0.028 A 
ATOM      5  S   UNL d   1      51.903  32.920  52.887  0.00  0.00    -0.070 SA
ATOM      6  C   UNL d   1      52.947  31.870  53.175  0.00  0.00     0.104 A 
ATOM      7  N   UNL d   1      53.697  31.746  53.488  0.00  0.00    -0.294 NA
ATOM      8  C   UNL d   1      54.128  32.385  53.788  0.00  0.00     0.099 A 
ATOM      9  C   UNL d   1      53.809  33.148  53.775  0.00  0.00    -0.004 A 
ATOM     10  C   UNL d   1      53.088  31.059  53.100  0.00  0.00     0.029 C 
ATOM     11  C   UNL d   1      52.204  31.783  52.829  0.00  0.00     0.029 C 
ATOM     12  C   UNL d   1      54.559  33.024  54.088  0.00  0.00     0.029 C 
ATOM     13  C   UNL d   1      54.452  31.629  53.805  0.00  0.00     0.029 C 
ENDROOT
BRANCH   1  14
ATOM     14  N   UNL d   1      51.270  34.245  52.829  0.00  0.00    -0.200 NA
ATOM     15  C   UNL d   1      50.489  34.007  52.949  0.00  0.00     0.302 C 
ATOM     16  O   UNL d   1      50.330  33.260  53.260  0.00  0.00    -0.263 OA
BRANCH  15  17
ATOM     17  C   UNL d   1      49.870  34.514  52.759  0.00  0.00     0.158 A 
ATOM     18  O   UNL d   1      49.506  35.051  53.261  0.00  0.00    -0.300 OA
ATOM     19  C   UNL d   1      48.907  35.443  52.825  0.00  0.00     0.123 A 
ATOM     20  C   UNL d   1      48.912  35.144  52.068  0.00  0.00     0.029 A 
ATOM     21  C   UNL d   1      49.504  34.564  52.004  0.00  0.00     0.032 A 
ENDBRANCH  15  17
ENDBRANCH   1  14
BRANCH   2  22
ATOM     22  C   UNL d   1      52.816  34.707  53.596  0.00  0.00     0.298 C 
ATOM     23  O   UNL d   1      53.128  35.219  53.026  0.00  0.00    -0.259 OA
BRANCH  22  24
ATOM     24  O   UNL d   1      52.717  34.961  54.383  0.00  0.00    -0.296 OA
ATOM     25  C   UNL d   1      52.919  35.729  54.594  0.00  0.00     0.185 C 
ENDBRANCH  22  24
ENDBRANCH   2  22
TORSDOF 4
ENDMDL
MODEL 2
REMARK VINA RESULT:      -8.9      1.320      2.325
REMARK  4 active torsions:
REMARK  status: ('A' for Active; 'I' for Inactive)
REMARK    1  A    between atoms: N_6  and  C_1 
REMARK    2  A    between atoms: C_10  and  C_2 
REMARK       I    between atoms: C_9  and  N_6 
REMARK    3  A    between atoms: C_11  and  C_9 
REMARK    4  A    between atoms: O_20  and  C_10 
ROOT
ATOM      1  C   UNL d   1      52.156  33.747  53.188  0.00  0.00     0.119 A 
ATOM      2  C   UNL d   1      52.631  33.092  53.344  0.00  0.00     0.087 A 
ATOM      3  C   UNL d   1      53.193  33.319  53.897  0.00  0.00     0.008 A 
ATOM      4  C   UNL d   1      53.073  34.102  54.084  0.00  0.00     0.028 A 
ATOM      5  S   UNL d   1      52.428  34.377  53.647  0.00  0.00    -0.070 SA
ATOM      6  C   UNL d   1      53.563  34.485  54.634  0.00  0.00     0.104 A 
ATOM      7  N   UNL d   1      54.175  34.068  54.992  0.00  0.00    -0.294 NA
ATOM      8  C   UNL d   1      54.297  33.272  54.801  0.00  0.00     0.099 A 
ATOM      9  C   UNL d   1      53.807  32.893  54.253  0.00  0.00    -0.004 A 
ATOM     10  C   UNL d   1      53.932  35.023  55.140  0.00  0.00     0.029 C 
ATOM     11  C   UNL d   1      53.025  35.062  54.397  0.00  0.00     0.029 C 
ATOM     12  C   UNL d   1      54.419  32.477  54.611  0.00  0.00     0.029 C 
ATOM     13  C   UNL d   1      54.789  33.642  55.348  0.00  0.00     0.029 C 
ENDROOT
BRANCH   1  14
ATOM     14  N   UNL d   1      51.516  33.774  52.664  0.00  0.00    -0.200 NA
ATOM     15  C   UNL d   1      50.934  34.352  52.753  0.00  0.00     0.302 C 
ATOM     16  O   UNL d   1      50.991  34.902  53.364  0.00  0.00    -0.263 OA
BRANCH  15  17
ATOM     17  C   UNL d   1      50.298  34.379  52.231  0.00  0.00     0.158 A 
ATOM     18  O   UNL d   1      50.323  34.244  51.423  0.00  0.00    -0.300 OA
ATOM     19  C   UNL d   1      49.544  34.332  51.125  0.00  0.00     0.123 A 
ATOM     20  C   UNL d   1      49.057  34.518  51.750  0.00  0.00     0.029 A 
ATOM     21  C   UNL d   1      49.506  34.552  52.449  0.00  0.00     0.032 A 
ENDBRANCH  15  17
ENDBRANCH   1  14
BRANCH   2  22
ATOM     22  C   UNL d   1      52.545  32.353  53.001  0.00  0.00     0.298 C 
ATOM     23  O   UNL d   1      52.920  32.200  52.280  0.00  0.00    -0.259 OA
BRANCH  22  24
ATOM     24  O   UNL d   1      52.088  31.764  53.373  0.00  0.00    -0.296 OA
ATOM     25  C   UNL d   1      52.063  31.005  53.058  0.00  0.00     0.185 C 
ENDBRANCH  22  24
ENDBRANCH   2  22
TORSDOF 4
ENDMDL
MODEL 3
REMARK VINA RESULT:      -8.6      1.728      3.906
REMARK  4 active torsions:
REMARK  status: ('A' for Active; 'I' for Inactive)
REMARK    1  A    between atoms: N_6  and  C_1 
REMARK    2  A    between atoms: C_10  and  C_2 
REMARK       I    between atoms: C_9  and  N_6 
REMARK    3  A    between atoms: C_11  and  C_9 
REMARK    4  A    between atoms: O_20  and  C_10 
ROOT
ATOM      1  C   UNL d   1      53.160  32.536  53.651  0.00  0.00     0.119 A 
ATOM      2  C   UNL d   1      52.715  33.223  53.554  0.00  0.00     0.087 A 
ATOM      3  C   UNL d   1      53.078  33.817  53.987  0.00  0.00     0.008 A 
ATOM      4  C   UNL d   1      53.739  33.510  54.349  0.00  0.00     0.028 A 
ATOM      5  S   UNL d   1      53.798  32.711  54.146  0.00  0.00    -0.070 SA
ATOM      6  C   UNL d   1      54.219  33.988  54.827  0.00  0.00     0.104 A 
ATOM      7  N   UNL d   1      54.024  34.781  54.935  0.00  0.00    -0.294 NA
ATOM      8  C   UNL d   1      53.353  35.093  54.567  0.00  0.00     0.099 A 
ATOM      9  C   UNL d   1      52.876  34.613  54.090  0.00  0.00    -0.004 A 
ATOM     10  C   UNL d   1      54.803  34.296  55.325  0.00  0.00     0.029 C 
ATOM     11  C   UNL d   1      54.577  33.247  54.848  0.00  0.00     0.029 C 
ATOM     12  C   UNL d   1      52.682  35.405  54.198  0.00  0.00     0.029 C 
ATOM     13  C   UNL d   1      53.822  35.576  55.039  0.00  0.00     0.029 C 
ENDROOT
BRANCH   1  14
ATOM     14  N   UNL d   1      53.001  31.797  53.316  0.00  0.00    -0.200 NA
ATOM     15  C   UNL d   1      53.240  31.108  53.701  0.00  0.00     0.302 C 
ATOM     16  O   UNL d   1      53.637  31.157  54.422  0.00  0.00    -0.263 OA
BRANCH  15  17
ATOM     17  C   UNL d   1      53.081  30.373  53.367  0.00  0.00     0.158 A 
ATOM     18  O   UNL d   1      52.910  30.222  52.579  0.00  0.00    -0.300 OA
ATOM     19  C   UNL d   1      52.789  29.395  52.499  0.00  0.00     0.123 A 
ATOM     20  C   UNL d   1      52.886  29.055  53.232  0.00  0.00     0.029 A 
ATOM     21  C   UNL d   1      53.069  29.647  53.788  0.00  0.00     0.032 A 
ENDBRANCH  15  17
ENDBRANCH   1  14
BRANCH   2  22
ATOM     22  C   UNL d   1      52.034  33.285  53.102  0.00  0.00     0.298 C 
ATOM     23  O   UNL d   1      52.104  33.428  52.290  0.00  0.00    -0.259 OA
BRANCH  22  24
ATOM     24  O   UNL d   1      51.284  33.204  53.454  0.00  0.00    -0.296 OA
ATOM     25  C   UNL d   1      50.606  33.282  52.996  0.00  0.00     0.185 C 
ENDBRANCH  22  24
ENDBRANCH   2  22
TORSDOF 4
ENDMDL
MODEL 4
REMARK VINA RESULT:      -8.3      1.853      4.083
REMARK  4 active torsions:
REMARK  status: ('A' for Active; 'I' for Inactive)
REMARK    1  A    between atoms: N_6  and  C_1 
REMARK    2  A    between atoms: C_10  and  C_2 
REMARK       I    between atoms: C_9  and  N_6 
REMARK    3  A    between atoms: C_11  and  C_9 
REMARK    4  A    between atoms: O_20  and  C_10 
ROOT
ATOM      1  C   UNL d   1      53.053  32.090  53.794  0.00  0.00     0.119 A 
ATOM      2  C   UNL d   1      53.430  32.815  53.902  0.00  0.00     0.087 A 
ATOM      3  C   UNL d   1      52.962  33.392  53.556  0.00  0.00     0.008 A 
ATOM      4  C   UNL d   1      52.303  33.037  53.236  0.00  0.00     0.028 A 
ATOM      5  S   UNL d   1      52.351  32.225  53.380  0.00  0.00    -0.070 SA
ATOM      6  C   UNL d   1      51.726  33.489  52.847  0.00  0.00     0.104 A 
ATOM      7  N   UNL d   1      51.823  34.304  52.785  0.00  0.00    -0.294 NA
ATOM      8  C   UNL d   1      52.492  34.665  53.109  0.00  0.00     0.099 A 
ATOM      9  C   UNL d   1      53.065  34.211  53.497  0.00  0.00    -0.004 A 
ATOM     10  C   UNL d   1      51.063  33.761  52.436  0.00  0.00     0.029 C 
ATOM     11  C   UNL d   1      51.449  32.715  52.803  0.00  0.00     0.029 C 
ATOM     12  C   UNL d   1      53.162  35.026  53.434  0.00  0.00     0.029 C 
ATOM     13  C   UNL d   1      51.926  35.123  52.726  0.00  0.00     0.029 C 
ENDROOT
BRANCH   1  14
ATOM     14  N   UNL d   1      53.325  31.353  54.053  0.00  0.00    -0.200 NA
ATOM     15  C   UNL d   1      53.072  30.664  53.676  0.00  0.00     0.302 C 
ATOM     16  O   UNL d   1      52.547  30.711  53.042  0.00  0.00    -0.263 OA
BRANCH  15  17
ATOM     17  C   UNL d   1      53.342  29.931  53.934  0.00  0.00     0.158 A 
ATOM     18  O   UNL d   1      54.010  29.536  53.667  0.00  0.00    -0.300 OA
ATOM     19  C   UNL d   1      54.062  28.812  54.088  0.00  0.00     0.123 A 
ATOM     20  C   UNL d   1      53.432  28.774  54.601  0.00  0.00     0.029 A 
ATOM     21  C   UNL d   1      52.970  29.461  54.522  0.00  0.00     0.032 A 
ENDBRANCH  15  17
ENDBRANCH   1  14
BRANCH   2  22
ATOM     22  C   UNL d   1      54.144  32.923  54.288  0.00  0.00     0.298 C 
ATOM     23  O   UNL d   1      54.845  32.903  53.848  0.00  0.00    -0.259 OA
BRANCH  22  24
ATOM     24  O   UNL d   1      54.166  33.051  55.111  0.00  0.00    -0.296 OA
ATOM     25  C   UNL d   1      54.863  33.298  55.469  0.00  0.00     0.185 C 
ENDBRANCH  22  24
ENDBRANCH   2  22
TORSDOF 4
ENDMDL
