MODEL 1
REMARK VINA RESULT:       4.6      0.000      0.000
REMARK  0 active torsions:
REMARK  status: ('A' for Active; 'I' for Inactive)
ROOT
ATOM      1  C   UNL d   1     -51.845  24.870  33.309  0.00  0.00     0.063 A 
ATOM      2  N   UNL d   1     -50.517  24.971  33.307  0.00  0.00    -0.204 NA
ATOM      3  C   UNL d   1     -51.149  24.439  33.308  0.00  0.00     0.099 A 
ATOM      4  C   UNL d   1     -50.824  25.705  33.307  0.00  0.00     0.318 A 
ATOM      5  C   UNL d   1     -51.648  25.673  33.308  0.00  0.00     0.254 A 
ATOM      6  C   UNL d   1     -51.169  23.629  33.309  0.00  0.00     0.076 A 
ATOM      7  C   UNL d   1     -51.898  23.232  33.310  0.00  0.00     0.024 A 
ATOM      8  C   UNL d   1     -52.560  24.492  33.310  0.00  0.00     0.016 A 
ATOM      9  O   UNL d   1     -50.358  26.396  33.306  0.00  0.00    -0.262 OA
ATOM     10  C   UNL d   1     -52.593  23.663  33.310  0.00  0.00     0.059 A 
ATOM     11  O   UNL d   1     -52.179  26.303  33.308  0.00  0.00    -0.281 OA
ATOM     12 CL   UNL d   1     -50.464  23.193  33.309  0.00  0.00    -0.081 Cl
ATOM     13 CL   UNL d   1     -53.344  23.261  33.311  0.00  0.00    -0.082 Cl
ENDROOT
TORSDOF 0
ENDMDL
MODEL 2
REMARK VINA RESULT:       7.2      1.906      2.877
REMARK  0 active torsions:
REMARK  status: ('A' for Active; 'I' for Inactive)
ROOT
ATOM      1  C   UNL d   1     -51.406  24.672  33.324  0.00  0.00     0.063 A 
ATOM      2  N   UNL d   1     -52.731  24.806  33.313  0.00  0.00    -0.204 NA
ATOM      3  C   UNL d   1     -52.014  25.219  33.319  0.00  0.00     0.099 A 
ATOM      4  C   UNL d   1     -52.557  24.029  33.314  0.00  0.00     0.318 A 
ATOM      5  C   UNL d   1     -51.740  23.917  33.321  0.00  0.00     0.254 A 
ATOM      6  C   UNL d   1     -51.853  26.012  33.320  0.00  0.00     0.076 A 
ATOM      7  C   UNL d   1     -51.065  26.276  33.327  0.00  0.00     0.024 A 
ATOM      8  C   UNL d   1     -50.635  24.919  33.331  0.00  0.00     0.016 A 
ATOM      9  O   UNL d   1     -53.138  23.431  33.309  0.00  0.00    -0.262 OA
ATOM     10  C   UNL d   1     -50.457  25.729  33.332  0.00  0.00     0.059 A 
ATOM     11  O   UNL d   1     -51.329  23.203  33.325  0.00  0.00    -0.281 OA
ATOM     12 CL   UNL d   1     -52.470  26.566  33.315  0.00  0.00    -0.081 Cl
ATOM     13 CL   UNL d   1     -49.647  25.992  33.339  0.00  0.00    -0.082 Cl
ENDROOT
TORSDOF 0
ENDMDL
