MODEL 1
REMARK VINA RESULT:      70.3      0.000      0.000
REMARK  3 active torsions:
REMARK  status: ('A' for Active; 'I' for Inactive)
REMARK    1  A    between atoms: N_2  and  S_1 
REMARK    2  A    between atoms: C_5  and  S_1 
REMARK    3  A    between atoms: C_4  and  C_3 
REMARK       I    between atoms: N_8  and  C_4 
ROOT
ATOM      1  N   UNL d   1     -51.103  24.651  33.480  0.00  0.00    -0.226 N 
ATOM      2  C   UNL d   1     -51.379  25.420  33.517  0.00  0.00     0.131 A 
ATOM      3  C   UNL d   1     -51.648  24.030  33.423  0.00  0.00     0.092 A 
ATOM      4  C   UNL d   1     -52.186  25.576  33.498  0.00  0.00     0.023 A 
ATOM      5  C   UNL d   1     -52.445  24.184  33.404  0.00  0.00     0.018 A 
ATOM      6  C   UNL d   1     -52.719  24.963  33.441  0.00  0.00     0.003 A 
ATOM      7  C   UNL d   1     -52.993  23.571  33.347  0.00  0.00     0.002 A 
ATOM      8  C   UNL d   1     -53.521  25.134  33.423  0.00  0.00     0.000 A 
ATOM      9  C   UNL d   1     -54.067  24.517  33.366  0.00  0.00     0.000 A 
ATOM     10  C   UNL d   1     -53.801  23.731  33.328  0.00  0.00     0.000 A 
ENDROOT
BRANCH   2  11
ATOM     11  C   UNL d   1     -50.834  26.042  33.575  0.00  0.00     0.282 C 
ATOM     12  N   UNL d   1     -51.101  26.824  33.581  0.00  0.00    -0.271 N 
ATOM     13  C   UNL d   1     -51.912  26.922  33.528  0.00  0.00     0.083 A 
ATOM     14  C   UNL d   1     -50.509  27.402  33.640  0.00  0.00     0.083 A 
ATOM     15  C   UNL d   1     -52.351  27.623  33.520  0.00  0.00     0.019 A 
ATOM     16  C   UNL d   1     -52.080  28.394  33.563  0.00  0.00     0.002 A 
ATOM     17  C   UNL d   1     -51.303  28.668  33.625  0.00  0.00     0.002 A 
ATOM     18  C   UNL d   1     -50.601  28.222  33.660  0.00  0.00     0.019 A 
ATOM     19  O   UNL d   1     -50.029  25.889  33.625  0.00  0.00    -0.265 OA
ENDBRANCH   2  11
BRANCH   1  20
ATOM     20  S   UNL d   1     -50.294  24.491  33.500  0.00  0.00     0.277 S 
ATOM     21  O   UNL d   1     -50.488  23.712  33.678  0.00  0.00    -0.199 OA
ATOM     22  O   UNL d   1     -50.108  25.276  33.320  0.00  0.00    -0.199 OA
BRANCH  20  23
ATOM     23  C   UNL d   1     -49.487  24.316  33.522  0.00  0.00     0.133 A 
ATOM     24  S   UNL d   1     -49.160  23.581  33.689  0.00  0.00    -0.074 SA
ATOM     25  C   UNL d   1     -48.340  23.649  33.654  0.00  0.00     0.036 A 
ATOM     26  C   UNL d   1     -48.157  24.436  33.463  0.00  0.00     0.008 A 
ATOM     27  C   UNL d   1     -48.871  24.845  33.382  0.00  0.00     0.020 A 
ENDBRANCH  20  23
ENDBRANCH   1  20
TORSDOF 3
ENDMDL
