MODEL 1
REMARK VINA RESULT:      -6.0      0.000      0.000
REMARK  6 active torsions:
REMARK  status: ('A' for Active; 'I' for Inactive)
REMARK    1  A    between atoms: S_5  and  C_3 
REMARK    2  A    between atoms: C_16  and  S_5 
REMARK    3  A    between atoms: C_20  and  N_6 
REMARK    4  A    between atoms: N_19  and  C_25 
REMARK    5  A    between atoms: C_24  and  C_20 
REMARK    6  A    between atoms: C_25  and  C_24 
ROOT
ATOM      1  C   UNL d   1     -47.814  12.926  23.075  0.00  0.00     0.155 A 
ATOM      2  C   UNL d   1     -47.486  12.193  22.888  0.00  0.00     0.092 A 
ATOM      3  C   UNL d   1     -46.245  12.833  22.577  0.00  0.00     0.124 A 
ATOM      4  N   UNL d   1     -48.604  12.971  23.325  0.00  0.00    -0.210 NA
ATOM      5  N   UNL d   1     -47.366  13.606  23.015  0.00  0.00    -0.273 N 
ATOM      6  C   UNL d   1     -46.574  13.566  22.764  0.00  0.00     0.181 A 
ATOM      7  C   UNL d   1     -47.943  11.498  22.949  0.00  0.00     0.269 A 
ATOM      8  N   UNL d   1     -48.727  11.547  23.198  0.00  0.00    -0.258 N 
ATOM      9  C   UNL d   1     -46.695  12.138  22.636  0.00  0.00     0.022 A 
ATOM     10  C   UNL d   1     -49.062  12.286  23.388  0.00  0.00     0.152 A 
ATOM     11  N   UNL d   1     -46.123  14.256  22.705  0.00  0.00    -0.128 N 
ATOM     12  C   UNL d   1     -49.182  10.857  23.259  0.00  0.00     0.084 A 
ATOM     13  O   UNL d   1     -47.606  10.765  22.759  0.00  0.00    -0.266 OA
ATOM     14  C   UNL d   1     -49.842  12.328  23.635  0.00  0.00     0.038 A 
ATOM     15  C   UNL d   1     -49.964  10.912  23.508  0.00  0.00     0.019 A 
ATOM     16  C   UNL d   1     -50.297  11.653  23.697  0.00  0.00     0.005 A 
ENDROOT
BRANCH   3  17
ATOM     17  S   UNL d   1     -45.458  12.793  22.329  0.00  0.00     0.213 S 
ATOM     18  O   UNL d   1     -45.638  13.062  21.576  0.00  0.00    -0.217 OA
ATOM     19  O   UNL d   1     -45.238  12.520  23.078  0.00  0.00    -0.217 OA
BRANCH  17  20
ATOM     20  C   UNL d   1     -44.672  12.753  22.084  0.00  0.00     0.088 A 
ATOM     21  C   UNL d   1     -44.178  12.171  22.401  0.00  0.00     0.011 A 
ATOM     22  C   UNL d   1     -43.394  12.125  22.161  0.00  0.00     0.001 A 
ATOM     23  C   UNL d   1     -43.100  12.659  21.606  0.00  0.00     0.000 A 
ATOM     24  C   UNL d   1     -43.597  13.243  21.289  0.00  0.00     0.001 A 
ATOM     25  C   UNL d   1     -44.384  13.283  21.534  0.00  0.00     0.011 A 
ENDBRANCH  17  20
ENDBRANCH   3  17
BRANCH   5  26
ATOM     26  C   UNL d   1     -47.697  14.342  23.203  0.00  0.00     0.085 C 
BRANCH  26  27
ATOM     27  C   UNL d   1     -48.269  14.672  22.708  0.00  0.00     0.038 C 
BRANCH  27  28
ATOM     28  C   UNL d   1     -48.578  15.410  22.870  0.00  0.00     0.082 C 
BRANCH  28  29
ATOM     29  N   UNL d   1     -49.391  15.539  22.852  0.00  0.00    -0.299 N 
ATOM     30  C   UNL d   1     -49.781  15.788  23.533  0.00  0.00     0.107 A 
ATOM     31  C   UNL d   1     -50.588  15.919  23.526  0.00  0.00     0.142 A 
ATOM     32  O   UNL d   1     -51.021  15.801  22.833  0.00  0.00    -0.300 OA
ATOM     33  C   UNL d   1     -50.637  15.549  22.143  0.00  0.00     0.142 A 
ATOM     34  C   UNL d   1     -49.814  15.417  22.154  0.00  0.00     0.107 A 
ENDBRANCH  28  29
ENDBRANCH  27  28
ENDBRANCH  26  27
ENDBRANCH   5  26
TORSDOF 6
ENDMDL
MODEL 2
REMARK VINA RESULT:      -5.6      8.497      9.743
REMARK  6 active torsions:
REMARK  status: ('A' for Active; 'I' for Inactive)
REMARK    1  A    between atoms: S_5  and  C_3 
REMARK    2  A    between atoms: C_16  and  S_5 
REMARK    3  A    between atoms: C_20  and  N_6 
REMARK    4  A    between atoms: N_19  and  C_25 
REMARK    5  A    between atoms: C_24  and  C_20 
REMARK    6  A    between atoms: C_25  and  C_24 
ROOT
ATOM      1  C   UNL d   1     -38.638  13.932  18.757  0.00  0.00     0.155 A 
ATOM      2  C   UNL d   1     -38.409  13.271  19.194  0.00  0.00     0.092 A 
ATOM      3  C   UNL d   1     -38.643  13.995  20.405  0.00  0.00     0.124 A 
ATOM      4  N   UNL d   1     -38.635  13.899  17.928  0.00  0.00    -0.210 NA
ATOM      5  N   UNL d   1     -38.867  14.617  19.137  0.00  0.00    -0.273 N 
ATOM      6  C   UNL d   1     -38.872  14.656  19.968  0.00  0.00     0.181 A 
ATOM      7  C   UNL d   1     -38.175  12.570  18.807  0.00  0.00     0.269 A 
ATOM      8  N   UNL d   1     -38.172  12.541  17.984  0.00  0.00    -0.258 N 
ATOM      9  C   UNL d   1     -38.409  13.295  20.025  0.00  0.00     0.022 A 
ATOM     10  C   UNL d   1     -38.403  13.207  17.539  0.00  0.00     0.152 A 
ATOM     11  N   UNL d   1     -39.105  15.352  20.349  0.00  0.00    -0.128 N 
ATOM     12  C   UNL d   1     -37.940  11.846  17.597  0.00  0.00     0.084 A 
ATOM     13  O   UNL d   1     -37.946  11.910  19.253  0.00  0.00    -0.266 OA
ATOM     14  C   UNL d   1     -38.399  13.172  16.721  0.00  0.00     0.038 A 
ATOM     15  C   UNL d   1     -37.940  11.823  16.775  0.00  0.00     0.019 A 
ATOM     16  C   UNL d   1     -38.171  12.491  16.333  0.00  0.00     0.005 A 
ENDROOT
BRANCH   3  17
ATOM     17  S   UNL d   1     -38.649  14.033  21.230  0.00  0.00     0.213 S 
ATOM     18  O   UNL d   1     -39.337  13.593  21.289  0.00  0.00    -0.217 OA
ATOM     19  O   UNL d   1     -37.952  14.480  21.211  0.00  0.00    -0.217 OA
BRANCH  17  20
ATOM     20  C   UNL d   1     -38.650  14.074  22.054  0.00  0.00     0.088 A 
ATOM     21  C   UNL d   1     -38.029  14.455  22.442  0.00  0.00     0.011 A 
ATOM     22  C   UNL d   1     -38.025  14.499  23.262  0.00  0.00     0.001 A 
ATOM     23  C   UNL d   1     -38.640  14.163  23.697  0.00  0.00     0.000 A 
ATOM     24  C   UNL d   1     -39.263  13.780  23.305  0.00  0.00     0.001 A 
ATOM     25  C   UNL d   1     -39.260  13.740  22.481  0.00  0.00     0.011 A 
ENDBRANCH  17  20
ENDBRANCH   3  17
BRANCH   5  26
ATOM     26  C   UNL d   1     -39.097  15.282  18.698  0.00  0.00     0.085 C 
BRANCH  26  27
ATOM     27  C   UNL d   1     -39.803  15.265  18.270  0.00  0.00     0.038 C 
BRANCH  27  28
ATOM     28  C   UNL d   1     -40.012  15.896  17.797  0.00  0.00     0.082 C 
BRANCH  28  29
ATOM     29  N   UNL d   1     -40.732  15.900  17.395  0.00  0.00    -0.299 N 
ATOM     30  C   UNL d   1     -40.741  15.902  16.572  0.00  0.00     0.107 A 
ATOM     31  C   UNL d   1     -41.449  15.905  16.164  0.00  0.00     0.142 A 
ATOM     32  O   UNL d   1     -42.164  15.906  16.575  0.00  0.00    -0.300 OA
ATOM     33  C   UNL d   1     -42.166  15.904  17.405  0.00  0.00     0.142 A 
ATOM     34  C   UNL d   1     -41.441  15.901  17.817  0.00  0.00     0.107 A 
ENDBRANCH  28  29
ENDBRANCH  27  28
ENDBRANCH  26  27
ENDBRANCH   5  26
TORSDOF 6
ENDMDL
MODEL 3
REMARK VINA RESULT:      -3.2      1.702      4.841
REMARK  6 active torsions:
REMARK  status: ('A' for Active; 'I' for Inactive)
REMARK    1  A    between atoms: S_5  and  C_3 
REMARK    2  A    between atoms: C_16  and  S_5 
REMARK    3  A    between atoms: C_20  and  N_6 
REMARK    4  A    between atoms: N_19  and  C_25 
REMARK    5  A    between atoms: C_24  and  C_20 
REMARK    6  A    between atoms: C_25  and  C_24 
ROOT
ATOM      1  C   UNL d   1     -46.338  12.596  23.033  0.00  0.00     0.155 A 
ATOM      2  C   UNL d   1     -47.071  12.233  23.136  0.00  0.00     0.092 A 
ATOM      3  C   UNL d   1     -47.722  13.475  22.855  0.00  0.00     0.124 A 
ATOM      4  N   UNL d   1     -45.642  12.153  23.123  0.00  0.00    -0.210 NA
ATOM      5  N   UNL d   1     -46.294  13.389  22.843  0.00  0.00    -0.273 N 
ATOM      6  C   UNL d   1     -46.988  13.838  22.752  0.00  0.00     0.181 A 
ATOM      7  C   UNL d   1     -47.116  11.423  23.330  0.00  0.00     0.269 A 
ATOM      8  N   UNL d   1     -46.423  10.986  23.419  0.00  0.00    -0.258 N 
ATOM      9  C   UNL d   1     -47.773  12.669  23.048  0.00  0.00     0.022 A 
ATOM     10  C   UNL d   1     -45.680  11.350  23.315  0.00  0.00     0.152 A 
ATOM     11  N   UNL d   1     -46.941  14.641  22.560  0.00  0.00    -0.128 N 
ATOM     12  C   UNL d   1     -46.466  10.181  23.611  0.00  0.00     0.084 A 
ATOM     13  O   UNL d   1     -47.856  11.064  23.432  0.00  0.00    -0.266 OA
ATOM     14  C   UNL d   1     -44.995  10.910  23.404  0.00  0.00     0.038 A 
ATOM     15  C   UNL d   1     -45.771   9.750  23.698  0.00  0.00     0.019 A 
ATOM     16  C   UNL d   1     -45.030  10.117  23.594  0.00  0.00     0.005 A 
ENDROOT
BRANCH   3  17
ATOM     17  S   UNL d   1     -48.411  13.921  22.765  0.00  0.00     0.213 S 
ATOM     18  O   UNL d   1     -48.404  13.845  21.950  0.00  0.00    -0.217 OA
ATOM     19  O   UNL d   1     -48.452  14.019  23.586  0.00  0.00    -0.217 OA
BRANCH  17  20
ATOM     20  C   UNL d   1     -49.100  14.366  22.679  0.00  0.00     0.088 A 
ATOM     21  C   UNL d   1     -49.718  14.072  22.217  0.00  0.00     0.011 A 
ATOM     22  C   UNL d   1     -50.406  14.510  22.127  0.00  0.00     0.001 A 
ATOM     23  C   UNL d   1     -50.480  15.244  22.497  0.00  0.00     0.000 A 
ATOM     24  C   UNL d   1     -49.857  15.539  22.960  0.00  0.00     0.001 A 
ATOM     25  C   UNL d   1     -49.169  15.092  23.046  0.00  0.00     0.011 A 
ENDBRANCH  17  20
ENDBRANCH   3  17
BRANCH   5  26
ATOM     26  C   UNL d   1     -45.557  13.754  22.740  0.00  0.00     0.085 C 
BRANCH  26  27
ATOM     27  C   UNL d   1     -45.109  13.588  22.067  0.00  0.00     0.038 C 
BRANCH  27  28
ATOM     28  C   UNL d   1     -44.455  14.041  21.885  0.00  0.00     0.082 C 
BRANCH  28  29
ATOM     29  N   UNL d   1     -43.795  13.702  21.528  0.00  0.00    -0.299 N 
ATOM     30  C   UNL d   1     -43.095  14.131  21.470  0.00  0.00     0.107 A 
ATOM     31  C   UNL d   1     -42.434  13.804  21.118  0.00  0.00     0.142 A 
ATOM     32  O   UNL d   1     -42.463  13.036  20.816  0.00  0.00    -0.300 OA
ATOM     33  C   UNL d   1     -43.163  12.596  20.870  0.00  0.00     0.142 A 
ATOM     34  C   UNL d   1     -43.835  12.934  21.230  0.00  0.00     0.107 A 
ENDBRANCH  28  29
ENDBRANCH  27  28
ENDBRANCH  26  27
ENDBRANCH   5  26
TORSDOF 6
ENDMDL
