MODEL 1
REMARK VINA RESULT:      68.4      0.000      0.000
REMARK  3 active torsions:
REMARK  status: ('A' for Active; 'I' for Inactive)
REMARK    1  A    between atoms: S_12  and  C_7 
REMARK    2  A    between atoms: C_10  and  C_13 
REMARK    3  A    between atoms: C_13  and  S_12 
ROOT
ATOM      1  N   UNL d   1      60.585  49.326  53.090  0.00  0.00    -0.224 N 
ATOM      2  N   UNL d   1      61.685  49.434  52.174  0.00  0.00    -0.241 N 
ATOM      3  C   UNL d   1      61.404  49.353  52.945  0.00  0.00     0.343 A 
ATOM      4  C   UNL d   1      61.143  49.490  51.542  0.00  0.00     0.160 A 
ATOM      5  C   UNL d   1      60.053  49.381  52.463  0.00  0.00     0.273 A 
ATOM      6  C   UNL d   1      60.331  49.463  51.686  0.00  0.00     0.115 A 
ATOM      7  C   UNL d   1      59.801  49.517  51.067  0.00  0.00     0.120 A 
ATOM      8  N   UNL d   1      61.423  49.572  50.768  0.00  0.00    -0.209 NA
ATOM      9  N   UNL d   1      60.076  49.599  50.291  0.00  0.00    -0.220 NA
ATOM     10  C   UNL d   1      60.891  49.626  50.142  0.00  0.00     0.165 A 
ATOM     11  O   UNL d   1      61.937  49.298  53.570  0.00  0.00    -0.245 OA
ATOM     12  O   UNL d   1      59.241  49.354  52.607  0.00  0.00    -0.266 OA
ATOM     13  C   UNL d   1      60.313  49.245  53.858  0.00  0.00     0.107 C 
ATOM     14  C   UNL d   1      62.495  49.462  52.022  0.00  0.00     0.105 C 
ATOM     15  C   UNL d   1      61.166  49.708  49.373  0.00  0.00     0.042 C 
ENDROOT
BRANCH   7  16
ATOM     16  S   UNL d   1      58.989  49.490  51.211  0.00  0.00    -0.067 SA
BRANCH  16  17
ATOM     17  C   UNL d   1      58.453  49.630  50.600  0.00  0.00     0.040 C 
BRANCH  17  18
ATOM     18  C   UNL d   1      57.649  49.480  50.709  0.00  0.00     0.045 A 
ATOM     19  C   UNL d   1      57.340  49.450  51.477  0.00  0.00     0.060 A 
ATOM     20 CL   UNL d   1      57.837  49.569  52.127  0.00  0.00    -0.082 Cl
ATOM     21  C   UNL d   1      56.538  49.301  51.601  0.00  0.00     0.012 A 
ATOM     22  C   UNL d   1      56.045  49.183  50.951  0.00  0.00     0.003 A 
ATOM     23  C   UNL d   1      56.337  49.210  50.181  0.00  0.00     0.030 A 
ATOM     24  C   UNL d   1      57.139  49.359  50.061  0.00  0.00     0.141 A 
ATOM     25  F   UNL d   1      57.442  49.389  49.302  0.00  0.00    -0.204 F 
ENDBRANCH  17  18
ENDBRANCH  16  17
ENDBRANCH   7  16
TORSDOF 3
ENDMDL
