MODEL 1
REMARK VINA RESULT:      42.3      0.000      0.000
REMARK  6 active torsions:
REMARK  status: ('A' for Active; 'I' for Inactive)
REMARK    1  A    between atoms: C_3  and  N_1 
REMARK       I    between atoms: C_2  and  N_6 
REMARK       I    between atoms: N_7  and  C_2 
REMARK    2  A    between atoms: C_5  and  C_3 
REMARK    3  A    between atoms: C_8  and  C_3 
REMARK    4  A    between atoms: N_6  and  C_5 
REMARK    5  A    between atoms: C_20  and  N_7 
REMARK    6  A    between atoms: N_12  and  C_9 
ROOT
ATOM      1  C   UNL d   1      46.481 -17.760  42.855  0.00  0.00     0.084 C 
ENDROOT
BRANCH   1   2
ATOM      2  N   UNL d   1      46.468 -18.399  43.377  0.00  0.00    -0.300 N 
ATOM      3  C   UNL d   1      46.614 -19.168  43.107  0.00  0.00     0.100 A 
ATOM      4  C   UNL d   1      46.601 -19.804  43.632  0.00  0.00     0.100 A 
ATOM      5  N   UNL d   1      46.440 -19.669  44.430  0.00  0.00    -0.299 N 
ATOM      6  C   UNL d   1      46.293 -18.906  44.706  0.00  0.00     0.100 A 
ATOM      7  C   UNL d   1      46.428 -20.322  44.954  0.00  0.00     0.100 C 
ATOM      8  C   UNL d   1      46.306 -18.267  44.184  0.00  0.00     0.100 A 
ENDBRANCH   1   2
BRANCH   1   9
ATOM      9  C   UNL d   1      46.612 -17.005  43.156  0.00  0.00     0.121 C 
BRANCH   9  10
ATOM     10  N   UNL d   1      46.125 -16.706  43.756  0.00  0.00    -0.188 NA
ATOM     11  C   UNL d   1      46.067 -15.894  43.876  0.00  0.00     0.369 C 
ATOM     12  N   UNL d   1      45.579 -15.596  44.477  0.00  0.00    -0.191 NA
ATOM     13  O   UNL d   1      46.489 -15.376  43.404  0.00  0.00    -0.242 OA
BRANCH  12  14
ATOM     14  C   UNL d   1      45.522 -14.784  44.596  0.00  0.00     0.086 A 
ATOM     15  C   UNL d   1      46.203 -14.337  44.739  0.00  0.00     0.022 A 
ATOM     16  C   UNL d   1      46.146 -13.525  44.858  0.00  0.00     0.031 A 
ATOM     17  C   UNL d   1      45.401 -13.152  44.835  0.00  0.00     0.140 A 
ATOM     18  C   UNL d   1      44.733 -13.591  44.693  0.00  0.00     0.031 A 
ATOM     19  F   UNL d   1      45.342 -12.333  44.954  0.00  0.00    -0.204 F 
ATOM     20  C   UNL d   1      44.785 -14.414  44.572  0.00  0.00     0.022 A 
ENDBRANCH  12  14
ENDBRANCH   9  10
ENDBRANCH   1   9
BRANCH   1  21
ATOM     21  C   UNL d   1      46.363 -17.883  42.045  0.00  0.00     0.018 A 
ATOM     22  C   UNL d   1      46.637 -17.326  41.502  0.00  0.00     0.003 A 
ATOM     23  C   UNL d   1      46.518 -17.453  40.701  0.00  0.00     0.018 A 
ATOM     24  C   UNL d   1      46.129 -18.128  40.428  0.00  0.00     0.064 A 
ATOM     25  C   UNL d   1      45.858 -18.680  40.978  0.00  0.00     0.018 A 
ATOM     26  C   UNL d   1      45.973 -18.562  41.782  0.00  0.00     0.003 A 
BRANCH  24  27
ATOM     27  N   UNL d   1      46.010 -18.254  39.621  0.00  0.00    -0.301 N 
ATOM     28  C   UNL d   1      45.962 -17.603  39.118  0.00  0.00     0.100 C 
ATOM     29  C   UNL d   1      45.940 -19.004  39.320  0.00  0.00     0.100 C 
ENDBRANCH  24  27
ENDBRANCH   1  21
TORSDOF 6
ENDMDL
