MODEL 1
REMARK VINA RESULT:      23.5      0.000      0.000
REMARK  2 active torsions:
REMARK  status: ('A' for Active; 'I' for Inactive)
REMARK    1  A    between atoms: C_2  and  C_1 
REMARK    2  A    between atoms: C_6  and  C_2 
ROOT
ATOM      1  C   UNL d   1     -58.526 -98.813 -44.735  0.00  0.00     0.059 A 
ATOM      2  C   UNL d   1     -59.233 -98.865 -45.140  0.00  0.00     0.106 A 
ATOM      3  C   UNL d   1     -58.513 -98.780 -43.919  0.00  0.00     0.011 A 
ATOM      4  C   UNL d   1     -59.937 -98.884 -44.735  0.00  0.00     0.021 A 
ATOM      5  C   UNL d   1     -59.240 -98.798 -43.490  0.00  0.00     0.035 A 
ATOM      6  N   UNL d   1     -59.223 -98.898 -45.964  0.00  0.00    -0.148 N 
ATOM      7  C   UNL d   1     -59.932 -98.850 -43.910  0.00  0.00     0.008 A 
ATOM      8 BR   UNL d   1     -59.236 -98.765 -42.676  0.00  0.00    -0.049 Br
ENDROOT
BRANCH   1   9
ATOM      9  C   UNL d   1     -57.808 -98.795 -45.154  0.00  0.00     0.197 C 
ATOM     10  O   UNL d   1     -57.756 -98.764 -45.978  0.00  0.00    -0.286 OA
BRANCH   9  11
ATOM     11  C   UNL d   1     -57.115 -98.808 -44.719  0.00  0.00     0.039 A 
ATOM     12  C   UNL d   1     -57.136 -98.774 -43.904  0.00  0.00     0.003 A 
ATOM     13  C   UNL d   1     -56.433 -98.787 -43.460  0.00  0.00     0.000 A 
ATOM     14  C   UNL d   1     -55.697 -98.836 -43.860  0.00  0.00     0.000 A 
ATOM     15  C   UNL d   1     -55.674 -98.870 -44.689  0.00  0.00     0.000 A 
ATOM     16  C   UNL d   1     -56.398 -98.855 -45.109  0.00  0.00     0.003 A 
ENDBRANCH   9  11
ENDBRANCH   1   9
TORSDOF 2
ENDMDL
MODEL 2
REMARK VINA RESULT:      26.3      2.574      3.867
REMARK  2 active torsions:
REMARK  status: ('A' for Active; 'I' for Inactive)
REMARK    1  A    between atoms: C_2  and  C_1 
REMARK    2  A    between atoms: C_6  and  C_2 
ROOT
ATOM      1  C   UNL d   1     -55.138-100.111 -44.369  0.00  0.00     0.059 A 
ATOM      2  C   UNL d   1     -54.920-100.269 -43.598  0.00  0.00     0.106 A 
ATOM      3  C   UNL d   1     -55.149-100.704 -44.930  0.00  0.00     0.011 A 
ATOM      4  C   UNL d   1     -54.711-101.021 -43.377  0.00  0.00     0.021 A 
ATOM      5  C   UNL d   1     -54.933-101.490 -44.708  0.00  0.00     0.035 A 
ATOM      6  N   UNL d   1     -54.916 -99.654 -43.048  0.00  0.00    -0.148 N 
ATOM      7  C   UNL d   1     -54.720-101.627 -43.938  0.00  0.00     0.008 A 
ATOM      8 BR   UNL d   1     -54.942-102.088 -45.262  0.00  0.00    -0.049 Br
ENDROOT
BRANCH   1   9
ATOM      9  C   UNL d   1     -55.351 -99.338 -44.591  0.00  0.00     0.197 C 
ATOM     10  O   UNL d   1     -54.809 -98.758 -44.817  0.00  0.00    -0.286 OA
BRANCH   9  11
ATOM     11  C   UNL d   1     -56.147 -99.147 -44.583  0.00  0.00     0.039 A 
ATOM     12  C   UNL d   1     -56.556 -99.108 -43.878  0.00  0.00     0.003 A 
ATOM     13  C   UNL d   1     -57.365 -98.914 -43.867  0.00  0.00     0.000 A 
ATOM     14  C   UNL d   1     -57.759 -98.757 -44.591  0.00  0.00     0.000 A 
ATOM     15  C   UNL d   1     -57.343 -98.797 -45.309  0.00  0.00     0.000 A 
ATOM     16  C   UNL d   1     -56.530 -98.995 -45.289  0.00  0.00     0.003 A 
ENDBRANCH   9  11
ENDBRANCH   1   9
TORSDOF 2
ENDMDL
