MODEL 1
REMARK VINA RESULT:      35.3      0.000      0.000
REMARK  6 active torsions:
REMARK  status: ('A' for Active; 'I' for Inactive)
REMARK    1  A    between atoms: C_7  and  C_1 
REMARK    2  A    between atoms: C_10  and  C_2 
REMARK    3  A    between atoms: C_9  and  C_5 
REMARK    4  A    between atoms: O_15  and  C_7 
REMARK    5  A    between atoms: N_14  and  C_9 
REMARK    6  A    between atoms: C_21  and  O_15 
ROOT
ATOM      1  C   UNL d   1      14.090  13.034  -2.515  0.00  0.00     0.088 A 
ATOM      2  C   UNL d   1      14.117  12.296  -2.147  0.00  0.00     0.105 A 
ATOM      3  C   UNL d   1      13.664  12.950  -3.202  0.00  0.00     0.034 A 
ATOM      4  O   UNL d   1      13.702  11.779  -2.627  0.00  0.00    -0.307 OA
ATOM      5  C   UNL d   1      13.455  13.492  -3.794  0.00  0.00     0.059 A 
ATOM      6  C   UNL d   1      13.417  12.181  -3.287  0.00  0.00     0.100 A 
ATOM      7  C   UNL d   1      13.019  13.269  -4.438  0.00  0.00     0.197 A 
ATOM      8  C   UNL d   1      12.978  11.935  -3.925  0.00  0.00     0.028 A 
ATOM      9  C   UNL d   1      12.771  12.477  -4.514  0.00  0.00     0.044 A 
ATOM     10  O   UNL d   1      12.811  13.815  -5.030  0.00  0.00    -0.286 OA
ENDROOT
BRANCH   2  11
ATOM     11  C   UNL d   1      14.491  12.125  -1.436  0.00  0.00     0.023 A 
ATOM     12  C   UNL d   1      15.323  12.090  -1.408  0.00  0.00     0.002 A 
ATOM     13  C   UNL d   1      15.714  11.917  -0.693  0.00  0.00     0.000 A 
ATOM     14  C   UNL d   1      15.258  11.781  -0.016  0.00  0.00     0.000 A 
ATOM     15  C   UNL d   1      14.438  11.815  -0.046  0.00  0.00     0.000 A 
ATOM     16  C   UNL d   1      14.056  11.986  -0.752  0.00  0.00     0.002 A 
ENDBRANCH   2  11
BRANCH   1  17
ATOM     17  C   UNL d   1      14.526  13.469  -1.963  0.00  0.00     0.302 C 
ATOM     18  O   UNL d   1      15.349  13.414  -1.955  0.00  0.00    -0.259 OA
BRANCH  17  19
ATOM     19  O   UNL d   1      14.153  13.958  -1.421  0.00  0.00    -0.271 OA
BRANCH  19  20
ATOM     20  C   UNL d   1      14.578  14.479  -0.951  0.00  0.00     0.126 C 
ATOM     21  C   UNL d   1      14.794  15.231  -1.228  0.00  0.00     0.029 C 
ENDBRANCH  19  20
ENDBRANCH  17  19
ENDBRANCH   1  17
BRANCH   5  22
ATOM     22  C   UNL d   1      13.696  14.283  -3.730  0.00  0.00     0.084 C 
BRANCH  22  23
ATOM     23  N   UNL d   1      13.696  14.780  -4.389  0.00  0.00    -0.300 N 
ATOM     24  C   UNL d   1      12.999  15.151  -4.608  0.00  0.00     0.100 C 
ATOM     25  C   UNL d   1      14.375  14.903  -4.817  0.00  0.00     0.100 C 
ENDBRANCH  22  23
ENDBRANCH   5  22
TORSDOF 6
ENDMDL
