MODEL 1
REMARK VINA RESULT:      33.6      0.000      0.000
REMARK  3 active torsions:
REMARK  status: ('A' for Active; 'I' for Inactive)
REMARK    1  A    between atoms: C_7  and  N_1 
REMARK    2  A    between atoms: C_8  and  C_2 
REMARK    3  A    between atoms: N_4  and  C_9 
ROOT
ATOM      1  N   UNL d   1      13.236  12.364  -4.010  0.00  0.00    -0.211 N 
ATOM      2  C   UNL d   1      13.201  13.094  -4.397  0.00  0.00     0.105 A 
ATOM      3  N   UNL d   1      12.983  11.779  -4.543  0.00  0.00    -0.060 NA
ATOM      4  N   UNL d   1      12.792  12.148  -5.258  0.00  0.00    -0.127 NA
ATOM      5  C   UNL d   1      12.929  12.959  -5.162  0.00  0.00     0.143 A 
ENDROOT
BRANCH   1   6
ATOM      6  C   UNL d   1      13.478  12.237  -3.233  0.00  0.00     0.085 A 
ATOM      7  C   UNL d   1      14.247  12.429  -3.004  0.00  0.00     0.021 A 
ATOM      8  C   UNL d   1      14.494  12.304  -2.228  0.00  0.00     0.025 A 
ATOM      9  C   UNL d   1      13.966  11.985  -1.677  0.00  0.00     0.127 A 
ATOM     10  C   UNL d   1      13.198  11.792  -1.902  0.00  0.00     0.025 A 
ATOM     11  C   UNL d   1      12.953  11.918  -2.679  0.00  0.00     0.021 A 
BRANCH   9  12
ATOM     12  N   UNL d   1      14.215  11.859  -0.898  0.00  0.00    -0.114 N 
ATOM     13  O   UNL d   1      15.021  11.797  -0.732  0.00  0.00    -0.532 OA
ATOM     14  O   UNL d   1      13.666  11.799  -0.296  0.00  0.00    -0.532 OA
ENDBRANCH   9  12
ENDBRANCH   1   6
BRANCH   2  15
ATOM     15  C   UNL d   1      13.404  13.825  -4.074  0.00  0.00     0.019 A 
ATOM     16  C   UNL d   1      14.197  14.045  -4.017  0.00  0.00     0.002 A 
ATOM     17  C   UNL d   1      14.402  14.772  -3.695  0.00  0.00     0.011 A 
ATOM     18  C   UNL d   1      13.810  15.291  -3.425  0.00  0.00     0.058 A 
ATOM     19  C   UNL d   1      13.011  15.068  -3.483  0.00  0.00     0.011 A 
ATOM     20 CL   UNL d   1      14.015  16.017  -3.104  0.00  0.00    -0.082 Cl
ATOM     21  C   UNL d   1      12.809  14.340  -3.805  0.00  0.00     0.002 A 
ENDBRANCH   2  15
TORSDOF 3
ENDMDL
