MODEL 1
REMARK VINA RESULT:      94.2      0.000      0.000
REMARK  6 active torsions:
REMARK  status: ('A' for Active; 'I' for Inactive)
REMARK    1  A    between atoms: C_8  and  C_6 
REMARK    2  A    between atoms: C_9  and  C_8 
REMARK       I    between atoms: N_11  and  C_9 
REMARK    3  A    between atoms: C_10  and  C_12 
REMARK    4  A    between atoms: O_20  and  C_10 
REMARK    5  A    between atoms: C_19  and  N_11 
REMARK    6  A    between atoms: C_29  and  O_20 
ROOT
ATOM      1  N   UNL d   1      58.267  49.048  51.779  0.00  0.00    -0.207 NA
ATOM      2  N   UNL d   1      58.968  48.823  50.271  0.00  0.00    -0.240 NA
ATOM      3  C   UNL d   1      59.011  48.810  51.552  0.00  0.00     0.297 A 
ATOM      4  C   UNL d   1      57.615  49.256  51.318  0.00  0.00     0.086 A 
ATOM      5  C   UNL d   1      58.223  49.061  50.028  0.00  0.00     0.083 A 
ATOM      6  C   UNL d   1      59.246  48.735  51.040  0.00  0.00     0.144 A 
ATOM      7  C   UNL d   1      57.564  49.272  50.485  0.00  0.00     0.035 A 
ATOM      8  O   UNL d   1      59.532  48.644  52.167  0.00  0.00    -0.264 OA
ATOM      9  C   UNL d   1      56.854  49.499  50.129  0.00  0.00     0.003 A 
ATOM     10  C   UNL d   1      58.170  49.078  49.204  0.00  0.00     0.019 A 
ATOM     11  C   UNL d   1      56.961  49.466  51.778  0.00  0.00     0.019 A 
ATOM     12  C   UNL d   1      57.453  49.307  48.834  0.00  0.00     0.002 A 
ATOM     13  C   UNL d   1      56.254  49.692  51.413  0.00  0.00     0.002 A 
ATOM     14  C   UNL d   1      56.802  49.515  49.295  0.00  0.00     0.000 A 
ATOM     15  C   UNL d   1      56.202  49.708  50.590  0.00  0.00     0.000 A 
ENDROOT
BRANCH   6  16
ATOM     16  C   UNL d   1      60.030  48.484  51.077  0.00  0.00     0.086 C 
BRANCH  16  17
ATOM     17  C   UNL d   1      60.607  48.883  50.628  0.00  0.00     0.281 C 
ATOM     18  N   UNL d   1      61.195  48.453  50.236  0.00  0.00    -0.208 NA
ATOM     19  O   UNL d   1      60.596  49.708  50.571  0.00  0.00    -0.265 OA
BRANCH  18  20
ATOM     20  C   UNL d   1      61.211  47.627  50.289  0.00  0.00     0.085 A 
ATOM     21  C   UNL d   1      61.235  47.177  49.603  0.00  0.00     0.019 A 
ATOM     22  C   UNL d   1      61.251  46.355  49.648  0.00  0.00     0.007 A 
ATOM     23  C   UNL d   1      61.243  45.983  50.391  0.00  0.00     0.064 A 
ATOM     24  C   UNL d   1      61.220  46.439  51.078  0.00  0.00     0.007 A 
ATOM     25  C   UNL d   1      61.204  47.262  51.027  0.00  0.00     0.019 A 
BRANCH  23  26
ATOM     26  C   UNL d   1      61.259  45.175  50.440  0.00  0.00     0.300 C 
ATOM     27  O   UNL d   1      61.448  44.726  49.785  0.00  0.00    -0.259 OA
BRANCH  26  28
ATOM     28  O   UNL d   1      61.087  44.806  51.143  0.00  0.00    -0.271 OA
BRANCH  28  29
ATOM     29  C   UNL d   1      61.272  44.020  51.247  0.00  0.00     0.126 C 
ATOM     30  C   UNL d   1      61.474  43.743  51.984  0.00  0.00     0.029 C 
ENDBRANCH  28  29
ENDBRANCH  26  28
ENDBRANCH  23  26
ENDBRANCH  18  20
ENDBRANCH  16  17
ENDBRANCH   6  16
TORSDOF 6
ENDMDL
MODEL 2
REMARK VINA RESULT:      95.1      1.425      5.199
REMARK  6 active torsions:
REMARK  status: ('A' for Active; 'I' for Inactive)
REMARK    1  A    between atoms: C_8  and  C_6 
REMARK    2  A    between atoms: C_9  and  C_8 
REMARK       I    between atoms: N_11  and  C_9 
REMARK    3  A    between atoms: C_10  and  C_12 
REMARK    4  A    between atoms: O_20  and  C_10 
REMARK    5  A    between atoms: C_19  and  N_11 
REMARK    6  A    between atoms: C_29  and  O_20 
ROOT
ATOM      1  N   UNL d   1      61.520  46.337  49.351  0.00  0.00    -0.207 NA
ATOM      2  N   UNL d   1      60.723  46.749  50.769  0.00  0.00    -0.240 NA
ATOM      3  C   UNL d   1      61.180  47.032  49.605  0.00  0.00     0.297 A 
ATOM      4  C   UNL d   1      61.574  45.606  49.729  0.00  0.00     0.086 A 
ATOM      5  C   UNL d   1      60.889  45.966  50.943  0.00  0.00     0.083 A 
ATOM      6  C   UNL d   1      60.911  47.168  50.086  0.00  0.00     0.144 A 
ATOM      7  C   UNL d   1      61.285  45.400  50.484  0.00  0.00     0.035 A 
ATOM      8  O   UNL d   1      61.228  47.662  49.079  0.00  0.00    -0.264 OA
ATOM      9  C   UNL d   1      61.397  44.630  50.764  0.00  0.00     0.003 A 
ATOM     10  C   UNL d   1      60.604  45.761  51.690  0.00  0.00     0.019 A 
ATOM     11  C   UNL d   1      61.969  45.044  49.269  0.00  0.00     0.019 A 
ATOM     12  C   UNL d   1      60.714  44.982  51.981  0.00  0.00     0.002 A 
ATOM     13  C   UNL d   1      62.077  44.276  49.556  0.00  0.00     0.002 A 
ATOM     14  C   UNL d   1      61.108  44.423  51.520  0.00  0.00     0.000 A 
ATOM     15  C   UNL d   1      61.792  44.071  50.303  0.00  0.00     0.000 A 
ENDROOT
BRANCH   6  16
ATOM     16  C   UNL d   1      60.654  47.952  50.103  0.00  0.00     0.086 C 
BRANCH  16  17
ATOM     17  C   UNL d   1      61.123  48.526  50.482  0.00  0.00     0.281 C 
ATOM     18  N   UNL d   1      60.769  49.203  50.801  0.00  0.00    -0.208 NA
ATOM     19  O   UNL d   1      61.941  48.424  50.542  0.00  0.00    -0.265 OA
BRANCH  18  20
ATOM     20  C   UNL d   1      59.951  49.310  50.743  0.00  0.00     0.085 A 
ATOM     21  C   UNL d   1      59.491  49.291  51.423  0.00  0.00     0.019 A 
ATOM     22  C   UNL d   1      58.676  49.397  51.373  0.00  0.00     0.007 A 
ATOM     23  C   UNL d   1      58.321  49.522  50.633  0.00  0.00     0.064 A 
ATOM     24  C   UNL d   1      58.786  49.540  49.952  0.00  0.00     0.007 A 
ATOM     25  C   UNL d   1      59.602  49.433  50.007  0.00  0.00     0.019 A 
BRANCH  23  26
ATOM     26  C   UNL d   1      57.520  49.626  50.579  0.00  0.00     0.300 C 
ATOM     27  O   UNL d   1      57.063  49.662  51.255  0.00  0.00    -0.259 OA
BRANCH  26  28
ATOM     28  O   UNL d   1      57.165  49.697  49.852  0.00  0.00    -0.271 OA
BRANCH  28  29
ATOM     29  C   UNL d   1      56.434  49.363  49.721  0.00  0.00     0.126 C 
ATOM     30  C   UNL d   1      56.053  49.481  49.012  0.00  0.00     0.029 C 
ENDBRANCH  28  29
ENDBRANCH  26  28
ENDBRANCH  23  26
ENDBRANCH  18  20
ENDBRANCH  16  17
ENDBRANCH   6  16
TORSDOF 6
ENDMDL
