MODEL 1
REMARK VINA RESULT:      -9.0      0.000      0.000
REMARK  5 active torsions:
REMARK  status: ('A' for Active; 'I' for Inactive)
REMARK    1  A    between atoms: C_7  and  N_1 
REMARK    2  A    between atoms: C_8  and  N_6 
REMARK    3  A    between atoms: C_15  and  C_7 
REMARK    4  A    between atoms: N_9  and  C_15 
REMARK    5  A    between atoms: O_20  and  C_14 
ROOT
ATOM      1  N   UNL d   1      52.058  33.501  53.270  0.00  0.00    -0.300 N 
ATOM      2  N   UNL d   1      50.562  33.996  52.779  0.00  0.00    -0.299 N 
ATOM      3  C   UNL d   1      51.981  34.002  52.616  0.00  0.00     0.100 A 
ATOM      4  C   UNL d   1      51.387  33.249  53.678  0.00  0.00     0.100 A 
ATOM      5  C   UNL d   1      51.233  34.249  52.371  0.00  0.00     0.100 A 
ATOM      6  C   UNL d   1      50.639  33.496  53.433  0.00  0.00     0.100 A 
ENDROOT
BRANCH   2   7
ATOM      7  C   UNL d   1      49.815  34.243  52.534  0.00  0.00     0.100 C 
BRANCH   7   8
ATOM      8  C   UNL d   1      49.646  35.050  52.469  0.00  0.00     0.105 C 
BRANCH   8   9
ATOM      9  N   UNL d   1      48.867  35.310  52.355  0.00  0.00    -0.239 N 
ATOM     10  C   UNL d   1      48.387  35.152  51.704  0.00  0.00     0.267 A 
ATOM     11  C   UNL d   1      47.657  35.521  51.829  0.00  0.00     0.061 A 
ATOM     12  O   UNL d   1      48.599  34.703  51.046  0.00  0.00    -0.267 OA
ATOM     13  C   UNL d   1      46.978  35.551  51.370  0.00  0.00     0.005 A 
ATOM     14  C   UNL d   1      47.686  35.909  52.557  0.00  0.00     0.061 A 
ATOM     15  C   UNL d   1      46.320  35.972  51.642  0.00  0.00     0.000 A 
ATOM     16  C   UNL d   1      46.352  36.361  52.377  0.00  0.00     0.000 A 
ATOM     17  C   UNL d   1      47.035  36.325  52.826  0.00  0.00     0.005 A 
ATOM     18  C   UNL d   1      48.432  35.780  52.885  0.00  0.00     0.267 A 
ATOM     19  O   UNL d   1      48.698  36.069  53.615  0.00  0.00    -0.267 OA
ENDBRANCH   8   9
ENDBRANCH   7   8
ENDBRANCH   2   7
BRANCH   1  20
ATOM     20  C   UNL d   1      52.810  33.254  53.515  0.00  0.00     0.086 A 
ATOM     21  C   UNL d   1      53.094  32.511  53.288  0.00  0.00     0.110 A 
ATOM     22  C   UNL d   1      53.849  32.264  53.535  0.00  0.00     0.026 A 
ATOM     23  C   UNL d   1      54.314  32.759  54.004  0.00  0.00     0.002 A 
ATOM     24  C   UNL d   1      54.030  33.502  54.230  0.00  0.00     0.002 A 
ATOM     25  C   UNL d   1      53.282  33.750  53.988  0.00  0.00     0.019 A 
BRANCH  21  26
ATOM     26  O   UNL d   1      52.641  32.007  52.820  0.00  0.00    -0.327 OA
ATOM     27  C   UNL d   1      52.868  31.221  52.694  0.00  0.00     0.181 C 
ENDBRANCH  21  26
ENDBRANCH   1  20
TORSDOF 5
ENDMDL
MODEL 2
REMARK VINA RESULT:      -7.3      0.917      5.806
REMARK  5 active torsions:
REMARK  status: ('A' for Active; 'I' for Inactive)
REMARK    1  A    between atoms: C_7  and  N_1 
REMARK    2  A    between atoms: C_8  and  N_6 
REMARK    3  A    between atoms: C_15  and  C_7 
REMARK    4  A    between atoms: N_9  and  C_15 
REMARK    5  A    between atoms: O_20  and  C_14 
ROOT
ATOM      1  N   UNL d   1      49.022  34.989  52.367  0.00  0.00    -0.300 N 
ATOM      2  N   UNL d   1      50.439  34.238  52.754  0.00  0.00    -0.299 N 
ATOM      3  C   UNL d   1      49.583  34.834  51.779  0.00  0.00     0.100 A 
ATOM      4  C   UNL d   1      49.170  34.768  53.148  0.00  0.00     0.100 A 
ATOM      5  C   UNL d   1      50.291  34.458  51.973  0.00  0.00     0.100 A 
ATOM      6  C   UNL d   1      49.878  34.393  53.342  0.00  0.00     0.100 A 
ENDROOT
BRANCH   2   7
ATOM      7  C   UNL d   1      51.147  33.862  52.948  0.00  0.00     0.100 C 
BRANCH   7   8
ATOM      8  C   UNL d   1      51.858  34.285  52.934  0.00  0.00     0.105 C 
BRANCH   8   9
ATOM      9  N   UNL d   1      52.529  33.994  53.323  0.00  0.00    -0.239 N 
ATOM     10  C   UNL d   1      52.918  33.285  53.168  0.00  0.00     0.267 A 
ATOM     11  C   UNL d   1      53.557  33.224  53.690  0.00  0.00     0.061 A 
ATOM     12  O   UNL d   1      52.706  32.734  52.593  0.00  0.00    -0.267 OA
ATOM     13  C   UNL d   1      54.127  32.641  53.786  0.00  0.00     0.005 A 
ATOM     14  C   UNL d   1      53.563  33.896  54.169  0.00  0.00     0.061 A 
ATOM     15  C   UNL d   1      54.710  32.732  54.365  0.00  0.00     0.000 A 
ATOM     16  C   UNL d   1      54.713  33.411  54.846  0.00  0.00     0.000 A 
ATOM     17  C   UNL d   1      54.140  33.986  54.743  0.00  0.00     0.005 A 
ATOM     18  C   UNL d   1      52.930  34.374  53.945  0.00  0.00     0.267 A 
ATOM     19  O   UNL d   1      52.729  35.105  54.282  0.00  0.00    -0.267 OA
ENDBRANCH   8   9
ENDBRANCH   7   8
ENDBRANCH   2   7
BRANCH   1  20
ATOM     20  C   UNL d   1      48.311  35.366  52.170  0.00  0.00     0.086 A 
ATOM     21  C   UNL d   1      48.007  35.956  52.663  0.00  0.00     0.110 A 
ATOM     22  C   UNL d   1      47.293  36.333  52.464  0.00  0.00     0.026 A 
ATOM     23  C   UNL d   1      46.889  36.121  51.777  0.00  0.00     0.002 A 
ATOM     24  C   UNL d   1      47.193  35.531  51.283  0.00  0.00     0.002 A 
ATOM     25  C   UNL d   1      47.901  35.154  51.478  0.00  0.00     0.019 A 
BRANCH  21  26
ATOM     26  O   UNL d   1      48.398  36.178  53.353  0.00  0.00    -0.327 OA
ATOM     27  C   UNL d   1      48.054  36.705  53.889  0.00  0.00     0.181 C 
ENDBRANCH  21  26
ENDBRANCH   1  20
TORSDOF 5
ENDMDL
