MODEL 1
REMARK VINA RESULT:      -7.2      0.000      0.000
REMARK  6 active torsions:
REMARK  status: ('A' for Active; 'I' for Inactive)
REMARK    1  A    between atoms: O_8  and  C_1 
REMARK    2  A    between atoms: C_10  and  C_5 
REMARK    3  A    between atoms: C_12  and  O_8 
REMARK    4  A    between atoms: N_9  and  C_10 
REMARK    5  A    between atoms: O_24  and  C_17 
REMARK    6  A    between atoms: C_28  and  O_24 
ROOT
ATOM      1  C   UNL d   1      51.039  33.885  53.122  0.00  0.00     0.161 A 
ATOM      2  C   UNL d   1      52.384  32.913  53.164  0.00  0.00     0.108 A 
ATOM      3  C   UNL d   1      51.626  32.571  53.200  0.00  0.00     0.064 A 
ATOM      4  C   UNL d   1      50.957  33.057  53.179  0.00  0.00     0.222 A 
ATOM      5  C   UNL d   1      53.053  32.426  53.185  0.00  0.00     0.079 A 
ATOM      6  O   UNL d   1      52.483  33.734  53.107  0.00  0.00    -0.305 OA
ATOM      7  C   UNL d   1      51.799  34.223  53.086  0.00  0.00     0.126 A 
ATOM      8  C   UNL d   1      51.546  31.758  53.256  0.00  0.00     0.009 A 
ATOM      9  C   UNL d   1      52.966  31.610  53.241  0.00  0.00     0.199 A 
ATOM     10  O   UNL d   1      50.203  32.723  53.215  0.00  0.00    -0.284 OA
ATOM     11  C   UNL d   1      52.213  31.275  53.277  0.00  0.00     0.042 A 
ATOM     12  O   UNL d   1      53.633  31.127  53.262  0.00  0.00    -0.286 OA
ATOM     13  C   UNL d   1      51.886  35.040  53.029  0.00  0.00     0.029 C 
ENDROOT
BRANCH   1  14
ATOM     14  O   UNL d   1      50.368  34.367  53.102  0.00  0.00    -0.300 OA
BRANCH  14  15
ATOM     15  C   UNL d   1      49.961  34.466  52.393  0.00  0.00     0.123 A 
ATOM     16  C   UNL d   1      49.253  34.888  52.383  0.00  0.00     0.123 A 
ATOM     17  C   UNL d   1      48.843  34.991  51.681  0.00  0.00     0.027 A 
ATOM     18  C   UNL d   1      49.136  34.673  50.980  0.00  0.00     0.002 A 
ATOM     19  C   UNL d   1      49.853  34.245  50.987  0.00  0.00     0.002 A 
ATOM     20  C   UNL d   1      50.261  34.145  51.695  0.00  0.00     0.027 A 
BRANCH  16  21
ATOM     21  O   UNL d   1      48.956  35.208  53.083  0.00  0.00    -0.303 OA
BRANCH  21  22
ATOM     22  C   UNL d   1      48.306  35.711  53.059  0.00  0.00     0.123 C 
ATOM     23  C   UNL d   1      48.028  36.069  53.746  0.00  0.00     0.029 C 
ENDBRANCH  21  22
ENDBRANCH  16  21
ENDBRANCH  14  15
ENDBRANCH   1  14
BRANCH   5  24
ATOM     24  C   UNL d   1      53.810  32.753  53.149  0.00  0.00     0.086 C 
BRANCH  24  25
ATOM     25  N   UNL d   1      54.185  32.984  53.852  0.00  0.00    -0.300 N 
ATOM     26  C   UNL d   1      53.989  32.620  54.569  0.00  0.00     0.100 A 
ATOM     27  C   UNL d   1      54.362  32.852  55.261  0.00  0.00     0.100 A 
ATOM     28  N   UNL d   1      54.934  33.446  55.249  0.00  0.00    -0.299 N 
ATOM     29  C   UNL d   1      55.131  33.811  54.532  0.00  0.00     0.100 A 
ATOM     30  C   UNL d   1      55.309  33.678  55.944  0.00  0.00     0.100 C 
ATOM     31  C   UNL d   1      54.755  33.579  53.828  0.00  0.00     0.100 A 
ENDBRANCH  24  25
ENDBRANCH   5  24
TORSDOF 6
ENDMDL
MODEL 2
REMARK VINA RESULT:      -5.8      1.233      2.102
REMARK  6 active torsions:
REMARK  status: ('A' for Active; 'I' for Inactive)
REMARK    1  A    between atoms: O_8  and  C_1 
REMARK    2  A    between atoms: C_10  and  C_5 
REMARK    3  A    between atoms: C_12  and  O_8 
REMARK    4  A    between atoms: N_9  and  C_10 
REMARK    5  A    between atoms: O_24  and  C_17 
REMARK    6  A    between atoms: C_28  and  O_24 
ROOT
ATOM      1  C   UNL d   1      50.994  33.773  53.234  0.00  0.00     0.161 A 
ATOM      2  C   UNL d   1      52.460  33.002  53.109  0.00  0.00     0.108 A 
ATOM      3  C   UNL d   1      52.427  33.782  53.399  0.00  0.00     0.064 A 
ATOM      4  C   UNL d   1      51.695  34.163  53.460  0.00  0.00     0.222 A 
ATOM      5  C   UNL d   1      53.192  32.620  53.048  0.00  0.00     0.079 A 
ATOM      6  O   UNL d   1      51.772  32.599  52.880  0.00  0.00    -0.305 OA
ATOM      7  C   UNL d   1      51.033  32.992  52.945  0.00  0.00     0.126 A 
ATOM      8  C   UNL d   1      53.115  34.165  53.620  0.00  0.00     0.009 A 
ATOM      9  C   UNL d   1      53.880  33.011  53.272  0.00  0.00     0.199 A 
ATOM     10  O   UNL d   1      51.657  34.937  53.746  0.00  0.00    -0.284 OA
ATOM     11  C   UNL d   1      53.842  33.784  53.558  0.00  0.00     0.042 A 
ATOM     12  O   UNL d   1      54.607  32.629  53.210  0.00  0.00    -0.286 OA
ATOM     13  C   UNL d   1      50.343  32.601  52.720  0.00  0.00     0.029 C 
ENDROOT
BRANCH   1  14
ATOM     14  O   UNL d   1      50.267  34.159  53.297  0.00  0.00    -0.300 OA
BRANCH  14  15
ATOM     15  C   UNL d   1      49.894  34.436  52.618  0.00  0.00     0.123 A 
ATOM     16  C   UNL d   1      49.264  34.963  52.683  0.00  0.00     0.123 A 
ATOM     17  C   UNL d   1      48.888  35.243  52.010  0.00  0.00     0.027 A 
ATOM     18  C   UNL d   1      49.138  34.999  51.264  0.00  0.00     0.002 A 
ATOM     19  C   UNL d   1      49.776  34.466  51.195  0.00  0.00     0.002 A 
ATOM     20  C   UNL d   1      50.150  34.187  51.874  0.00  0.00     0.027 A 
BRANCH  16  21
ATOM     21  O   UNL d   1      49.010  35.209  53.428  0.00  0.00    -0.303 OA
BRANCH  21  22
ATOM     22  C   UNL d   1      48.412  35.771  53.491  0.00  0.00     0.123 C 
ATOM     23  C   UNL d   1      48.149  36.020  54.230  0.00  0.00     0.029 C 
ENDBRANCH  21  22
ENDBRANCH  16  21
ENDBRANCH  14  15
ENDBRANCH   1  14
BRANCH   5  24
ATOM     24  C   UNL d   1      53.237  31.847  52.762  0.00  0.00     0.086 C 
BRANCH  24  25
ATOM     25  N   UNL d   1      53.243  31.216  53.301  0.00  0.00    -0.300 N 
ATOM     26  C   UNL d   1      53.565  31.314  54.056  0.00  0.00     0.100 A 
ATOM     27  C   UNL d   1      53.568  30.687  54.585  0.00  0.00     0.100 A 
ATOM     28  N   UNL d   1      53.250  29.957  54.369  0.00  0.00    -0.299 N 
ATOM     29  C   UNL d   1      52.927  29.858  53.614  0.00  0.00     0.100 A 
ATOM     30  C   UNL d   1      53.253  29.328  54.900  0.00  0.00     0.100 C 
ATOM     31  C   UNL d   1      52.922  30.490  53.074  0.00  0.00     0.100 A 
ENDBRANCH  24  25
ENDBRANCH   5  24
TORSDOF 6
ENDMDL
MODEL 3
REMARK VINA RESULT:      -5.3      2.439      5.718
REMARK  6 active torsions:
REMARK  status: ('A' for Active; 'I' for Inactive)
REMARK    1  A    between atoms: O_8  and  C_1 
REMARK    2  A    between atoms: C_10  and  C_5 
REMARK    3  A    between atoms: C_12  and  O_8 
REMARK    4  A    between atoms: N_9  and  C_10 
REMARK    5  A    between atoms: O_24  and  C_17 
REMARK    6  A    between atoms: C_28  and  O_24 
ROOT
ATOM      1  C   UNL d   1      50.113  34.173  52.819  0.00  0.00     0.161 A 
ATOM      2  C   UNL d   1      48.876  35.241  52.525  0.00  0.00     0.108 A 
ATOM      3  C   UNL d   1      49.125  34.722  51.924  0.00  0.00     0.064 A 
ATOM      4  C   UNL d   1      49.742  34.191  52.073  0.00  0.00     0.222 A 
ATOM      5  C   UNL d   1      48.260  35.773  52.377  0.00  0.00     0.079 A 
ATOM      6  O   UNL d   1      49.235  35.237  53.273  0.00  0.00    -0.305 OA
ATOM      7  C   UNL d   1      49.861  34.695  53.418  0.00  0.00     0.126 A 
ATOM      8  C   UNL d   1      48.760  34.740  51.191  0.00  0.00     0.009 A 
ATOM      9  C   UNL d   1      47.897  35.785  51.638  0.00  0.00     0.199 A 
ATOM     10  O   UNL d   1      49.992  33.674  51.480  0.00  0.00    -0.284 OA
ATOM     11  C   UNL d   1      48.147  35.269  51.045  0.00  0.00     0.042 A 
ATOM     12  O   UNL d   1      47.283  36.315  51.492  0.00  0.00    -0.286 OA
ATOM     13  C   UNL d   1      50.224  34.682  54.157  0.00  0.00     0.029 C 
ENDROOT
BRANCH   1  14
ATOM     14  O   UNL d   1      50.728  33.641  52.963  0.00  0.00    -0.300 OA
BRANCH  14  15
ATOM     15  C   UNL d   1      51.508  33.900  52.920  0.00  0.00     0.123 A 
ATOM     16  C   UNL d   1      52.124  33.353  52.945  0.00  0.00     0.123 A 
ATOM     17  C   UNL d   1      52.902  33.605  52.903  0.00  0.00     0.027 A 
ATOM     18  C   UNL d   1      53.075  34.407  52.836  0.00  0.00     0.002 A 
ATOM     19  C   UNL d   1      52.454  34.964  52.810  0.00  0.00     0.002 A 
ATOM     20  C   UNL d   1      51.674  34.706  52.853  0.00  0.00     0.027 A 
BRANCH  16  21
ATOM     21  O   UNL d   1      51.955  32.548  53.012  0.00  0.00    -0.303 OA
BRANCH  21  22
ATOM     22  C   UNL d   1      52.568  32.000  53.004  0.00  0.00     0.123 C 
ATOM     23  C   UNL d   1      52.408  31.193  53.036  0.00  0.00     0.029 C 
ENDBRANCH  21  22
ENDBRANCH  16  21
ENDBRANCH  14  15
ENDBRANCH   1  14
BRANCH   5  24
ATOM     24  C   UNL d   1      48.004  36.293  52.964  0.00  0.00     0.086 C 
BRANCH  24  25
ATOM     25  N   UNL d   1      47.318  36.111  53.395  0.00  0.00    -0.300 N 
ATOM     26  C   UNL d   1      46.615  35.924  53.001  0.00  0.00     0.100 A 
ATOM     27  C   UNL d   1      45.941  35.745  53.432  0.00  0.00     0.100 A 
ATOM     28  N   UNL d   1      45.957  35.752  54.256  0.00  0.00    -0.299 N 
ATOM     29  C   UNL d   1      46.660  35.939  54.651  0.00  0.00     0.100 A 
ATOM     30  C   UNL d   1      45.279  35.573  54.688  0.00  0.00     0.100 C 
ATOM     31  C   UNL d   1      47.346  36.121  54.219  0.00  0.00     0.100 A 
ENDBRANCH  24  25
ENDBRANCH   5  24
TORSDOF 6
ENDMDL
MODEL 4
REMARK VINA RESULT:      -5.0      1.953      5.243
REMARK  6 active torsions:
REMARK  status: ('A' for Active; 'I' for Inactive)
REMARK    1  A    between atoms: O_8  and  C_1 
REMARK    2  A    between atoms: C_10  and  C_5 
REMARK    3  A    between atoms: C_12  and  O_8 
REMARK    4  A    between atoms: N_9  and  C_10 
REMARK    5  A    between atoms: O_24  and  C_17 
REMARK    6  A    between atoms: C_28  and  O_24 
ROOT
ATOM      1  C   UNL d   1      51.892  33.630  53.393  0.00  0.00     0.161 A 
ATOM      2  C   UNL d   1      50.614  34.015  52.405  0.00  0.00     0.108 A 
ATOM      3  C   UNL d   1      51.394  34.138  52.139  0.00  0.00     0.064 A 
ATOM      4  C   UNL d   1      52.028  33.946  52.634  0.00  0.00     0.222 A 
ATOM      5  C   UNL d   1      49.979  34.207  51.911  0.00  0.00     0.079 A 
ATOM      6  O   UNL d   1      50.461  33.702  53.158  0.00  0.00    -0.305 OA
ATOM      7  C   UNL d   1      51.111  33.509  53.655  0.00  0.00     0.126 A 
ATOM      8  C   UNL d   1      51.527  34.448  51.393  0.00  0.00     0.009 A 
ATOM      9  C   UNL d   1      50.120  34.518  51.162  0.00  0.00     0.199 A 
ATOM     10  O   UNL d   1      52.803  34.066  52.374  0.00  0.00    -0.284 OA
ATOM     11  C   UNL d   1      50.894  34.638  50.903  0.00  0.00     0.042 A 
ATOM     12  O   UNL d   1      49.486  34.709  50.672  0.00  0.00    -0.286 OA
ATOM     13  C   UNL d   1      50.970  33.198  54.405  0.00  0.00     0.029 C 
ENDROOT
BRANCH   1  14
ATOM     14  O   UNL d   1      52.530  33.440  53.883  0.00  0.00    -0.300 OA
BRANCH  14  15
ATOM     15  C   UNL d   1      52.918  32.721  53.783  0.00  0.00     0.123 A 
ATOM     16  C   UNL d   1      53.633  32.584  54.169  0.00  0.00     0.123 A 
ATOM     17  C   UNL d   1      54.024  31.871  54.074  0.00  0.00     0.027 A 
ATOM     18  C   UNL d   1      53.704  31.284  53.592  0.00  0.00     0.002 A 
ATOM     19  C   UNL d   1      52.981  31.419  53.199  0.00  0.00     0.002 A 
ATOM     20  C   UNL d   1      52.592  32.138  53.298  0.00  0.00     0.027 A 
BRANCH  16  21
ATOM     21  O   UNL d   1      53.956  33.169  54.653  0.00  0.00    -0.303 OA
BRANCH  21  22
ATOM     22  C   UNL d   1      54.719  33.081  54.947  0.00  0.00     0.123 C 
ATOM     23  C   UNL d   1      55.159  33.739  55.172  0.00  0.00     0.029 C 
ENDBRANCH  21  22
ENDBRANCH  16  21
ENDBRANCH  14  15
ENDBRANCH   1  14
BRANCH   5  24
ATOM     24  C   UNL d   1      49.202  34.090  52.163  0.00  0.00     0.086 C 
BRANCH  24  25
ATOM     25  N   UNL d   1      48.713  34.748  52.290  0.00  0.00    -0.300 N 
ATOM     26  C   UNL d   1      48.809  35.215  52.966  0.00  0.00     0.100 A 
ATOM     27  C   UNL d   1      48.323  35.865  53.087  0.00  0.00     0.100 A 
ATOM     28  N   UNL d   1      47.738  36.057  52.538  0.00  0.00    -0.299 N 
ATOM     29  C   UNL d   1      47.642  35.590  51.861  0.00  0.00     0.100 A 
ATOM     30  C   UNL d   1      47.251  36.709  52.659  0.00  0.00     0.100 C 
ATOM     31  C   UNL d   1      48.132  34.931  51.734  0.00  0.00     0.100 A 
ENDBRANCH  24  25
ENDBRANCH   5  24
TORSDOF 6
ENDMDL
MODEL 5
REMARK VINA RESULT:      -4.3      1.272      2.439
REMARK  6 active torsions:
REMARK  status: ('A' for Active; 'I' for Inactive)
REMARK    1  A    between atoms: O_8  and  C_1 
REMARK    2  A    between atoms: C_10  and  C_5 
REMARK    3  A    between atoms: C_12  and  O_8 
REMARK    4  A    between atoms: N_9  and  C_10 
REMARK    5  A    between atoms: O_24  and  C_17 
REMARK    6  A    between atoms: C_28  and  O_24 
ROOT
ATOM      1  C   UNL d   1      51.104  34.031  52.905  0.00  0.00     0.161 A 
ATOM      2  C   UNL d   1      52.472  33.546  53.713  0.00  0.00     0.108 A 
ATOM      3  C   UNL d   1      52.470  34.270  53.302  0.00  0.00     0.064 A 
ATOM      4  C   UNL d   1      51.787  34.509  52.901  0.00  0.00     0.222 A 
ATOM      5  C   UNL d   1      53.154  33.306  54.115  0.00  0.00     0.079 A 
ATOM      6  O   UNL d   1      51.801  33.059  53.728  0.00  0.00    -0.305 OA
ATOM      7  C   UNL d   1      51.111  33.308  53.318  0.00  0.00     0.126 A 
ATOM      8  C   UNL d   1      53.141  34.739  53.298  0.00  0.00     0.009 A 
ATOM      9  C   UNL d   1      53.825  33.783  54.106  0.00  0.00     0.199 A 
ATOM     10  O   UNL d   1      51.781  35.227  52.491  0.00  0.00    -0.284 OA
ATOM     11  C   UNL d   1      53.818  34.499  53.698  0.00  0.00     0.042 A 
ATOM     12  O   UNL d   1      54.504  33.542  54.507  0.00  0.00    -0.286 OA
ATOM     13  C   UNL d   1      50.439  32.831  53.327  0.00  0.00     0.029 C 
ENDROOT
BRANCH   1  14
ATOM     14  O   UNL d   1      50.426  34.275  52.503  0.00  0.00    -0.300 OA
BRANCH  14  15
ATOM     15  C   UNL d   1      49.876  34.753  52.886  0.00  0.00     0.123 A 
ATOM     16  C   UNL d   1      49.178  34.963  52.502  0.00  0.00     0.123 A 
ATOM     17  C   UNL d   1      48.627  35.439  52.877  0.00  0.00     0.027 A 
ATOM     18  C   UNL d   1      48.767  35.711  53.643  0.00  0.00     0.002 A 
ATOM     19  C   UNL d   1      49.473  35.500  54.034  0.00  0.00     0.002 A 
ATOM     20  C   UNL d   1      50.023  35.022  53.652  0.00  0.00     0.027 A 
BRANCH  16  21
ATOM     21  O   UNL d   1      49.034  34.693  51.736  0.00  0.00    -0.303 OA
BRANCH  21  22
ATOM     22  C   UNL d   1      48.295  34.811  51.393  0.00  0.00     0.123 C 
ATOM     23  C   UNL d   1      48.108  34.462  50.672  0.00  0.00     0.029 C 
ENDBRANCH  21  22
ENDBRANCH  16  21
ENDBRANCH  14  15
ENDBRANCH   1  14
BRANCH   5  24
ATOM     24  C   UNL d   1      53.169  32.591  54.526  0.00  0.00     0.086 C 
BRANCH  24  25
ATOM     25  N   UNL d   1      53.426  31.905  54.137  0.00  0.00    -0.300 N 
ATOM     26  C   UNL d   1      54.039  31.944  53.584  0.00  0.00     0.100 A 
ATOM     27  C   UNL d   1      54.290  31.263  53.201  0.00  0.00     0.100 A 
ATOM     28  N   UNL d   1      53.934  30.537  53.365  0.00  0.00    -0.299 N 
ATOM     29  C   UNL d   1      53.321  30.497  53.918  0.00  0.00     0.100 A 
ATOM     30  C   UNL d   1      54.187  29.854  52.981  0.00  0.00     0.100 C 
ATOM     31  C   UNL d   1      53.063  31.184  54.308  0.00  0.00     0.100 A 
ENDBRANCH  24  25
ENDBRANCH   5  24
TORSDOF 6
ENDMDL
MODEL 6
REMARK VINA RESULT:      -4.2      1.937      5.128
REMARK  6 active torsions:
REMARK  status: ('A' for Active; 'I' for Inactive)
REMARK    1  A    between atoms: O_8  and  C_1 
REMARK    2  A    between atoms: C_10  and  C_5 
REMARK    3  A    between atoms: C_12  and  O_8 
REMARK    4  A    between atoms: N_9  and  C_10 
REMARK    5  A    between atoms: O_24  and  C_17 
REMARK    6  A    between atoms: C_28  and  O_24 
ROOT
ATOM      1  C   UNL d   1      52.833  31.816  53.888  0.00  0.00     0.161 A 
ATOM      2  C   UNL d   1      52.621  33.394  53.415  0.00  0.00     0.108 A 
ATOM      3  C   UNL d   1      53.086  33.222  54.084  0.00  0.00     0.064 A 
ATOM      4  C   UNL d   1      53.189  32.436  54.318  0.00  0.00     0.222 A 
ATOM      5  C   UNL d   1      52.517  34.181  53.181  0.00  0.00     0.079 A 
ATOM      6  O   UNL d   1      52.260  32.791  52.976  0.00  0.00    -0.305 OA
ATOM      7  C   UNL d   1      52.369  31.993  53.219  0.00  0.00     0.126 A 
ATOM      8  C   UNL d   1      53.436  33.831  54.506  0.00  0.00     0.009 A 
ATOM      9  C   UNL d   1      52.872  34.788  53.609  0.00  0.00     0.199 A 
ATOM     10  O   UNL d   1      53.649  32.260  54.981  0.00  0.00    -0.284 OA
ATOM     11  C   UNL d   1      53.331  34.612  54.272  0.00  0.00     0.042 A 
ATOM     12  O   UNL d   1      52.768  35.571  53.375  0.00  0.00    -0.286 OA
ATOM     13  C   UNL d   1      52.014  31.386  52.790  0.00  0.00     0.029 C 
ENDROOT
BRANCH   1  14
ATOM     14  O   UNL d   1      52.939  31.033  54.126  0.00  0.00    -0.300 OA
BRANCH  14  15
ATOM     15  C   UNL d   1      53.509  30.569  53.753  0.00  0.00     0.123 A 
ATOM     16  C   UNL d   1      53.622  29.789  53.992  0.00  0.00     0.123 A 
ATOM     17  C   UNL d   1      54.187  29.322  53.625  0.00  0.00     0.027 A 
ATOM     18  C   UNL d   1      54.646  29.631  53.014  0.00  0.00     0.002 A 
ATOM     19  C   UNL d   1      54.533  30.420  52.770  0.00  0.00     0.002 A 
ATOM     20  C   UNL d   1      53.964  30.885  53.142  0.00  0.00     0.027 A 
BRANCH  16  21
ATOM     21  O   UNL d   1      53.165  29.477  54.604  0.00  0.00    -0.303 OA
BRANCH  21  22
ATOM     22  C   UNL d   1      53.380  28.764  54.952  0.00  0.00     0.123 C 
ATOM     23  C   UNL d   1      53.061  28.538  55.676  0.00  0.00     0.029 C 
ENDBRANCH  21  22
ENDBRANCH  16  21
ENDBRANCH  14  15
ENDBRANCH   1  14
BRANCH   5  24
ATOM     24  C   UNL d   1      52.060  34.364  52.519  0.00  0.00     0.086 C 
BRANCH  24  25
ATOM     25  N   UNL d   1      51.250  34.516  52.616  0.00  0.00    -0.300 N 
ATOM     26  C   UNL d   1      50.967  34.835  53.325  0.00  0.00     0.100 A 
ATOM     27  C   UNL d   1      50.166  34.983  53.416  0.00  0.00     0.100 A 
ATOM     28  N   UNL d   1      49.638  34.817  52.804  0.00  0.00    -0.299 N 
ATOM     29  C   UNL d   1      49.920  34.498  52.095  0.00  0.00     0.100 A 
ATOM     30  C   UNL d   1      48.833  34.966  52.896  0.00  0.00     0.100 C 
ATOM     31  C   UNL d   1      50.731  34.346  51.998  0.00  0.00     0.100 A 
ENDBRANCH  24  25
ENDBRANCH   5  24
TORSDOF 6
ENDMDL
