MODEL 1
REMARK VINA RESULT:      94.1      0.000      0.000
REMARK  8 active torsions:
REMARK  status: ('A' for Active; 'I' for Inactive)
REMARK    1  A    between atoms: C_9  and  N_1 
REMARK    2  A    between atoms: C_7  and  C_2 
REMARK    3  A    between atoms: C_6  and  C_4 
REMARK    4  A    between atoms: C_8  and  C_12 
REMARK       I    between atoms: N_25  and  C_8 
REMARK    5  A    between atoms: N_11  and  C_26 
REMARK    6  A    between atoms: C_30  and  N_25 
REMARK    7  A    between atoms: C_26  and  C_27 
REMARK    8  A    between atoms: C_27  and  C_30 
ROOT
ATOM      1  C   UNL d   1      60.472  48.055  50.413  0.00  0.00     0.083 A 
ATOM      2  C   UNL d   1      61.604  46.977  49.886  0.00  0.00     0.058 A 
ATOM      3  C   UNL d   1      61.034  48.293  49.859  0.00  0.00     0.019 A 
ATOM      4  C   UNL d   1      60.471  47.283  50.705  0.00  0.00     0.019 A 
ATOM      5  C   UNL d   1      61.032  46.745  50.445  0.00  0.00     0.006 A 
ATOM      6  C   UNL d   1      61.595  47.760  49.598  0.00  0.00     0.006 A 
ENDROOT
BRANCH   1   7
ATOM      7  N   UNL d   1      59.901  48.592  50.681  0.00  0.00    -0.229 N 
ATOM      8  C   UNL d   1      60.002  49.164  51.264  0.00  0.00     0.090 A 
ATOM      9  C   UNL d   1      59.291  49.572  51.351  0.00  0.00     0.044 A 
ATOM     10  C   UNL d   1      58.753  49.244  50.815  0.00  0.00     0.174 A 
ATOM     11  N   UNL d   1      59.137  48.644  50.409  0.00  0.00    -0.161 NA
BRANCH   8  12
ATOM     12  C   UNL d   1      60.650  49.371  51.731  0.00  0.00     0.047 A 
ATOM     13  S   UNL d   1      61.450  49.606  51.717  0.00  0.00    -0.085 SA
ATOM     14  C   UNL d   1      61.703  49.707  52.501  0.00  0.00     0.035 A 
ATOM     15  C   UNL d   1      61.067  49.536  52.990  0.00  0.00     0.007 A 
ATOM     16  C   UNL d   1      60.424  49.331  52.532  0.00  0.00     0.009 A 
ENDBRANCH   8  12
BRANCH  10  17
ATOM     17  C   UNL d   1      57.966  49.481  50.710  0.00  0.00     0.437 C 
ATOM     18  F   UNL d   1      57.341  49.586  51.299  0.00  0.00    -0.164 F 
ATOM     19  F   UNL d   1      57.548  49.692  49.980  0.00  0.00    -0.164 F 
ATOM     20  F   UNL d   1      57.248  49.698  50.613  0.00  0.00    -0.164 F 
ENDBRANCH  10  17
ENDBRANCH   1   7
BRANCH   2  21
ATOM     21  C   UNL d   1      62.172  46.437  49.622  0.00  0.00     0.279 C 
ATOM     22  O   UNL d   1      62.933  46.694  49.453  0.00  0.00    -0.265 OA
ATOM     23  N   UNL d   1      61.968  45.644  49.531  0.00  0.00    -0.206 NA
BRANCH  23  24
ATOM     24  C   UNL d   1      62.533  45.107  49.268  0.00  0.00     0.104 C 
BRANCH  24  25
ATOM     25  C   UNL d   1      62.726  44.447  49.730  0.00  0.00     0.040 C 
BRANCH  25  26
ATOM     26  C   UNL d   1      62.155  43.894  49.926  0.00  0.00     0.082 C 
BRANCH  26  27
ATOM     27  N   UNL d   1      62.305  43.316  50.499  0.00  0.00    -0.299 N 
ATOM     28  C   UNL d   1      61.780  43.219  51.131  0.00  0.00     0.107 A 
ATOM     29  C   UNL d   1      61.938  42.641  51.696  0.00  0.00     0.142 A 
ATOM     30  O   UNL d   1      62.605  42.168  51.634  0.00  0.00    -0.300 OA
ATOM     31  C   UNL d   1      63.124  42.269  51.002  0.00  0.00     0.142 A 
ATOM     32  C   UNL d   1      62.976  42.849  50.426  0.00  0.00     0.107 A 
ENDBRANCH  26  27
ENDBRANCH  25  26
ENDBRANCH  24  25
ENDBRANCH  23  24
ENDBRANCH   2  21
TORSDOF 8
ENDMDL
