MODEL 1
REMARK VINA RESULT:      -9.4      0.000      0.000
REMARK  3 active torsions:
REMARK  status: ('A' for Active; 'I' for Inactive)
REMARK    1  A    between atoms: C_9  and  C_1 
REMARK    2  A    between atoms: C_4  and  C_9 
REMARK       I    between atoms: N_5  and  C_4 
REMARK    3  A    between atoms: C_10  and  N_8 
ROOT
ATOM      1  C   UNL d   1      50.623  33.898  52.942  0.00  0.00     0.265 C 
ATOM      2  N   UNL d   1      51.383  33.790  53.245  0.00  0.00    -0.269 N 
ATOM      3  N   UNL d   1      52.917  33.582  53.860  0.00  0.00    -0.299 N 
ATOM      4  C   UNL d   1      51.811  34.450  53.529  0.00  0.00     0.102 A 
ATOM      5  C   UNL d   1      51.718  33.046  53.271  0.00  0.00     0.102 A 
ATOM      6  C   UNL d   1      52.478  32.946  53.576  0.00  0.00     0.100 A 
ATOM      7  C   UNL d   1      52.571  34.351  53.834  0.00  0.00     0.100 A 
ATOM      8  O   UNL d   1      50.200  33.249  52.662  0.00  0.00    -0.267 OA
ENDROOT
BRANCH   1   9
ATOM      9  C   UNL d   1      50.281  34.655  52.915  0.00  0.00     0.063 C 
BRANCH   9  10
ATOM     10  C   UNL d   1      49.619  34.788  52.435  0.00  0.00     0.024 A 
ATOM     11  C   UNL d   1      49.511  34.479  51.686  0.00  0.00     0.080 A 
ATOM     12  N   UNL d   1      48.781  34.747  51.403  0.00  0.00    -0.303 N 
ATOM     13  C   UNL d   1      48.443  34.575  50.672  0.00  0.00     0.100 C 
ATOM     14  C   UNL d   1      48.449  35.222  51.988  0.00  0.00     0.064 A 
ATOM     15  C   UNL d   1      48.966  35.244  52.619  0.00  0.00     0.018 A 
ATOM     16  C   UNL d   1      47.732  35.637  52.018  0.00  0.00     0.018 A 
ATOM     17  C   UNL d   1      48.774  35.683  53.290  0.00  0.00     0.002 A 
ATOM     18  C   UNL d   1      48.067  36.094  53.323  0.00  0.00     0.000 A 
ATOM     19  C   UNL d   1      47.543  36.073  52.687  0.00  0.00     0.002 A 
ENDBRANCH   9  10
ENDBRANCH   1   9
BRANCH   3  20
ATOM     20  C   UNL d   1      53.666  33.489  54.162  0.00  0.00     0.092 A 
ATOM     21  C   UNL d   1      54.273  33.178  53.693  0.00  0.00     0.156 A 
ATOM     22  F   UNL d   1      54.114  32.963  52.920  0.00  0.00    -0.203 F 
ATOM     23  C   UNL d   1      55.032  33.088  54.010  0.00  0.00     0.031 A 
ATOM     24  C   UNL d   1      55.178  33.310  54.795  0.00  0.00     0.002 A 
ATOM     25  C   UNL d   1      54.576  33.617  55.254  0.00  0.00     0.002 A 
ATOM     26  C   UNL d   1      53.820  33.706  54.935  0.00  0.00     0.020 A 
ENDBRANCH   3  20
TORSDOF 3
ENDMDL
MODEL 2
REMARK VINA RESULT:      -9.3      1.504      5.458
REMARK  3 active torsions:
REMARK  status: ('A' for Active; 'I' for Inactive)
REMARK    1  A    between atoms: C_9  and  C_1 
REMARK    2  A    between atoms: C_4  and  C_9 
REMARK       I    between atoms: N_5  and  C_4 
REMARK    3  A    between atoms: C_10  and  N_8 
ROOT
ATOM      1  C   UNL d   1      51.503  33.844  52.649  0.00  0.00     0.265 C 
ATOM      2  N   UNL d   1      50.768  34.200  52.535  0.00  0.00    -0.269 N 
ATOM      3  N   UNL d   1      49.283  34.922  52.316  0.00  0.00    -0.299 N 
ATOM      4  C   UNL d   1      50.355  34.511  53.193  0.00  0.00     0.102 A 
ATOM      5  C   UNL d   1      50.442  34.252  51.788  0.00  0.00     0.102 A 
ATOM      6  C   UNL d   1      49.706  34.610  51.683  0.00  0.00     0.100 A 
ATOM      7  C   UNL d   1      49.619  34.869  53.088  0.00  0.00     0.100 A 
ATOM      8  O   UNL d   1      51.912  33.537  52.002  0.00  0.00    -0.267 OA
ENDROOT
BRANCH   1   9
ATOM      9  C   UNL d   1      51.836  33.791  53.409  0.00  0.00     0.063 C 
BRANCH   9  10
ATOM     10  C   UNL d   1      52.436  33.239  53.555  0.00  0.00     0.024 A 
ATOM     11  C   UNL d   1      52.485  32.496  53.218  0.00  0.00     0.080 A 
ATOM     12  N   UNL d   1      53.166  32.128  53.511  0.00  0.00    -0.303 N 
ATOM     13  C   UNL d   1      53.437  31.373  53.324  0.00  0.00     0.100 C 
ATOM     14  C   UNL d   1      53.528  32.655  54.029  0.00  0.00     0.064 A 
ATOM     15  C   UNL d   1      53.077  33.335  54.052  0.00  0.00     0.018 A 
ATOM     16  C   UNL d   1      54.219  32.593  54.483  0.00  0.00     0.018 A 
ATOM     17  C   UNL d   1      53.311  33.965  54.531  0.00  0.00     0.002 A 
ATOM     18  C   UNL d   1      53.992  33.907  54.981  0.00  0.00     0.000 A 
ATOM     19  C   UNL d   1      54.449  33.221  54.958  0.00  0.00     0.002 A 
ENDBRANCH   9  10
ENDBRANCH   1   9
BRANCH   3  20
ATOM     20  C   UNL d   1      48.557  35.276  52.218  0.00  0.00     0.092 A 
ATOM     21  C   UNL d   1      48.074  35.073  51.577  0.00  0.00     0.156 A 
ATOM     22  F   UNL d   1      48.331  34.513  51.041  0.00  0.00    -0.203 F 
ATOM     23  C   UNL d   1      47.337  35.440  51.486  0.00  0.00     0.031 A 
ATOM     24  C   UNL d   1      47.091  36.006  52.038  0.00  0.00     0.002 A 
ATOM     25  C   UNL d   1      47.570  36.203  52.669  0.00  0.00     0.002 A 
ATOM     26  C   UNL d   1      48.305  35.836  52.756  0.00  0.00     0.020 A 
ENDBRANCH   3  20
TORSDOF 3
ENDMDL
MODEL 3
REMARK VINA RESULT:      -6.8      9.676     10.508
REMARK  3 active torsions:
REMARK  status: ('A' for Active; 'I' for Inactive)
REMARK    1  A    between atoms: C_9  and  C_1 
REMARK    2  A    between atoms: C_4  and  C_9 
REMARK       I    between atoms: N_5  and  C_4 
REMARK    3  A    between atoms: C_10  and  N_8 
ROOT
ATOM      1  C   UNL d   1      45.175  28.238  57.416  0.00  0.00     0.265 C 
ATOM      2  N   UNL d   1      45.060  27.469  57.138  0.00  0.00    -0.269 N 
ATOM      3  N   UNL d   1      44.818  25.922  56.571  0.00  0.00    -0.299 N 
ATOM      4  C   UNL d   1      44.441  27.316  56.595  0.00  0.00     0.102 A 
ATOM      5  C   UNL d   1      45.543  26.860  57.387  0.00  0.00     0.102 A 
ATOM      6  C   UNL d   1      45.421  26.095  57.104  0.00  0.00     0.100 A 
ATOM      7  C   UNL d   1      44.319  26.551  56.313  0.00  0.00     0.100 A 
ATOM      8  O   UNL d   1      45.784  28.390  57.950  0.00  0.00    -0.267 OA
ENDROOT
BRANCH   1   9
ATOM      9  C   UNL d   1      44.684  28.859  57.162  0.00  0.00     0.063 C 
BRANCH   9  10
ATOM     10  C   UNL d   1      44.722  29.592  57.546  0.00  0.00     0.024 A 
ATOM     11  C   UNL d   1      44.853  29.699  58.346  0.00  0.00     0.080 A 
ATOM     12  N   UNL d   1      44.849  30.513  58.497  0.00  0.00    -0.303 N 
ATOM     13  C   UNL d   1      44.958  30.879  59.226  0.00  0.00     0.100 C 
ATOM     14  C   UNL d   1      44.714  30.897  57.782  0.00  0.00     0.064 A 
ATOM     15  C   UNL d   1      44.637  30.328  57.201  0.00  0.00     0.018 A 
ATOM     16  C   UNL d   1      44.652  31.701  57.592  0.00  0.00     0.018 A 
ATOM     17  C   UNL d   1      44.496  30.556  56.421  0.00  0.00     0.002 A 
ATOM     18  C   UNL d   1      44.435  31.350  56.230  0.00  0.00     0.000 A 
ATOM     19  C   UNL d   1      44.513  31.926  56.815  0.00  0.00     0.002 A 
ENDBRANCH   9  10
ENDBRANCH   1   9
BRANCH   3  20
ATOM     20  C   UNL d   1      44.694  25.169  56.289  0.00  0.00     0.092 A 
ATOM     21  C   UNL d   1      44.440  24.567  56.797  0.00  0.00     0.156 A 
ATOM     22  F   UNL d   1      44.315  24.733  57.587  0.00  0.00    -0.203 F 
ATOM     23  C   UNL d   1      44.316  23.804  56.500  0.00  0.00     0.031 A 
ATOM     24  C   UNL d   1      44.447  23.651  55.696  0.00  0.00     0.002 A 
ATOM     25  C   UNL d   1      44.698  24.248  55.199  0.00  0.00     0.002 A 
ATOM     26  C   UNL d   1      44.820  25.008  55.498  0.00  0.00     0.020 A 
ENDBRANCH   3  20
TORSDOF 3
ENDMDL
