MODEL 1
REMARK VINA RESULT:      77.9      0.000      0.000
REMARK  4 active torsions:
REMARK  status: ('A' for Active; 'I' for Inactive)
REMARK    1  A    between atoms: C_11  and  C_4 
REMARK    2  A    between atoms: N_10  and  C_5 
REMARK    3  A    between atoms: C_15  and  N_10 
REMARK    4  A    between atoms: C_16  and  C_15 
ROOT
ATOM      1  N   UNL d   1     -54.775-100.230 -41.952  0.00  0.00    -0.195 N 
ATOM      2  C   UNL d   1     -54.792-100.955 -41.569  0.00  0.00     0.167 A 
ATOM      3  N   UNL d   1     -54.745 -99.649 -41.378  0.00  0.00    -0.163 NA
ATOM      4  C   UNL d   1     -54.772-100.817 -40.761  0.00  0.00     0.055 A 
ATOM      5  C   UNL d   1     -54.790-100.203 -42.772  0.00  0.00     0.167 A 
ATOM      6  C   UNL d   1     -54.744-100.022 -40.644  0.00  0.00     0.104 A 
ATOM      7  N   UNL d   1     -54.824-101.655 -42.005  0.00  0.00    -0.227 NA
ATOM      8  C   UNL d   1     -54.822-100.907 -43.215  0.00  0.00     0.058 A 
ATOM      9  C   UNL d   1     -54.838-101.624 -42.837  0.00  0.00     0.086 A 
ATOM     10  C   UNL d   1     -54.717 -99.647 -39.906  0.00  0.00     0.023 C 
ATOM     11  C   UNL d   1     -54.870-102.332 -43.288  0.00  0.00     0.021 C 
ENDROOT
BRANCH   5  12
ATOM     12  N   UNL d   1     -54.773 -99.470 -43.160  0.00  0.00    -0.224 NA
BRANCH  12  13
ATOM     13  C   UNL d   1     -55.476 -99.107 -43.378  0.00  0.00     0.120 C 
BRANCH  13  14
ATOM     14  C   UNL d   1     -55.697 -99.084 -44.175  0.00  0.00     0.101 A 
ATOM     15  N   UNL d   1     -56.474 -99.281 -44.399  0.00  0.00    -0.242 NA
ATOM     16  C   UNL d   1     -56.694 -99.257 -45.193  0.00  0.00     0.099 A 
ATOM     17  C   UNL d   1     -56.137 -99.036 -45.768  0.00  0.00     0.021 A 
ATOM     18  C   UNL d   1     -55.369 -98.842 -45.547  0.00  0.00     0.003 A 
ATOM     19  C   UNL d   1     -55.150 -98.865 -44.753  0.00  0.00     0.021 A 
ENDBRANCH  13  14
ENDBRANCH  12  13
ENDBRANCH   5  12
BRANCH   4  20
ATOM     20  C   UNL d   1     -54.777-101.333 -40.109  0.00  0.00     0.004 A 
ATOM     21  C   UNL d   1     -54.730-102.148 -40.222  0.00  0.00     0.001 A 
ATOM     22  C   UNL d   1     -54.735-102.662 -39.577  0.00  0.00     0.011 A 
ATOM     23  C   UNL d   1     -54.787-102.353 -38.813  0.00  0.00     0.058 A 
ATOM     24  C   UNL d   1     -54.834-101.532 -38.699  0.00  0.00     0.011 A 
ATOM     25 CL   UNL d   1     -54.791-102.878 -38.158  0.00  0.00    -0.082 Cl
ATOM     26  C   UNL d   1     -54.829-101.023 -39.345  0.00  0.00     0.001 A 
ENDBRANCH   4  20
TORSDOF 4
ENDMDL
