MODEL 1
REMARK VINA RESULT:      55.1      0.000      0.000
REMARK  6 active torsions:
REMARK  status: ('A' for Active; 'I' for Inactive)
REMARK    1  A    between atoms: S_2  and  C_1 
REMARK    2  A    between atoms: C_7  and  S_2 
REMARK    3  A    between atoms: N_10  and  C_6 
REMARK    4  A    between atoms: C_18  and  N_10 
REMARK    5  A    between atoms: N_14  and  C_19 
REMARK    6  A    between atoms: C_19  and  C_18 
ROOT
ATOM      1  C   UNL d   1      60.073  48.961  50.673  0.00  0.00     0.187 A 
ATOM      2  N   UNL d   1      60.449  48.540  50.118  0.00  0.00    -0.208 NA
ATOM      3  C   UNL d   1      60.613  49.209  51.203  0.00  0.00     0.118 A 
ATOM      4  S   UNL d   1      61.324  48.938  50.971  0.00  0.00    -0.035 SA
ATOM      5  C   UNL d   1      61.224  48.523  50.297  0.00  0.00     0.196 A 
ATOM      6 CL   UNL d   1      60.463  49.663  51.870  0.00  0.00    -0.073 Cl
ENDROOT
BRANCH   1   7
ATOM      7  S   UNL d   1      59.269  49.116  50.700  0.00  0.00     0.228 S 
ATOM      8  O   UNL d   1      59.233  49.526  49.842  0.00  0.00    -0.216 OA
ATOM      9  O   UNL d   1      59.254  48.720  51.549  0.00  0.00    -0.216 OA
BRANCH   7  10
ATOM     10  C   UNL d   1      58.463  49.263  50.744  0.00  0.00     0.089 A 
ATOM     11  C   UNL d   1      57.999  49.226  50.064  0.00  0.00     0.011 A 
ATOM     12  C   UNL d   1      57.190  49.373  50.104  0.00  0.00     0.001 A 
ATOM     13  C   UNL d   1      56.844  49.559  50.830  0.00  0.00     0.000 A 
ATOM     14  C   UNL d   1      57.307  49.598  51.517  0.00  0.00     0.001 A 
ATOM     15  C   UNL d   1      56.033  49.707  50.872  0.00  0.00     0.000 C 
ATOM     16  C   UNL d   1      58.120  49.448  51.465  0.00  0.00     0.011 A 
ENDBRANCH   7  10
ENDBRANCH   1   7
BRANCH   5  17
ATOM     17  N   UNL d   1      61.818  48.146  49.868  0.00  0.00    -0.218 NA
BRANCH  17  18
ATOM     18  C   UNL d   1      61.964  47.356  49.984  0.00  0.00     0.120 C 
BRANCH  18  19
ATOM     19  C   UNL d   1      62.227  46.882  49.352  0.00  0.00     0.101 C 
BRANCH  19  20
ATOM     20  N   UNL d   1      62.317  46.069  49.454  0.00  0.00    -0.299 N 
ATOM     21  C   UNL d   1      61.660  45.583  49.508  0.00  0.00     0.100 C 
ATOM     22  C   UNL d   1      63.072  45.742  49.502  0.00  0.00     0.100 C 
ENDBRANCH  19  20
ENDBRANCH  18  19
ENDBRANCH  17  18
ENDBRANCH   5  17
TORSDOF 6
ENDMDL
MODEL 2
REMARK VINA RESULT:      56.7      2.231      4.430
REMARK  6 active torsions:
REMARK  status: ('A' for Active; 'I' for Inactive)
REMARK    1  A    between atoms: S_2  and  C_1 
REMARK    2  A    between atoms: C_7  and  S_2 
REMARK    3  A    between atoms: N_10  and  C_6 
REMARK    4  A    between atoms: C_18  and  N_10 
REMARK    5  A    between atoms: N_14  and  C_19 
REMARK    6  A    between atoms: C_19  and  C_18 
ROOT
ATOM      1  C   UNL d   1      60.077  49.402  50.615  0.00  0.00     0.187 A 
ATOM      2  N   UNL d   1      59.296  49.273  50.598  0.00  0.00    -0.208 NA
ATOM      3  C   UNL d   1      60.326  49.508  49.866  0.00  0.00     0.118 A 
ATOM      4  S   UNL d   1      59.694  49.443  49.387  0.00  0.00    -0.035 SA
ATOM      5  C   UNL d   1      59.054  49.297  49.840  0.00  0.00     0.196 A 
ATOM      6 CL   UNL d   1      61.098  49.658  49.629  0.00  0.00    -0.073 Cl
ENDROOT
BRANCH   1   7
ATOM      7  S   UNL d   1      60.549  49.425  51.284  0.00  0.00     0.228 S 
ATOM      8  O   UNL d   1      61.341  49.139  50.838  0.00  0.00    -0.216 OA
ATOM      9  O   UNL d   1      59.798  49.708  51.766  0.00  0.00    -0.216 OA
BRANCH   7  10
ATOM     10  C   UNL d   1      61.007  49.452  51.964  0.00  0.00     0.089 A 
ATOM     11  C   UNL d   1      60.673  49.267  52.695  0.00  0.00     0.011 A 
ATOM     12  C   UNL d   1      61.129  49.293  53.379  0.00  0.00     0.001 A 
ATOM     13  C   UNL d   1      61.925  49.507  53.331  0.00  0.00     0.000 A 
ATOM     14  C   UNL d   1      62.265  49.694  52.599  0.00  0.00     0.001 A 
ATOM     15  C   UNL d   1      62.385  49.534  54.017  0.00  0.00     0.000 C 
ATOM     16  C   UNL d   1      61.798  49.665  51.917  0.00  0.00     0.011 A 
ENDBRANCH   7  10
ENDBRANCH   1   7
BRANCH   5  17
ATOM     17  N   UNL d   1      58.284  49.191  49.569  0.00  0.00    -0.218 NA
BRANCH  17  18
ATOM     18  C   UNL d   1      57.689  49.675  49.835  0.00  0.00     0.120 C 
BRANCH  18  19
ATOM     19  C   UNL d   1      57.359  49.556  50.590  0.00  0.00     0.101 C 
BRANCH  19  20
ATOM     20  N   UNL d   1      56.544  49.613  50.699  0.00  0.00    -0.299 N 
ATOM     21  C   UNL d   1      56.231  49.691  51.452  0.00  0.00     0.100 C 
ATOM     22  C   UNL d   1      56.039  49.590  50.048  0.00  0.00     0.100 C 
ENDBRANCH  19  20
ENDBRANCH  18  19
ENDBRANCH  17  18
ENDBRANCH   5  17
TORSDOF 6
ENDMDL
