MODEL 1
REMARK VINA RESULT:       8.4      0.000      0.000
REMARK  3 active torsions:
REMARK  status: ('A' for Active; 'I' for Inactive)
REMARK    1  A    between atoms: N_9  and  C_2 
REMARK    2  A    between atoms: C_15  and  C_7 
REMARK    3  A    between atoms: C_11  and  C_14 
ROOT
ATOM      1  C   UNL d   1      58.109   0.302  32.704  0.00  0.00     0.152 A 
ATOM      2  C   UNL d   1      57.457   0.175  32.204  0.00  0.00     0.174 A 
ATOM      3  C   UNL d   1      57.992   0.433  33.516  0.00  0.00     0.111 A 
ATOM      4  N   UNL d   1      56.686   0.180  32.528  0.00  0.00    -0.207 NA
ATOM      5  N   UNL d   1      57.233   0.438  33.834  0.00  0.00    -0.225 NA
ATOM      6  O   UNL d   1      58.876   0.297  32.383  0.00  0.00    -0.302 OA
ATOM      7  C   UNL d   1      56.576   0.312  33.345  0.00  0.00     0.164 A 
ATOM      8  C   UNL d   1      59.415   0.554  33.688  0.00  0.00     0.043 A 
ATOM      9  C   UNL d   1      59.532   0.423  32.875  0.00  0.00     0.102 A 
ATOM     10  C   UNL d   1      60.068   0.679  34.176  0.00  0.00     0.004 A 
ATOM     11  C   UNL d   1      60.286   0.417  32.557  0.00  0.00     0.025 A 
ATOM     12  C   UNL d   1      60.826   0.674  33.858  0.00  0.00     0.000 A 
ATOM     13  C   UNL d   1      60.935   0.542  33.044  0.00  0.00     0.002 A 
ENDROOT
BRANCH   2  14
ATOM     14  N   UNL d   1      57.565   0.044  31.399  0.00  0.00    -0.287 N 
ATOM     15  C   UNL d   1      57.582   0.681  30.887  0.00  0.00     0.082 A 
ATOM     16  C   UNL d   1      57.691   0.547  30.083  0.00  0.00     0.025 A 
ATOM     17  C   UNL d   1      57.781  -0.222  29.799  0.00  0.00     0.067 A 
ATOM     18  C   UNL d   1      57.762  -0.854  30.319  0.00  0.00     0.025 A 
ATOM     19  C   UNL d   1      57.654  -0.724  31.123  0.00  0.00     0.082 A 
BRANCH  17  20
ATOM     20  C   UNL d   1      57.892  -0.357  28.969  0.00  0.00     0.211 C 
ATOM     21  O   UNL d   1      58.079   0.290  28.457  0.00  0.00    -0.644 OA
ATOM     22  O   UNL d   1      57.816  -1.137  28.656  0.00  0.00    -0.644 OA
ENDBRANCH  17  20
ENDBRANCH   2  14
BRANCH   7  23
ATOM     23  C   UNL d   1      55.822   0.318  33.664  0.00  0.00     0.036 A 
ATOM     24  C   UNL d   1      55.205  -0.024  33.260  0.00  0.00     0.003 A 
ATOM     25  C   UNL d   1      54.440  -0.019  33.581  0.00  0.00     0.000 A 
ATOM     26  C   UNL d   1      54.309   0.333  34.312  0.00  0.00     0.000 A 
ATOM     27  C   UNL d   1      54.941   0.681  34.724  0.00  0.00     0.000 A 
ATOM     28  C   UNL d   1      55.687   0.672  34.401  0.00  0.00     0.003 A 
ENDBRANCH   7  23
TORSDOF 3
ENDMDL
