MODEL 1
REMARK VINA RESULT:      51.7      0.000      0.000
REMARK  4 active torsions:
REMARK  status: ('A' for Active; 'I' for Inactive)
REMARK    1  A    between atoms: C_6  and  N_1 
REMARK    2  A    between atoms: C_8  and  C_14 
REMARK    3  A    between atoms: O_20  and  C_8 
REMARK    4  A    between atoms: C_22  and  O_20 
ROOT
ATOM      1  N   UNL d   1     -55.000-101.548 -40.158  0.00  0.00    -0.242 N 
ATOM      2  C   UNL d   1     -55.063-102.074 -40.821  0.00  0.00     0.267 A 
ATOM      3  C   UNL d   1     -54.878-100.853 -40.355  0.00  0.00     0.267 A 
ATOM      4  C   UNL d   1     -54.957-101.576 -41.471  0.00  0.00     0.061 A 
ATOM      5  C   UNL d   1     -54.840-100.802 -41.175  0.00  0.00     0.061 A 
ATOM      6  C   UNL d   1     -54.714-100.155 -41.689  0.00  0.00     0.005 A 
ATOM      7  C   UNL d   1     -54.947-101.695 -42.278  0.00  0.00     0.005 A 
ATOM      8  O   UNL d   1     -55.195-102.880 -40.841  0.00  0.00    -0.267 OA
ATOM      9  O   UNL d   1     -54.793-100.217 -39.824  0.00  0.00    -0.267 OA
ATOM     10  C   UNL d   1     -54.711-100.317 -42.494  0.00  0.00     0.000 A 
ATOM     11  C   UNL d   1     -54.828-101.092 -42.790  0.00  0.00     0.000 A 
ATOM     12  C   UNL d   1     -54.818-101.211 -43.596  0.00  0.00     0.000 C 
ENDROOT
BRANCH   1  13
ATOM     13  C   UNL d   1     -55.065-101.761 -39.364  0.00  0.00     0.070 A 
ATOM     14  C   UNL d   1     -55.416-102.478 -39.143  0.00  0.00     0.018 A 
ATOM     15  C   UNL d   1     -55.481-102.692 -38.350  0.00  0.00     0.007 A 
ATOM     16  C   UNL d   1     -55.198-102.199 -37.756  0.00  0.00     0.064 A 
ATOM     17  C   UNL d   1     -54.828-101.446 -37.970  0.00  0.00     0.007 A 
ATOM     18  C   UNL d   1     -54.773-101.247 -38.808  0.00  0.00     0.018 A 
BRANCH  16  19
ATOM     19  C   UNL d   1     -55.285-102.455 -36.972  0.00  0.00     0.300 C 
ATOM     20  O   UNL d   1     -55.987-102.878 -36.752  0.00  0.00    -0.259 OA
BRANCH  19  21
ATOM     21  O   UNL d   1     -54.711-102.297 -36.458  0.00  0.00    -0.271 OA
BRANCH  21  22
ATOM     22  C   UNL d   1     -54.895-102.213 -35.687  0.00  0.00     0.126 C 
ATOM     23  C   UNL d   1     -54.899-101.447 -35.320  0.00  0.00     0.029 C 
ENDBRANCH  21  22
ENDBRANCH  19  21
ENDBRANCH  16  19
ENDBRANCH   1  13
TORSDOF 4
ENDMDL
MODEL 2
REMARK VINA RESULT:      54.7      1.661      3.216
REMARK  4 active torsions:
REMARK  status: ('A' for Active; 'I' for Inactive)
REMARK    1  A    between atoms: C_6  and  N_1 
REMARK    2  A    between atoms: C_8  and  C_14 
REMARK    3  A    between atoms: O_20  and  C_8 
REMARK    4  A    between atoms: C_22  and  O_20 
ROOT
ATOM      1  N   UNL d   1     -54.838-100.750 -42.998  0.00  0.00    -0.242 N 
ATOM      2  C   UNL d   1     -54.837 -99.927 -43.207  0.00  0.00     0.267 A 
ATOM      3  C   UNL d   1     -54.867-101.192 -43.581  0.00  0.00     0.267 A 
ATOM      4  C   UNL d   1     -54.870 -99.939 -44.032  0.00  0.00     0.061 A 
ATOM      5  C   UNL d   1     -54.889-100.741 -44.269  0.00  0.00     0.061 A 
ATOM      6  C   UNL d   1     -54.924-100.954 -45.076  0.00  0.00     0.005 A 
ATOM      7  C   UNL d   1     -54.886 -99.358 -44.605  0.00  0.00     0.005 A 
ATOM      8  O   UNL d   1     -54.810 -99.264 -42.730  0.00  0.00    -0.267 OA
ATOM      9  O   UNL d   1     -54.875-102.024 -43.546  0.00  0.00    -0.267 OA
ATOM     10  C   UNL d   1     -54.939-100.340 -45.621  0.00  0.00     0.000 A 
ATOM     11  C   UNL d   1     -54.920 -99.538 -45.384  0.00  0.00     0.000 A 
ATOM     12  C   UNL d   1     -54.936 -98.958 -45.956  0.00  0.00     0.000 C 
ENDROOT
BRANCH   1  13
ATOM     13  C   UNL d   1     -54.811-101.054 -42.233  0.00  0.00     0.070 A 
ATOM     14  C   UNL d   1     -54.849-101.870 -42.098  0.00  0.00     0.018 A 
ATOM     15  C   UNL d   1     -54.822-102.175 -41.332  0.00  0.00     0.007 A 
ATOM     16  C   UNL d   1     -54.756-101.677 -40.682  0.00  0.00     0.064 A 
ATOM     17  C   UNL d   1     -54.715-100.820 -40.806  0.00  0.00     0.007 A 
ATOM     18  C   UNL d   1     -54.746-100.528 -41.618  0.00  0.00     0.018 A 
BRANCH  16  19
ATOM     19  C   UNL d   1     -54.733-102.028 -39.931  0.00  0.00     0.300 C 
ATOM     20  O   UNL d   1     -54.713-102.874 -39.872  0.00  0.00    -0.259 OA
BRANCH  19  21
ATOM     21  O   UNL d   1     -54.730-101.563 -39.297  0.00  0.00    -0.271 OA
BRANCH  21  22
ATOM     22  C   UNL d   1     -54.978-101.857 -38.600  0.00  0.00     0.126 C 
ATOM     23  C   UNL d   1     -54.943-102.691 -38.439  0.00  0.00     0.029 C 
ENDBRANCH  21  22
ENDBRANCH  19  21
ENDBRANCH  16  19
ENDBRANCH   1  13
TORSDOF 4
ENDMDL
