MODEL 1
REMARK VINA RESULT:      -8.3      0.000      0.000
REMARK  4 active torsions:
REMARK  status: ('A' for Active; 'I' for Inactive)
REMARK    1  A    between atoms: C_6  and  S_1 
REMARK    2  A    between atoms: N_8  and  S_1 
REMARK    3  A    between atoms: C_17  and  N_8 
REMARK    4  A    between atoms: N_16  and  C_15 
ROOT
ATOM      1  N   UNL d   1      52.163  34.862  53.787  0.00  0.00    -0.273 N 
ATOM      2  C   UNL d   1      52.833  35.136  54.213  0.00  0.00     0.265 A 
ATOM      3  C   UNL d   1      52.319  34.088  53.546  0.00  0.00     0.067 A 
ATOM      4  C   UNL d   1      53.033  33.739  53.738  0.00  0.00     0.022 A 
ATOM      5  C   UNL d   1      52.626  32.548  53.062  0.00  0.00     0.105 A 
ATOM      6  C   UNL d   1      51.756  33.671  53.111  0.00  0.00     0.017 A 
ATOM      7  C   UNL d   1      53.489  34.289  54.176  0.00  0.00     0.063 A 
ATOM      8  C   UNL d   1      53.189  32.966  53.497  0.00  0.00     0.015 A 
ATOM      9  C   UNL d   1      51.906  32.904  52.869  0.00  0.00     0.014 A 
ATOM     10  O   UNL d   1      52.835  35.902  54.526  0.00  0.00    -0.267 OA
ATOM     11  C   UNL d   1      51.443  35.218  53.595  0.00  0.00     0.083 A 
ATOM     12  C   UNL d   1      51.045  34.033  52.926  0.00  0.00     0.003 A 
ATOM     13  C   UNL d   1      50.880  34.800  53.161  0.00  0.00     0.019 A 
ENDROOT
BRANCH   5  14
ATOM     14  S   UNL d   1      52.787  31.767  52.820  0.00  0.00     0.285 S 
ATOM     15  O   UNL d   1      52.001  31.571  52.981  0.00  0.00    -0.198 OA
ATOM     16  O   UNL d   1      53.576  31.980  52.661  0.00  0.00    -0.198 OA
BRANCH  14  17
ATOM     17  N   UNL d   1      52.946  30.996  52.580  0.00  0.00    -0.158 NA
BRANCH  17  18
ATOM     18  C   UNL d   1      53.070  30.409  53.147  0.00  0.00     0.094 A 
ATOM     19  C   UNL d   1      53.802  30.339  53.513  0.00  0.00     0.021 A 
ATOM     20  C   UNL d   1      53.926  29.752  54.080  0.00  0.00     0.019 A 
ATOM     21  C   UNL d   1      53.319  29.236  54.280  0.00  0.00     0.064 A 
ATOM     22  C   UNL d   1      52.583  29.306  53.913  0.00  0.00     0.019 A 
ATOM     23  C   UNL d   1      52.459  29.892  53.346  0.00  0.00     0.021 A 
BRANCH  21  24
ATOM     24  N   UNL d   1      53.444  28.650  54.847  0.00  0.00    -0.301 N 
ATOM     25  C   UNL d   1      53.783  27.930  54.627  0.00  0.00     0.100 C 
ATOM     26  C   UNL d   1      53.229  28.783  55.632  0.00  0.00     0.100 C 
ENDBRANCH  21  24
ENDBRANCH  17  18
ENDBRANCH  14  17
ENDBRANCH   5  14
TORSDOF 4
ENDMDL
MODEL 2
REMARK VINA RESULT:      -8.0      2.399      5.075
REMARK  4 active torsions:
REMARK  status: ('A' for Active; 'I' for Inactive)
REMARK    1  A    between atoms: C_6  and  S_1 
REMARK    2  A    between atoms: N_8  and  S_1 
REMARK    3  A    between atoms: C_17  and  N_8 
REMARK    4  A    between atoms: N_16  and  C_15 
ROOT
ATOM      1  N   UNL d   1      53.822  33.623  54.300  0.00  0.00    -0.273 N 
ATOM      2  C   UNL d   1      53.949  34.360  54.683  0.00  0.00     0.265 A 
ATOM      3  C   UNL d   1      53.125  33.684  53.864  0.00  0.00     0.067 A 
ATOM      4  C   UNL d   1      52.703  34.384  53.868  0.00  0.00     0.022 A 
ATOM      5  C   UNL d   1      51.736  33.800  52.993  0.00  0.00     0.105 A 
ATOM      6  C   UNL d   1      52.856  33.039  53.425  0.00  0.00     0.017 A 
ATOM      7  C   UNL d   1      53.104  34.934  54.357  0.00  0.00     0.063 A 
ATOM      8  C   UNL d   1      52.005  34.445  53.432  0.00  0.00     0.015 A 
ATOM      9  C   UNL d   1      52.165  33.094  52.991  0.00  0.00     0.014 A 
ATOM     10  O   UNL d   1      54.614  34.463  55.165  0.00  0.00    -0.267 OA
ATOM     11  C   UNL d   1      54.251  32.918  54.299  0.00  0.00     0.083 A 
ATOM     12  C   UNL d   1      53.289  32.344  53.430  0.00  0.00     0.003 A 
ATOM     13  C   UNL d   1      53.982  32.273  53.860  0.00  0.00     0.019 A 
ENDROOT
BRANCH   5  14
ATOM     14  S   UNL d   1      51.031  33.865  52.553  0.00  0.00     0.285 S 
ATOM     15  O   UNL d   1      50.665  33.358  53.092  0.00  0.00    -0.198 OA
ATOM     16  O   UNL d   1      51.414  34.376  52.017  0.00  0.00    -0.198 OA
BRANCH  14  17
ATOM     17  N   UNL d   1      50.335  33.929  52.119  0.00  0.00    -0.158 NA
BRANCH  17  18
ATOM     18  C   UNL d   1      49.762  34.479  52.343  0.00  0.00     0.094 A 
ATOM     19  C   UNL d   1      49.673  34.681  53.134  0.00  0.00     0.021 A 
ATOM     20  C   UNL d   1      49.100  35.231  53.358  0.00  0.00     0.019 A 
ATOM     21  C   UNL d   1      48.617  35.579  52.792  0.00  0.00     0.064 A 
ATOM     22  C   UNL d   1      48.706  35.376  51.996  0.00  0.00     0.019 A 
ATOM     23  C   UNL d   1      49.278  34.826  51.772  0.00  0.00     0.021 A 
BRANCH  21  24
ATOM     24  N   UNL d   1      48.044  36.128  53.016  0.00  0.00    -0.301 N 
ATOM     25  C   UNL d   1      48.060  36.454  53.775  0.00  0.00     0.100 C 
ATOM     26  C   UNL d   1      47.456  36.353  52.482  0.00  0.00     0.100 C 
ENDBRANCH  21  24
ENDBRANCH  17  18
ENDBRANCH  14  17
ENDBRANCH   5  14
TORSDOF 4
ENDMDL
MODEL 3
REMARK VINA RESULT:      -7.9      2.997      4.513
REMARK  4 active torsions:
REMARK  status: ('A' for Active; 'I' for Inactive)
REMARK    1  A    between atoms: C_6  and  S_1 
REMARK    2  A    between atoms: N_8  and  S_1 
REMARK    3  A    between atoms: C_17  and  N_8 
REMARK    4  A    between atoms: N_16  and  C_15 
ROOT
ATOM      1  N   UNL d   1      47.828  35.647  52.210  0.00  0.00    -0.273 N 
ATOM      2  C   UNL d   1      47.484  35.490  51.459  0.00  0.00     0.265 A 
ATOM      3  C   UNL d   1      48.545  35.240  52.245  0.00  0.00     0.067 A 
ATOM      4  C   UNL d   1      48.790  34.791  51.608  0.00  0.00     0.022 A 
ATOM      5  C   UNL d   1      49.975  34.433  52.321  0.00  0.00     0.105 A 
ATOM      6  C   UNL d   1      49.013  35.289  52.923  0.00  0.00     0.017 A 
ATOM      7  C   UNL d   1      48.209  34.845  51.005  0.00  0.00     0.063 A 
ATOM      8  C   UNL d   1      49.507  34.385  51.643  0.00  0.00     0.015 A 
ATOM      9  C   UNL d   1      49.725  34.888  52.964  0.00  0.00     0.014 A 
ATOM     10  O   UNL d   1      46.754  35.828  51.265  0.00  0.00    -0.267 OA
ATOM     11  C   UNL d   1      47.578  36.101  52.851  0.00  0.00     0.083 A 
ATOM     12  C   UNL d   1      48.755  35.743  53.554  0.00  0.00     0.003 A 
ATOM     13  C   UNL d   1      48.045  36.150  53.529  0.00  0.00     0.019 A 
ENDROOT
BRANCH   5  14
ATOM     14  S   UNL d   1      50.699  34.022  52.354  0.00  0.00     0.285 S 
ATOM     15  O   UNL d   1      50.395  33.567  52.974  0.00  0.00    -0.198 OA
ATOM     16  O   UNL d   1      50.991  34.488  51.728  0.00  0.00    -0.198 OA
BRANCH  14  17
ATOM     17  N   UNL d   1      51.414  33.615  52.386  0.00  0.00    -0.158 NA
BRANCH  17  18
ATOM     18  C   UNL d   1      51.961  33.796  52.977  0.00  0.00     0.094 A 
ATOM     19  C   UNL d   1      52.372  34.506  52.954  0.00  0.00     0.021 A 
ATOM     20  C   UNL d   1      52.919  34.686  53.545  0.00  0.00     0.019 A 
ATOM     21  C   UNL d   1      53.054  34.157  54.158  0.00  0.00     0.064 A 
ATOM     22  C   UNL d   1      52.641  33.443  54.183  0.00  0.00     0.019 A 
ATOM     23  C   UNL d   1      52.094  33.262  53.592  0.00  0.00     0.021 A 
BRANCH  21  24
ATOM     24  N   UNL d   1      53.601  34.338  54.749  0.00  0.00    -0.301 N 
ATOM     25  C   UNL d   1      53.511  35.024  55.198  0.00  0.00     0.100 C 
ATOM     26  C   UNL d   1      54.238  33.832  54.890  0.00  0.00     0.100 C 
ENDBRANCH  21  24
ENDBRANCH  17  18
ENDBRANCH  14  17
ENDBRANCH   5  14
TORSDOF 4
ENDMDL
MODEL 4
REMARK VINA RESULT:      -7.7      2.911      4.254
REMARK  4 active torsions:
REMARK  status: ('A' for Active; 'I' for Inactive)
REMARK    1  A    between atoms: C_6  and  S_1 
REMARK    2  A    between atoms: N_8  and  S_1 
REMARK    3  A    between atoms: C_17  and  N_8 
REMARK    4  A    between atoms: N_16  and  C_15 
ROOT
ATOM      1  N   UNL d   1      47.971  35.639  52.380  0.00  0.00    -0.273 N 
ATOM      2  C   UNL d   1      47.886  36.014  53.127  0.00  0.00     0.265 A 
ATOM      3  C   UNL d   1      48.686  35.226  52.388  0.00  0.00     0.067 A 
ATOM      4  C   UNL d   1      49.157  35.242  53.055  0.00  0.00     0.022 A 
ATOM      5  C   UNL d   1      50.108  34.402  52.398  0.00  0.00     0.105 A 
ATOM      6  C   UNL d   1      48.922  34.799  51.723  0.00  0.00     0.017 A 
ATOM      7  C   UNL d   1      48.780  35.715  53.636  0.00  0.00     0.063 A 
ATOM      8  C   UNL d   1      49.872  34.830  53.063  0.00  0.00     0.015 A 
ATOM      9  C   UNL d   1      49.629  34.388  51.725  0.00  0.00     0.014 A 
ATOM     10  O   UNL d   1      47.214  36.472  53.281  0.00  0.00    -0.267 OA
ATOM     11  C   UNL d   1      47.492  35.624  51.708  0.00  0.00     0.083 A 
ATOM     12  C   UNL d   1      48.439  34.791  51.061  0.00  0.00     0.003 A 
ATOM     13  C   UNL d   1      47.728  35.197  51.043  0.00  0.00     0.019 A 
ENDROOT
BRANCH   5  14
ATOM     14  S   UNL d   1      50.830  33.987  52.409  0.00  0.00     0.285 S 
ATOM     15  O   UNL d   1      50.522  33.496  52.998  0.00  0.00    -0.198 OA
ATOM     16  O   UNL d   1      51.127  34.489  51.815  0.00  0.00    -0.198 OA
BRANCH  14  17
ATOM     17  N   UNL d   1      51.543  33.576  52.420  0.00  0.00    -0.158 NA
BRANCH  17  18
ATOM     18  C   UNL d   1      52.093  33.728  53.016  0.00  0.00     0.094 A 
ATOM     19  C   UNL d   1      52.523  34.427  53.011  0.00  0.00     0.021 A 
ATOM     20  C   UNL d   1      53.073  34.579  53.607  0.00  0.00     0.019 A 
ATOM     21  C   UNL d   1      53.194  34.032  54.207  0.00  0.00     0.064 A 
ATOM     22  C   UNL d   1      52.762  33.328  54.213  0.00  0.00     0.019 A 
ATOM     23  C   UNL d   1      52.212  33.176  53.618  0.00  0.00     0.021 A 
BRANCH  21  24
ATOM     24  N   UNL d   1      53.744  34.184  54.803  0.00  0.00    -0.301 N 
ATOM     25  C   UNL d   1      54.375  33.666  54.923  0.00  0.00     0.100 C 
ATOM     26  C   UNL d   1      53.662  34.853  55.278  0.00  0.00     0.100 C 
ENDBRANCH  21  24
ENDBRANCH  17  18
ENDBRANCH  14  17
ENDBRANCH   5  14
TORSDOF 4
ENDMDL
MODEL 5
REMARK VINA RESULT:      -7.1      1.949      5.099
REMARK  4 active torsions:
REMARK  status: ('A' for Active; 'I' for Inactive)
REMARK    1  A    between atoms: C_6  and  S_1 
REMARK    2  A    between atoms: N_8  and  S_1 
REMARK    3  A    between atoms: C_17  and  N_8 
REMARK    4  A    between atoms: N_16  and  C_15 
ROOT
ATOM      1  N   UNL d   1      53.611  31.511  53.422  0.00  0.00    -0.273 N 
ATOM      2  C   UNL d   1      53.188  30.831  53.166  0.00  0.00     0.265 A 
ATOM      3  C   UNL d   1      53.101  32.158  53.368  0.00  0.00     0.067 A 
ATOM      4  C   UNL d   1      52.337  32.051  53.100  0.00  0.00     0.022 A 
ATOM      5  C   UNL d   1      52.090  33.449  53.263  0.00  0.00     0.105 A 
ATOM      6  C   UNL d   1      53.365  32.909  53.585  0.00  0.00     0.017 A 
ATOM      7  C   UNL d   1      52.227  31.238  52.923  0.00  0.00     0.063 A 
ATOM      8  C   UNL d   1      51.827  32.697  53.046  0.00  0.00     0.015 A 
ATOM      9  C   UNL d   1      52.863  33.553  53.533  0.00  0.00     0.014 A 
ATOM     10  O   UNL d   1      53.563  30.093  53.160  0.00  0.00    -0.267 OA
ATOM     11  C   UNL d   1      54.384  31.614  53.692  0.00  0.00     0.083 A 
ATOM     12  C   UNL d   1      54.133  33.001  53.852  0.00  0.00     0.003 A 
ATOM     13  C   UNL d   1      54.647  32.366  53.909  0.00  0.00     0.019 A 
ENDROOT
BRANCH   5  14
ATOM     14  S   UNL d   1      51.573  34.100  53.207  0.00  0.00     0.285 S 
ATOM     15  O   UNL d   1      51.090  33.746  53.777  0.00  0.00    -0.198 OA
ATOM     16  O   UNL d   1      52.069  34.444  52.633  0.00  0.00    -0.198 OA
BRANCH  14  17
ATOM     17  N   UNL d   1      51.062  34.743  53.152  0.00  0.00    -0.158 NA
BRANCH  17  18
ATOM     18  C   UNL d   1      50.411  34.706  52.646  0.00  0.00     0.094 A 
ATOM     19  C   UNL d   1      50.517  34.521  51.853  0.00  0.00     0.021 A 
ATOM     20  C   UNL d   1      49.867  34.484  51.346  0.00  0.00     0.019 A 
ATOM     21  C   UNL d   1      49.111  34.633  51.633  0.00  0.00     0.064 A 
ATOM     22  C   UNL d   1      49.004  34.819  52.430  0.00  0.00     0.019 A 
ATOM     23  C   UNL d   1      49.654  34.856  52.936  0.00  0.00     0.021 A 
BRANCH  21  24
ATOM     24  N   UNL d   1      48.461  34.596  51.126  0.00  0.00    -0.301 N 
ATOM     25  C   UNL d   1      47.944  35.237  51.072  0.00  0.00     0.100 C 
ATOM     26  C   UNL d   1      48.328  33.919  50.674  0.00  0.00     0.100 C 
ENDBRANCH  21  24
ENDBRANCH  17  18
ENDBRANCH  14  17
ENDBRANCH   5  14
TORSDOF 4
ENDMDL
