MODEL 1
REMARK VINA RESULT:      -5.0      0.000      0.000
REMARK  7 active torsions:
REMARK  status: ('A' for Active; 'I' for Inactive)
REMARK    1  A    between atoms: C_3  and  C_1 
REMARK    2  A    between atoms: C_4  and  C_1 
REMARK    3  A    between atoms: N_2  and  C_6 
REMARK    4  A    between atoms: C_6  and  C_13 
REMARK    5  A    between atoms: O_12  and  C_14 
REMARK    6  A    between atoms: C_16  and  O_12 
REMARK    7  A    between atoms: C_13  and  C_16 
ROOT
ATOM      1  C   UNL d   1     -46.061  13.082  22.696  0.00  0.00     0.039 A 
ATOM      2  C   UNL d   1     -45.735  13.636  22.171  0.00  0.00     0.005 A 
ATOM      3  C   UNL d   1     -45.647  12.398  22.876  0.00  0.00     0.005 A 
ATOM      4  C   UNL d   1     -44.592  12.811  22.020  0.00  0.00     0.100 A 
ATOM      5  C   UNL d   1     -45.006  13.495  21.840  0.00  0.00     0.025 A 
ATOM      6  C   UNL d   1     -44.904  12.263  22.533  0.00  0.00     0.025 A 
ENDROOT
BRANCH   4   7
ATOM      7  O   UNL d   1     -43.842  12.679  21.671  0.00  0.00    -0.302 OA
BRANCH   7   8
ATOM      8  C   UNL d   1     -43.343  13.321  21.457  0.00  0.00     0.166 C 
BRANCH   8   9
ATOM      9  C   UNL d   1     -42.625  13.177  21.059  0.00  0.00     0.238 C 
ATOM     10  O   UNL d   1     -42.616  12.718  20.373  0.00  0.00    -0.283 OA
BRANCH   9  11
ATOM     11  C   UNL d   1     -41.919  13.495  21.355  0.00  0.00     0.125 C 
BRANCH  11  12
ATOM     12  N   UNL d   1     -41.505  14.067  20.918  0.00  0.00    -0.296 N 
ATOM     13  C   UNL d   1     -40.982  13.833  20.325  0.00  0.00     0.107 A 
ATOM     14  C   UNL d   1     -40.575  14.411  19.896  0.00  0.00     0.142 A 
ATOM     15  O   UNL d   1     -40.690  15.221  20.059  0.00  0.00    -0.300 OA
ATOM     16  C   UNL d   1     -41.216  15.441  20.655  0.00  0.00     0.142 A 
ATOM     17  C   UNL d   1     -41.626  14.874  21.088  0.00  0.00     0.107 A 
ENDBRANCH  11  12
ENDBRANCH   9  11
ENDBRANCH   8   9
ENDBRANCH   7   8
ENDBRANCH   4   7
BRANCH   1  18
ATOM     18  C   UNL d   1     -46.799  13.220  23.034  0.00  0.00     0.196 C 
ATOM     19  O   UNL d   1     -46.866  13.705  23.697  0.00  0.00    -0.287 OA
BRANCH  18  20
ATOM     20  C   UNL d   1     -47.470  12.872  22.708  0.00  0.00     0.039 A 
ATOM     21  C   UNL d   1     -47.755  12.158  23.015  0.00  0.00     0.004 A 
ATOM     22  C   UNL d   1     -48.424  11.808  22.693  0.00  0.00     0.011 A 
ATOM     23  C   UNL d   1     -48.813  12.170  22.058  0.00  0.00     0.058 A 
ATOM     24  C   UNL d   1     -48.528  12.882  21.751  0.00  0.00     0.011 A 
ATOM     25 CL   UNL d   1     -49.484  11.821  21.732  0.00  0.00    -0.082 Cl
ATOM     26  C   UNL d   1     -47.855  13.230  22.080  0.00  0.00     0.004 A 
ENDBRANCH  18  20
ENDBRANCH   1  18
TORSDOF 7
ENDMDL
MODEL 2
REMARK VINA RESULT:      -4.5      2.589      6.400
REMARK  7 active torsions:
REMARK  status: ('A' for Active; 'I' for Inactive)
REMARK    1  A    between atoms: C_3  and  C_1 
REMARK    2  A    between atoms: C_4  and  C_1 
REMARK    3  A    between atoms: N_2  and  C_6 
REMARK    4  A    between atoms: C_6  and  C_13 
REMARK    5  A    between atoms: O_12  and  C_14 
REMARK    6  A    between atoms: C_16  and  O_12 
REMARK    7  A    between atoms: C_13  and  C_16 
ROOT
ATOM      1  C   UNL d   1     -40.933  14.549  20.386  0.00  0.00     0.039 A 
ATOM      2  C   UNL d   1     -41.499  14.932  20.857  0.00  0.00     0.005 A 
ATOM      3  C   UNL d   1     -40.952  13.733  20.308  0.00  0.00     0.005 A 
ATOM      4  C   UNL d   1     -42.085  13.677  21.161  0.00  0.00     0.100 A 
ATOM      5  C   UNL d   1     -42.067  14.494  21.239  0.00  0.00     0.025 A 
ATOM      6  C   UNL d   1     -41.536  13.295  20.701  0.00  0.00     0.025 A 
ENDROOT
BRANCH   4   7
ATOM      7  O   UNL d   1     -42.677  13.239  21.560  0.00  0.00    -0.302 OA
BRANCH   7   8
ATOM      8  C   UNL d   1     -43.486  13.297  21.338  0.00  0.00     0.166 C 
BRANCH   8   9
ATOM      9  C   UNL d   1     -44.054  12.801  21.694  0.00  0.00     0.238 C 
ATOM     10  O   UNL d   1     -43.814  12.193  22.197  0.00  0.00    -0.283 OA
BRANCH   9  11
ATOM     11  C   UNL d   1     -44.859  12.922  21.541  0.00  0.00     0.125 C 
BRANCH  11  12
ATOM     12  N   UNL d   1     -45.383  13.079  22.167  0.00  0.00    -0.296 N 
ATOM     13  C   UNL d   1     -45.627  13.852  22.313  0.00  0.00     0.107 A 
ATOM     14  C   UNL d   1     -46.149  13.998  22.939  0.00  0.00     0.142 A 
ATOM     15  O   UNL d   1     -46.425  13.372  23.416  0.00  0.00    -0.300 OA
ATOM     16  C   UNL d   1     -46.172  12.602  23.257  0.00  0.00     0.142 A 
ATOM     17  C   UNL d   1     -45.654  12.448  22.638  0.00  0.00     0.107 A 
ENDBRANCH  11  12
ENDBRANCH   9  11
ENDBRANCH   8   9
ENDBRANCH   7   8
ENDBRANCH   4   7
BRANCH   1  18
ATOM     18  C   UNL d   1     -40.355  14.988  19.997  0.00  0.00     0.196 C 
ATOM     19  O   UNL d   1     -39.710  15.283  20.415  0.00  0.00    -0.287 OA
BRANCH  18  20
ATOM     20  C   UNL d   1     -40.425  15.131  19.190  0.00  0.00     0.039 A 
ATOM     21  C   UNL d   1     -40.061  14.623  18.648  0.00  0.00     0.004 A 
ATOM     22  C   UNL d   1     -40.127  14.762  17.842  0.00  0.00     0.011 A 
ATOM     23  C   UNL d   1     -40.561  15.414  17.570  0.00  0.00     0.058 A 
ATOM     24  C   UNL d   1     -40.924  15.921  18.112  0.00  0.00     0.011 A 
ATOM     25 CL   UNL d   1     -40.630  15.556  16.763  0.00  0.00    -0.082 Cl
ATOM     26  C   UNL d   1     -40.854  15.776  18.921  0.00  0.00     0.004 A 
ENDBRANCH  18  20
ENDBRANCH   1  18
TORSDOF 7
ENDMDL
MODEL 3
REMARK VINA RESULT:      -4.4      2.325      3.958
REMARK  7 active torsions:
REMARK  status: ('A' for Active; 'I' for Inactive)
REMARK    1  A    between atoms: C_3  and  C_1 
REMARK    2  A    between atoms: C_4  and  C_1 
REMARK    3  A    between atoms: N_2  and  C_6 
REMARK    4  A    between atoms: C_6  and  C_13 
REMARK    5  A    between atoms: O_12  and  C_14 
REMARK    6  A    between atoms: C_16  and  O_12 
REMARK    7  A    between atoms: C_13  and  C_16 
ROOT
ATOM      1  C   UNL d   1     -49.603  12.507  22.640  0.00  0.00     0.039 A 
ATOM      2  C   UNL d   1     -49.398  12.187  23.377  0.00  0.00     0.005 A 
ATOM      3  C   UNL d   1     -49.048  12.527  22.036  0.00  0.00     0.005 A 
ATOM      4  C   UNL d   1     -48.095  11.915  22.891  0.00  0.00     0.100 A 
ATOM      5  C   UNL d   1     -48.649  11.895  23.495  0.00  0.00     0.025 A 
ATOM      6  C   UNL d   1     -48.286  12.227  22.166  0.00  0.00     0.025 A 
ENDROOT
BRANCH   4   7
ATOM      7  O   UNL d   1     -47.327  11.610  23.027  0.00  0.00    -0.302 OA
BRANCH   7   8
ATOM      8  C   UNL d   1     -46.702  12.107  23.293  0.00  0.00     0.166 C 
BRANCH   8   9
ATOM      9  C   UNL d   1     -45.919  11.822  23.308  0.00  0.00     0.238 C 
ATOM     10  O   UNL d   1     -45.774  11.010  23.294  0.00  0.00    -0.283 OA
BRANCH   9  11
ATOM     11  C   UNL d   1     -45.287  12.357  23.336  0.00  0.00     0.125 C 
BRANCH  11  12
ATOM     12  N   UNL d   1     -44.749  12.400  22.704  0.00  0.00    -0.296 N 
ATOM     13  C   UNL d   1     -44.810  13.011  22.154  0.00  0.00     0.107 A 
ATOM     14  C   UNL d   1     -44.268  13.044  21.528  0.00  0.00     0.142 A 
ATOM     15  O   UNL d   1     -43.670  12.469  21.454  0.00  0.00    -0.300 OA
ATOM     16  C   UNL d   1     -43.621  11.863  22.013  0.00  0.00     0.142 A 
ATOM     17  C   UNL d   1     -44.154  11.821  22.638  0.00  0.00     0.107 A 
ENDBRANCH  11  12
ENDBRANCH   9  11
ENDBRANCH   8   9
ENDBRANCH   7   8
ENDBRANCH   4   7
BRANCH   1  18
ATOM     18  C   UNL d   1     -50.360  12.805  22.515  0.00  0.00     0.196 C 
ATOM     19  O   UNL d   1     -50.941  12.328  22.176  0.00  0.00    -0.287 OA
BRANCH  18  20
ATOM     20  C   UNL d   1     -50.536  13.579  22.730  0.00  0.00     0.039 A 
ATOM     21  C   UNL d   1     -50.858  13.738  23.475  0.00  0.00     0.004 A 
ATOM     22  C   UNL d   1     -51.034  14.509  23.694  0.00  0.00     0.011 A 
ATOM     23  C   UNL d   1     -50.889  15.131  23.165  0.00  0.00     0.058 A 
ATOM     24  C   UNL d   1     -50.567  14.972  22.421  0.00  0.00     0.011 A 
ATOM     25 CL   UNL d   1     -51.064  15.905  23.380  0.00  0.00    -0.082 Cl
ATOM     26  C   UNL d   1     -50.392  14.194  22.207  0.00  0.00     0.004 A 
ENDBRANCH  18  20
ENDBRANCH   1  18
TORSDOF 7
ENDMDL
MODEL 4
REMARK VINA RESULT:      -3.8      3.157      4.197
REMARK  7 active torsions:
REMARK  status: ('A' for Active; 'I' for Inactive)
REMARK    1  A    between atoms: C_3  and  C_1 
REMARK    2  A    between atoms: C_4  and  C_1 
REMARK    3  A    between atoms: N_2  and  C_6 
REMARK    4  A    between atoms: C_6  and  C_13 
REMARK    5  A    between atoms: O_12  and  C_14 
REMARK    6  A    between atoms: C_16  and  O_12 
REMARK    7  A    between atoms: C_13  and  C_16 
ROOT
ATOM      1  C   UNL d   1     -48.845  12.991  22.683  0.00  0.00     0.039 A 
ATOM      2  C   UNL d   1     -48.641  12.544  23.352  0.00  0.00     0.005 A 
ATOM      3  C   UNL d   1     -48.256  13.282  22.192  0.00  0.00     0.005 A 
ATOM      4  C   UNL d   1     -47.269  12.691  23.024  0.00  0.00     0.100 A 
ATOM      5  C   UNL d   1     -47.858  12.399  23.515  0.00  0.00     0.025 A 
ATOM      6  C   UNL d   1     -47.460  13.129  22.367  0.00  0.00     0.025 A 
ENDROOT
BRANCH   4   7
ATOM      7  O   UNL d   1     -46.467  12.534  23.205  0.00  0.00    -0.302 OA
BRANCH   7   8
ATOM      8  C   UNL d   1     -45.979  12.097  22.677  0.00  0.00     0.166 C 
BRANCH   8   9
ATOM      9  C   UNL d   1     -45.216  11.859  22.913  0.00  0.00     0.238 C 
ATOM     10  O   UNL d   1     -44.553  12.129  22.503  0.00  0.00    -0.283 OA
BRANCH   9  11
ATOM     11  C   UNL d   1     -45.126  11.350  23.561  0.00  0.00     0.125 C 
BRANCH  11  12
ATOM     12  N   UNL d   1     -44.566  10.737  23.534  0.00  0.00    -0.296 N 
ATOM     13  C   UNL d   1     -43.777  10.908  23.365  0.00  0.00     0.107 A 
ATOM     14  C   UNL d   1     -43.227  10.290  23.341  0.00  0.00     0.142 A 
ATOM     15  O   UNL d   1     -43.465   9.504  23.486  0.00  0.00    -0.300 OA
ATOM     16  C   UNL d   1     -44.259   9.348  23.654  0.00  0.00     0.142 A 
ATOM     17  C   UNL d   1     -44.812   9.955  23.680  0.00  0.00     0.107 A 
ENDBRANCH  11  12
ENDBRANCH   9  11
ENDBRANCH   8   9
ENDBRANCH   7   8
ENDBRANCH   4   7
BRANCH   1  18
ATOM     18  C   UNL d   1     -49.636  13.140  22.512  0.00  0.00     0.196 C 
ATOM     19  O   UNL d   1     -50.071  12.605  22.061  0.00  0.00    -0.287 OA
BRANCH  18  20
ATOM     20  C   UNL d   1     -49.992  13.826  22.795  0.00  0.00     0.039 A 
ATOM     21  C   UNL d   1     -50.540  13.783  23.413  0.00  0.00     0.004 A 
ATOM     22  C   UNL d   1     -50.897  14.465  23.698  0.00  0.00     0.011 A 
ATOM     23  C   UNL d   1     -50.708  15.199  23.364  0.00  0.00     0.058 A 
ATOM     24  C   UNL d   1     -50.161  15.242  22.746  0.00  0.00     0.011 A 
ATOM     25 CL   UNL d   1     -51.064  15.885  23.646  0.00  0.00    -0.082 Cl
ATOM     26  C   UNL d   1     -49.805  14.553  22.464  0.00  0.00     0.004 A 
ENDBRANCH  18  20
ENDBRANCH   1  18
TORSDOF 7
ENDMDL
MODEL 5
REMARK VINA RESULT:      -3.5      2.649      6.387
REMARK  7 active torsions:
REMARK  status: ('A' for Active; 'I' for Inactive)
REMARK    1  A    between atoms: C_3  and  C_1 
REMARK    2  A    between atoms: C_4  and  C_1 
REMARK    3  A    between atoms: N_2  and  C_6 
REMARK    4  A    between atoms: C_6  and  C_13 
REMARK    5  A    between atoms: O_12  and  C_14 
REMARK    6  A    between atoms: C_16  and  O_12 
REMARK    7  A    between atoms: C_13  and  C_16 
ROOT
ATOM      1  C   UNL d   1     -41.778  13.800  20.806  0.00  0.00     0.039 A 
ATOM      2  C   UNL d   1     -42.488  14.224  20.877  0.00  0.00     0.005 A 
ATOM      3  C   UNL d   1     -41.738  13.024  21.070  0.00  0.00     0.005 A 
ATOM      4  C   UNL d   1     -43.098  13.091  21.472  0.00  0.00     0.100 A 
ATOM      5  C   UNL d   1     -43.138  13.867  21.208  0.00  0.00     0.025 A 
ATOM      6  C   UNL d   1     -42.407  12.669  21.407  0.00  0.00     0.025 A 
ENDROOT
BRANCH   4   7
ATOM      7  O   UNL d   1     -43.776  12.736  21.812  0.00  0.00    -0.302 OA
BRANCH   7   8
ATOM      8  C   UNL d   1     -44.519  13.131  21.815  0.00  0.00     0.166 C 
BRANCH   8   9
ATOM      9  C   UNL d   1     -45.118  12.889  22.341  0.00  0.00     0.238 C 
ATOM     10  O   UNL d   1     -45.074  12.152  22.708  0.00  0.00    -0.283 OA
BRANCH   9  11
ATOM     11  C   UNL d   1     -45.759  13.392  22.494  0.00  0.00     0.125 C 
BRANCH  11  12
ATOM     12  N   UNL d   1     -46.520  13.075  22.602  0.00  0.00    -0.296 N 
ATOM     13  C   UNL d   1     -46.689  12.635  23.278  0.00  0.00     0.107 A 
ATOM     14  C   UNL d   1     -47.450  12.324  23.376  0.00  0.00     0.142 A 
ATOM     15  O   UNL d   1     -48.039  12.454  22.800  0.00  0.00    -0.300 OA
ATOM     16  C   UNL d   1     -47.855  12.898  22.128  0.00  0.00     0.142 A 
ATOM     17  C   UNL d   1     -47.102  13.210  22.022  0.00  0.00     0.107 A 
ENDBRANCH  11  12
ENDBRANCH   9  11
ENDBRANCH   8   9
ENDBRANCH   7   8
ENDBRANCH   4   7
BRANCH   1  18
ATOM     18  C   UNL d   1     -41.116  14.156  20.471  0.00  0.00     0.196 C 
ATOM     19  O   UNL d   1     -40.965  14.075  19.665  0.00  0.00    -0.287 OA
BRANCH  18  20
ATOM     20  C   UNL d   1     -40.605  14.595  20.944  0.00  0.00     0.039 A 
ATOM     21  C   UNL d   1     -40.697  15.415  21.002  0.00  0.00     0.004 A 
ATOM     22  C   UNL d   1     -40.190  15.856  21.473  0.00  0.00     0.011 A 
ATOM     23  C   UNL d   1     -39.582  15.478  21.892  0.00  0.00     0.058 A 
ATOM     24  C   UNL d   1     -39.490  14.659  21.833  0.00  0.00     0.011 A 
ATOM     25 CL   UNL d   1     -39.072  15.917  22.364  0.00  0.00    -0.082 Cl
ATOM     26  C   UNL d   1     -40.004  14.221  21.358  0.00  0.00     0.004 A 
ENDBRANCH  18  20
ENDBRANCH   1  18
TORSDOF 7
ENDMDL
MODEL 6
REMARK VINA RESULT:      -3.5      6.774      7.993
REMARK  7 active torsions:
REMARK  status: ('A' for Active; 'I' for Inactive)
REMARK    1  A    between atoms: C_3  and  C_1 
REMARK    2  A    between atoms: C_4  and  C_1 
REMARK    3  A    between atoms: N_2  and  C_6 
REMARK    4  A    between atoms: C_6  and  C_13 
REMARK    5  A    between atoms: O_12  and  C_14 
REMARK    6  A    between atoms: C_16  and  O_12 
REMARK    7  A    between atoms: C_13  and  C_16 
ROOT
ATOM      1  C   UNL d   1     -39.789  15.057  17.971  0.00  0.00     0.039 A 
ATOM      2  C   UNL d   1     -39.308  15.727  18.068  0.00  0.00     0.005 A 
ATOM      3  C   UNL d   1     -39.984  14.598  18.622  0.00  0.00     0.005 A 
ATOM      4  C   UNL d   1     -39.230  15.463  19.458  0.00  0.00     0.100 A 
ATOM      5  C   UNL d   1     -39.035  15.922  18.808  0.00  0.00     0.025 A 
ATOM      6  C   UNL d   1     -39.699  14.805  19.373  0.00  0.00     0.025 A 
ENDROOT
BRANCH   4   7
ATOM      7  O   UNL d   1     -38.941  15.676  20.215  0.00  0.00    -0.302 OA
BRANCH   7   8
ATOM      8  C   UNL d   1     -38.755  15.092  20.791  0.00  0.00     0.166 C 
BRANCH   8   9
ATOM      9  C   UNL d   1     -38.677  15.305  21.592  0.00  0.00     0.238 C 
ATOM     10  O   UNL d   1     -39.178  15.873  21.921  0.00  0.00    -0.283 OA
BRANCH   9  11
ATOM     11  C   UNL d   1     -38.094  14.946  22.059  0.00  0.00     0.125 C 
BRANCH  11  12
ATOM     12  N   UNL d   1     -38.298  14.335  22.583  0.00  0.00    -0.296 N 
ATOM     13  C   UNL d   1     -38.849  14.473  23.181  0.00  0.00     0.107 A 
ATOM     14  C   UNL d   1     -39.045  13.857  23.698  0.00  0.00     0.142 A 
ATOM     15  O   UNL d   1     -38.692  13.106  23.617  0.00  0.00    -0.300 OA
ATOM     16  C   UNL d   1     -38.141  12.982  23.014  0.00  0.00     0.142 A 
ATOM     17  C   UNL d   1     -37.940  13.588  22.496  0.00  0.00     0.107 A 
ENDBRANCH  11  12
ENDBRANCH   9  11
ENDBRANCH   8   9
ENDBRANCH   7   8
ENDBRANCH   4   7
BRANCH   1  18
ATOM     18  C   UNL d   1     -40.068  14.855  17.224  0.00  0.00     0.196 C 
ATOM     19  O   UNL d   1     -40.878  14.864  17.069  0.00  0.00    -0.287 OA
BRANCH  18  20
ATOM     20  C   UNL d   1     -39.537  14.643  16.632  0.00  0.00     0.039 A 
ATOM     21  C   UNL d   1     -39.138  13.919  16.675  0.00  0.00     0.004 A 
ATOM     22  C   UNL d   1     -38.608  13.704  16.087  0.00  0.00     0.011 A 
ATOM     23  C   UNL d   1     -38.471  14.214  15.448  0.00  0.00     0.058 A 
ATOM     24  C   UNL d   1     -38.869  14.937  15.406  0.00  0.00     0.011 A 
ATOM     25 CL   UNL d   1     -37.940  14.002  14.857  0.00  0.00    -0.082 Cl
ATOM     26  C   UNL d   1     -39.402  15.148  16.001  0.00  0.00     0.004 A 
ENDBRANCH  18  20
ENDBRANCH   1  18
TORSDOF 7
ENDMDL
MODEL 7
REMARK VINA RESULT:      -2.5      3.285      7.555
REMARK  7 active torsions:
REMARK  status: ('A' for Active; 'I' for Inactive)
REMARK    1  A    between atoms: C_3  and  C_1 
REMARK    2  A    between atoms: C_4  and  C_1 
REMARK    3  A    between atoms: N_2  and  C_6 
REMARK    4  A    between atoms: C_6  and  C_13 
REMARK    5  A    between atoms: O_12  and  C_14 
REMARK    6  A    between atoms: C_16  and  O_12 
REMARK    7  A    between atoms: C_13  and  C_16 
ROOT
ATOM      1  C   UNL d   1     -39.245  15.066  19.186  0.00  0.00     0.039 A 
ATOM      2  C   UNL d   1     -39.068  14.467  19.732  0.00  0.00     0.005 A 
ATOM      3  C   UNL d   1     -39.990  15.409  19.184  0.00  0.00     0.005 A 
ATOM      4  C   UNL d   1     -40.380  14.568  20.260  0.00  0.00     0.100 A 
ATOM      5  C   UNL d   1     -39.635  14.225  20.262  0.00  0.00     0.025 A 
ATOM      6  C   UNL d   1     -40.562  15.155  19.728  0.00  0.00     0.025 A 
ENDROOT
BRANCH   4   7
ATOM      7  O   UNL d   1     -40.954  14.309  20.811  0.00  0.00    -0.302 OA
BRANCH   7   8
ATOM      8  C   UNL d   1     -41.662  13.931  20.558  0.00  0.00     0.166 C 
BRANCH   8   9
ATOM      9  C   UNL d   1     -42.108  13.476  21.095  0.00  0.00     0.238 C 
ATOM     10  O   UNL d   1     -41.877  13.426  21.886  0.00  0.00    -0.283 OA
BRANCH   9  11
ATOM     11  C   UNL d   1     -42.783  13.075  20.833  0.00  0.00     0.125 C 
BRANCH  11  12
ATOM     12  N   UNL d   1     -43.342  12.797  21.382  0.00  0.00    -0.296 N 
ATOM     13  C   UNL d   1     -44.068  13.180  21.459  0.00  0.00     0.107 A 
ATOM     14  C   UNL d   1     -44.617  12.894  22.009  0.00  0.00     0.142 A 
ATOM     15  O   UNL d   1     -44.441  12.229  22.479  0.00  0.00    -0.300 OA
ATOM     16  C   UNL d   1     -43.709  11.855  22.391  0.00  0.00     0.142 A 
ATOM     17  C   UNL d   1     -43.157  12.131  21.848  0.00  0.00     0.107 A 
ENDBRANCH  11  12
ENDBRANCH   9  11
ENDBRANCH   8   9
ENDBRANCH   7   8
ENDBRANCH   4   7
BRANCH   1  18
ATOM     18  C   UNL d   1     -38.675  15.315  18.647  0.00  0.00     0.196 C 
ATOM     19  O   UNL d   1     -38.155  15.922  18.847  0.00  0.00    -0.287 OA
BRANCH  18  20
ATOM     20  C   UNL d   1     -38.625  14.955  17.909  0.00  0.00     0.039 A 
ATOM     21  C   UNL d   1     -39.047  15.266  17.268  0.00  0.00     0.004 A 
ATOM     22  C   UNL d   1     -39.001  14.910  16.530  0.00  0.00     0.011 A 
ATOM     23  C   UNL d   1     -38.529  14.236  16.427  0.00  0.00     0.058 A 
ATOM     24  C   UNL d   1     -38.108  13.926  17.066  0.00  0.00     0.011 A 
ATOM     25 CL   UNL d   1     -38.481  13.877  15.688  0.00  0.00    -0.082 Cl
ATOM     26  C   UNL d   1     -38.159  14.288  17.806  0.00  0.00     0.004 A 
ENDBRANCH  18  20
ENDBRANCH   1  18
TORSDOF 7
ENDMDL
