MODEL 1
REMARK VINA RESULT:      17.4      0.000      0.000
REMARK  2 active torsions:
REMARK  status: ('A' for Active; 'I' for Inactive)
REMARK    1  A    between atoms: C_12  and  C_9 
REMARK    2  A    between atoms: N_15  and  C_12 
ROOT
ATOM      1  C   UNL d   1      59.396  49.705  50.766  0.00  0.00     0.176 A 
ATOM      2  C   UNL d   1      59.352  49.706  51.590  0.00  0.00     0.174 A 
ATOM      3  N   UNL d   1      60.147  49.704  50.389  0.00  0.00    -0.240 N 
ATOM      4  N   UNL d   1      60.789  49.705  51.666  0.00  0.00    -0.223 N 
ATOM      5  C   UNL d   1      60.834  49.704  50.830  0.00  0.00     0.343 A 
ATOM      6  C   UNL d   1      60.059  49.706  52.049  0.00  0.00     0.289 A 
ATOM      7  N   UNL d   1      58.719  49.705  50.305  0.00  0.00    -0.206 NA
ATOM      8  N   UNL d   1      57.924  49.707  51.510  0.00  0.00    -0.217 NA
ATOM      9  C   UNL d   1      57.981  49.706  50.674  0.00  0.00     0.182 A 
ATOM     10  O   UNL d   1      61.576  49.703  50.456  0.00  0.00    -0.245 OA
ATOM     11  O   UNL d   1      60.015  49.707  52.877  0.00  0.00    -0.265 OA
ATOM     12  C   UNL d   1      60.191  49.703  49.557  0.00  0.00     0.105 C 
ATOM     13  C   UNL d   1      61.526  49.705  52.140  0.00  0.00     0.107 C 
ENDROOT
BRANCH   9  14
ATOM     14  C   UNL d   1      57.441  49.706  50.065  0.00  0.00     0.120 C 
BRANCH  14  15
ATOM     15  N   UNL d   1      56.643  49.704  50.022  0.00  0.00    -0.297 N 
ATOM     16  C   UNL d   1      56.198  49.706  50.696  0.00  0.00     0.100 C 
ATOM     17  C   UNL d   1      56.281  49.701  49.302  0.00  0.00     0.100 C 
ENDBRANCH  14  15
ENDBRANCH   9  14
TORSDOF 2
ENDMDL
MODEL 2
REMARK VINA RESULT:      19.7      0.681      1.624
REMARK  2 active torsions:
REMARK  status: ('A' for Active; 'I' for Inactive)
REMARK    1  A    between atoms: C_12  and  C_9 
REMARK    2  A    between atoms: N_15  and  C_12 
ROOT
ATOM      1  C   UNL d   1      59.324  49.706  50.943  0.00  0.00     0.176 A 
ATOM      2  C   UNL d   1      59.830  49.706  50.291  0.00  0.00     0.174 A 
ATOM      3  N   UNL d   1      59.644  49.706  51.720  0.00  0.00    -0.240 N 
ATOM      4  N   UNL d   1      60.966  49.705  51.175  0.00  0.00    -0.223 N 
ATOM      5  C   UNL d   1      60.451  49.706  51.836  0.00  0.00     0.343 A 
ATOM      6  C   UNL d   1      60.665  49.705  50.407  0.00  0.00     0.289 A 
ATOM      7  N   UNL d   1      58.510  49.707  50.848  0.00  0.00    -0.206 NA
ATOM      8  N   UNL d   1      58.698  49.706  49.416  0.00  0.00    -0.217 NA
ATOM      9  C   UNL d   1      58.194  49.707  50.085  0.00  0.00     0.182 A 
ATOM     10  O   UNL d   1      60.768  49.706  52.605  0.00  0.00    -0.245 OA
ATOM     11  O   UNL d   1      61.174  49.705  49.753  0.00  0.00    -0.265 OA
ATOM     12  C   UNL d   1      59.132  49.707  52.377  0.00  0.00     0.105 C 
ATOM     13  C   UNL d   1      61.833  49.705  51.300  0.00  0.00     0.107 C 
ENDROOT
BRANCH   9  14
ATOM     14  C   UNL d   1      57.387  49.707  50.192  0.00  0.00     0.120 C 
BRANCH  14  15
ATOM     15  N   UNL d   1      56.757  49.592  49.713  0.00  0.00    -0.297 N 
ATOM     16  C   UNL d   1      56.840  49.643  48.912  0.00  0.00     0.100 C 
ATOM     17  C   UNL d   1      56.037  49.424  50.033  0.00  0.00     0.100 C 
ENDBRANCH  14  15
ENDBRANCH   9  14
TORSDOF 2
ENDMDL
