MODEL 1
REMARK VINA RESULT:      -6.6      0.000      0.000
REMARK  5 active torsions:
REMARK  status: ('A' for Active; 'I' for Inactive)
REMARK    1  A    between atoms: N_2  and  S_1 
REMARK    2  A    between atoms: C_6  and  S_1 
REMARK    3  A    between atoms: C_3  and  N_2 
REMARK    4  A    between atoms: N_7  and  C_3 
REMARK    5  A    between atoms: C_9  and  N_7 
ROOT
ATOM      1  N   UNL d   1     -48.331  13.813  22.758  0.00  0.00    -0.128 NA
ENDROOT
BRANCH   1   2
ATOM      2  S   UNL d   1     -49.006  14.276  22.895  0.00  0.00     0.287 S 
ATOM      3  O   UNL d   1     -49.278  13.729  23.464  0.00  0.00    -0.198 OA
ATOM      4  O   UNL d   1     -48.752  14.830  22.331  0.00  0.00    -0.198 OA
BRANCH   2   5
ATOM      5  C   UNL d   1     -49.686  14.741  23.032  0.00  0.00     0.105 A 
ATOM      6  C   UNL d   1     -49.651  15.383  23.563  0.00  0.00     0.013 A 
ATOM      7  C   UNL d   1     -50.321  15.842  23.698  0.00  0.00     0.001 A 
ATOM      8  C   UNL d   1     -51.025  15.668  23.309  0.00  0.00     0.000 A 
ATOM      9  C   UNL d   1     -51.064  15.031  22.779  0.00  0.00     0.001 A 
ATOM     10  C   UNL d   1     -50.393  14.571  22.644  0.00  0.00     0.013 A 
ENDBRANCH   2   5
ENDBRANCH   1   2
BRANCH   1  11
ATOM     11  C   UNL d   1     -47.884  13.123  22.915  0.00  0.00     0.232 C 
ATOM     12  S   UNL d   1     -48.134  12.399  22.610  0.00  0.00    -0.036 SA
BRANCH  11  13
ATOM     13  N   UNL d   1     -47.198  13.174  23.372  0.00  0.00    -0.217 NA
BRANCH  13  14
ATOM     14  C   UNL d   1     -46.465  12.994  23.036  0.00  0.00     0.084 A 
ATOM     15  C   UNL d   1     -46.113  12.265  23.184  0.00  0.00     0.019 A 
ATOM     16  C   UNL d   1     -45.385  12.085  22.852  0.00  0.00     0.002 A 
ATOM     17  C   UNL d   1     -45.002  12.630  22.370  0.00  0.00     0.000 A 
ATOM     18  C   UNL d   1     -45.353  13.363  22.221  0.00  0.00     0.002 A 
ATOM     19  C   UNL d   1     -46.085  13.548  22.553  0.00  0.00     0.019 A 
ENDBRANCH  13  14
ENDBRANCH  11  13
ENDBRANCH   1  11
TORSDOF 5
ENDMDL
MODEL 2
REMARK VINA RESULT:      -5.6      8.860      9.427
REMARK  5 active torsions:
REMARK  status: ('A' for Active; 'I' for Inactive)
REMARK    1  A    between atoms: N_2  and  S_1 
REMARK    2  A    between atoms: C_6  and  S_1 
REMARK    3  A    between atoms: C_3  and  N_2 
REMARK    4  A    between atoms: N_7  and  C_3 
REMARK    5  A    between atoms: C_9  and  N_7 
ROOT
ATOM      1  N   UNL d   1     -39.903  14.423  19.544  0.00  0.00    -0.128 NA
ENDROOT
BRANCH   1   2
ATOM      2  S   UNL d   1     -40.138  14.687  18.793  0.00  0.00     0.287 S 
ATOM      3  O   UNL d   1     -39.700  15.391  18.892  0.00  0.00    -0.198 OA
ATOM      4  O   UNL d   1     -40.579  13.993  18.676  0.00  0.00    -0.198 OA
BRANCH   2   5
ATOM      5  C   UNL d   1     -40.374  14.952  18.037  0.00  0.00     0.105 A 
ATOM      6  C   UNL d   1     -39.958  14.704  17.359  0.00  0.00     0.013 A 
ATOM      7  C   UNL d   1     -40.191  14.966  16.614  0.00  0.00     0.001 A 
ATOM      8  C   UNL d   1     -40.835  15.472  16.538  0.00  0.00     0.000 A 
ATOM      9  C   UNL d   1     -41.253  15.722  17.210  0.00  0.00     0.001 A 
ATOM     10  C   UNL d   1     -41.019  15.460  17.957  0.00  0.00     0.013 A 
ENDBRANCH   2   5
ENDBRANCH   1   2
BRANCH   1  11
ATOM     11  C   UNL d   1     -39.897  14.520  20.374  0.00  0.00     0.232 C 
ATOM     12  S   UNL d   1     -40.603  14.457  20.797  0.00  0.00    -0.036 SA
BRANCH  11  13
ATOM     13  N   UNL d   1     -39.186  14.678  20.764  0.00  0.00    -0.217 NA
BRANCH  13  14
ATOM     14  C   UNL d   1     -38.904  14.153  21.337  0.00  0.00     0.084 A 
ATOM     15  C   UNL d   1     -39.203  14.180  22.102  0.00  0.00     0.019 A 
ATOM     16  C   UNL d   1     -38.924  13.659  22.671  0.00  0.00     0.002 A 
ATOM     17  C   UNL d   1     -38.344  13.109  22.481  0.00  0.00     0.000 A 
ATOM     18  C   UNL d   1     -38.042  13.080  21.713  0.00  0.00     0.002 A 
ATOM     19  C   UNL d   1     -38.320  13.602  21.138  0.00  0.00     0.019 A 
ENDBRANCH  13  14
ENDBRANCH  11  13
ENDBRANCH   1  11
TORSDOF 5
ENDMDL
MODEL 3
REMARK VINA RESULT:      -5.5      8.844      9.627
REMARK  5 active torsions:
REMARK  status: ('A' for Active; 'I' for Inactive)
REMARK    1  A    between atoms: N_2  and  S_1 
REMARK    2  A    between atoms: C_6  and  S_1 
REMARK    3  A    between atoms: C_3  and  N_2 
REMARK    4  A    between atoms: N_7  and  C_3 
REMARK    5  A    between atoms: C_9  and  N_7 
ROOT
ATOM      1  N   UNL d   1     -39.623  14.487  20.351  0.00  0.00    -0.128 NA
ENDROOT
BRANCH   1   2
ATOM      2  S   UNL d   1     -39.369  14.393  21.135  0.00  0.00     0.287 S 
ATOM      3  O   UNL d   1     -38.620  14.705  20.940  0.00  0.00    -0.198 OA
ATOM      4  O   UNL d   1     -40.108  14.080  21.348  0.00  0.00    -0.198 OA
BRANCH   2   5
ATOM      5  C   UNL d   1     -39.113  14.298  21.924  0.00  0.00     0.105 A 
ATOM      6  C   UNL d   1     -38.977  13.534  22.230  0.00  0.00     0.013 A 
ATOM      7  C   UNL d   1     -38.725  13.441  23.008  0.00  0.00     0.001 A 
ATOM      8  C   UNL d   1     -38.607  14.101  23.485  0.00  0.00     0.000 A 
ATOM      9  C   UNL d   1     -38.740  14.863  23.186  0.00  0.00     0.001 A 
ATOM     10  C   UNL d   1     -38.993  14.956  22.406  0.00  0.00     0.013 A 
ENDBRANCH   2   5
ENDBRANCH   1   2
BRANCH   1  11
ATOM     11  C   UNL d   1     -40.201  14.749  19.806  0.00  0.00     0.232 C 
ATOM     12  S   UNL d   1     -40.487  15.521  19.855  0.00  0.00    -0.036 SA
BRANCH  11  13
ATOM     13  N   UNL d   1     -40.479  14.234  19.223  0.00  0.00    -0.217 NA
BRANCH  13  14
ATOM     14  C   UNL d   1     -40.309  14.379  18.428  0.00  0.00     0.084 A 
ATOM     15  C   UNL d   1     -39.691  13.981  18.060  0.00  0.00     0.019 A 
ATOM     16  C   UNL d   1     -39.521  14.124  17.271  0.00  0.00     0.002 A 
ATOM     17  C   UNL d   1     -39.966  14.666  16.842  0.00  0.00     0.000 A 
ATOM     18  C   UNL d   1     -40.588  15.067  17.209  0.00  0.00     0.002 A 
ATOM     19  C   UNL d   1     -40.761  14.926  18.002  0.00  0.00     0.019 A 
ENDBRANCH  13  14
ENDBRANCH  11  13
ENDBRANCH   1  11
TORSDOF 5
ENDMDL
MODEL 4
REMARK VINA RESULT:      -5.4      8.506     10.247
REMARK  5 active torsions:
REMARK  status: ('A' for Active; 'I' for Inactive)
REMARK    1  A    between atoms: N_2  and  S_1 
REMARK    2  A    between atoms: C_6  and  S_1 
REMARK    3  A    between atoms: C_3  and  N_2 
REMARK    4  A    between atoms: N_7  and  C_3 
REMARK    5  A    between atoms: C_9  and  N_7 
ROOT
ATOM      1  N   UNL d   1     -39.802  14.669  18.009  0.00  0.00    -0.128 NA
ENDROOT
BRANCH   1   2
ATOM      2  S   UNL d   1     -40.065  14.798  18.785  0.00  0.00     0.287 S 
ATOM      3  O   UNL d   1     -39.524  15.427  18.875  0.00  0.00    -0.198 OA
ATOM      4  O   UNL d   1     -40.610  14.175  18.715  0.00  0.00    -0.198 OA
BRANCH   2   5
ATOM      5  C   UNL d   1     -40.330  14.927  19.567  0.00  0.00     0.105 A 
ATOM      6  C   UNL d   1     -40.574  15.689  19.803  0.00  0.00     0.013 A 
ATOM      7  C   UNL d   1     -40.835  15.816  20.573  0.00  0.00     0.001 A 
ATOM      8  C   UNL d   1     -40.855  15.193  21.110  0.00  0.00     0.000 A 
ATOM      9  C   UNL d   1     -40.614  14.434  20.880  0.00  0.00     0.001 A 
ATOM     10  C   UNL d   1     -40.352  14.306  20.108  0.00  0.00     0.013 A 
ENDBRANCH   2   5
ENDBRANCH   1   2
BRANCH   1  11
ATOM     11  C   UNL d   1     -39.429  14.953  17.317  0.00  0.00     0.232 C 
ATOM     12  S   UNL d   1     -39.859  15.406  16.778  0.00  0.00    -0.036 SA
BRANCH  11  13
ATOM     13  N   UNL d   1     -38.633  14.779  17.179  0.00  0.00    -0.217 NA
BRANCH  13  14
ATOM     14  C   UNL d   1     -38.401  14.454  16.455  0.00  0.00     0.084 A 
ATOM     15  C   UNL d   1     -38.301  13.641  16.383  0.00  0.00     0.019 A 
ATOM     16  C   UNL d   1     -38.072  13.316  15.666  0.00  0.00     0.002 A 
ATOM     17  C   UNL d   1     -37.940  13.800  15.015  0.00  0.00     0.000 A 
ATOM     18  C   UNL d   1     -38.039  14.617  15.084  0.00  0.00     0.002 A 
ATOM     19  C   UNL d   1     -38.270  14.947  15.804  0.00  0.00     0.019 A 
ENDBRANCH  13  14
ENDBRANCH  11  13
ENDBRANCH   1  11
TORSDOF 5
ENDMDL
MODEL 5
REMARK VINA RESULT:      -5.4      8.727     10.521
REMARK  5 active torsions:
REMARK  status: ('A' for Active; 'I' for Inactive)
REMARK    1  A    between atoms: N_2  and  S_1 
REMARK    2  A    between atoms: C_6  and  S_1 
REMARK    3  A    between atoms: C_3  and  N_2 
REMARK    4  A    between atoms: N_7  and  C_3 
REMARK    5  A    between atoms: C_9  and  N_7 
ROOT
ATOM      1  N   UNL d   1     -39.518  14.481  18.565  0.00  0.00    -0.128 NA
ENDROOT
BRANCH   1   2
ATOM      2  S   UNL d   1     -39.148  14.256  17.857  0.00  0.00     0.287 S 
ATOM      3  O   UNL d   1     -38.471  14.702  18.057  0.00  0.00    -0.198 OA
ATOM      4  O   UNL d   1     -39.812  13.807  17.642  0.00  0.00    -0.198 OA
BRANCH   2   5
ATOM      5  C   UNL d   1     -38.776  14.029  17.145  0.00  0.00     0.105 A 
ATOM      6  C   UNL d   1     -38.877  14.489  16.457  0.00  0.00     0.013 A 
ATOM      7  C   UNL d   1     -38.511  14.265  15.755  0.00  0.00     0.001 A 
ATOM      8  C   UNL d   1     -38.044  13.588  15.731  0.00  0.00     0.000 A 
ATOM      9  C   UNL d   1     -37.941  13.126  16.412  0.00  0.00     0.001 A 
ATOM     10  C   UNL d   1     -38.308  13.351  17.116  0.00  0.00     0.013 A 
ENDBRANCH   2   5
ENDBRANCH   1   2
BRANCH   1  11
ATOM     11  C   UNL d   1     -40.053  14.977  18.974  0.00  0.00     0.232 C 
ATOM     12  S   UNL d   1     -40.165  15.754  18.720  0.00  0.00    -0.036 SA
BRANCH  11  13
ATOM     13  N   UNL d   1     -40.464  14.685  19.628  0.00  0.00    -0.217 NA
BRANCH  13  14
ATOM     14  C   UNL d   1     -40.290  14.968  20.385  0.00  0.00     0.084 A 
ATOM     15  C   UNL d   1     -40.670  15.639  20.671  0.00  0.00     0.019 A 
ATOM     16  C   UNL d   1     -40.498  15.921  21.421  0.00  0.00     0.002 A 
ATOM     17  C   UNL d   1     -39.946  15.536  21.893  0.00  0.00     0.000 A 
ATOM     18  C   UNL d   1     -39.564  14.861  21.609  0.00  0.00     0.002 A 
ATOM     19  C   UNL d   1     -39.734  14.575  20.855  0.00  0.00     0.019 A 
ENDBRANCH  13  14
ENDBRANCH  11  13
ENDBRANCH   1  11
TORSDOF 5
ENDMDL
MODEL 6
REMARK VINA RESULT:      -3.9      0.709      1.132
REMARK  5 active torsions:
REMARK  status: ('A' for Active; 'I' for Inactive)
REMARK    1  A    between atoms: N_2  and  S_1 
REMARK    2  A    between atoms: C_6  and  S_1 
REMARK    3  A    between atoms: C_3  and  N_2 
REMARK    4  A    between atoms: N_7  and  C_3 
REMARK    5  A    between atoms: C_9  and  N_7 
ROOT
ATOM      1  N   UNL d   1     -48.128  13.295  22.594  0.00  0.00    -0.128 NA
ENDROOT
BRANCH   1   2
ATOM      2  S   UNL d   1     -48.864  13.665  22.491  0.00  0.00     0.287 S 
ATOM      3  O   UNL d   1     -48.914  13.369  21.711  0.00  0.00    -0.198 OA
ATOM      4  O   UNL d   1     -48.831  13.969  23.263  0.00  0.00    -0.198 OA
BRANCH   2   5
ATOM      5  C   UNL d   1     -49.604  14.038  22.386  0.00  0.00     0.105 A 
ATOM      6  C   UNL d   1     -49.760  14.766  22.762  0.00  0.00     0.013 A 
ATOM      7  C   UNL d   1     -50.490  15.133  22.659  0.00  0.00     0.001 A 
ATOM      8  C   UNL d   1     -51.065  14.783  22.186  0.00  0.00     0.000 A 
ATOM      9  C   UNL d   1     -50.914  14.059  21.811  0.00  0.00     0.001 A 
ATOM     10  C   UNL d   1     -50.183  13.691  21.914  0.00  0.00     0.013 A 
ENDBRANCH   2   5
ENDBRANCH   1   2
BRANCH   1  11
ATOM     11  C   UNL d   1     -47.598  12.865  23.077  0.00  0.00     0.232 C 
ATOM     12  S   UNL d   1     -47.792  12.099  23.314  0.00  0.00    -0.036 SA
BRANCH  11  13
ATOM     13  N   UNL d   1     -46.886  13.211  23.314  0.00  0.00    -0.217 NA
BRANCH  13  14
ATOM     14  C   UNL d   1     -46.178  12.989  22.949  0.00  0.00     0.084 A 
ATOM     15  C   UNL d   1     -45.797  13.511  22.440  0.00  0.00     0.019 A 
ATOM     16  C   UNL d   1     -45.095  13.292  22.077  0.00  0.00     0.002 A 
ATOM     17  C   UNL d   1     -44.767  12.552  22.218  0.00  0.00     0.000 A 
ATOM     18  C   UNL d   1     -45.149  12.026  22.729  0.00  0.00     0.002 A 
ATOM     19  C   UNL d   1     -45.855  12.242  23.096  0.00  0.00     0.019 A 
ENDBRANCH  13  14
ENDBRANCH  11  13
ENDBRANCH   1  11
TORSDOF 5
ENDMDL
