MODEL 1
REMARK VINA RESULT:      -8.4      0.000      0.000
REMARK  5 active torsions:
REMARK  status: ('A' for Active; 'I' for Inactive)
REMARK    1  A    between atoms: C_2  and  S_1 
REMARK    2  A    between atoms: N_3  and  S_1 
REMARK    3  A    between atoms: C_4  and  N_3 
REMARK    4  A    between atoms: O_16  and  C_9 
REMARK    5  A    between atoms: O_17  and  C_14 
ROOT
ATOM      1  C   UNL d   1      53.046  33.092  53.665  0.00  0.00     0.118 A 
ATOM      2  C   UNL d   1      52.760  32.508  53.157  0.00  0.00     0.046 A 
ATOM      3  C   UNL d   1      53.678  32.929  54.166  0.00  0.00     0.113 A 
ATOM      4  C   UNL d   1      54.028  32.180  54.161  0.00  0.00     0.028 A 
ATOM      5  C   UNL d   1      53.107  31.761  53.150  0.00  0.00     0.096 A 
ATOM      6  C   UNL d   1      53.743  31.596  53.653  0.00  0.00     0.026 A 
ENDROOT
BRANCH   1   7
ATOM      7  N   UNL d   1      52.698  33.852  53.676  0.00  0.00    -0.156 NA
BRANCH   7   8
ATOM      8  S   UNL d   1      52.002  34.001  53.235  0.00  0.00     0.291 S 
ATOM      9  O   UNL d   1      52.465  34.301  52.622  0.00  0.00    -0.198 OA
ATOM     10  O   UNL d   1      51.546  33.698  53.852  0.00  0.00    -0.198 OA
BRANCH   8  11
ATOM     11  C   UNL d   1      51.318  34.148  52.798  0.00  0.00     0.135 A 
ATOM     12  S   UNL d   1      50.682  34.186  53.139  0.00  0.00    -0.073 SA
ATOM     13  C   UNL d   1      50.088  34.316  52.743  0.00  0.00     0.036 A 
ATOM     14  C   UNL d   1      50.131  34.404  52.028  0.00  0.00     0.008 A 
ATOM     15  C   UNL d   1      51.357  34.236  52.088  0.00  0.00     0.020 A 
ENDBRANCH   8  11
ENDBRANCH   7   8
ENDBRANCH   1   7
BRANCH   3  16
ATOM     16  O   UNL d   1      53.964  33.513  54.674  0.00  0.00    -0.327 OA
ATOM     17  C   UNL d   1      54.648  33.381  55.112  0.00  0.00     0.181 C 
ENDBRANCH   3  16
BRANCH   5  18
ATOM     18  O   UNL d   1      52.821  31.177  52.642  0.00  0.00    -0.328 OA
ATOM     19  C   UNL d   1      52.818  30.390  52.880  0.00  0.00     0.181 C 
ENDBRANCH   5  18
TORSDOF 5
ENDMDL
MODEL 2
REMARK VINA RESULT:      -7.8      1.550      3.197
REMARK  5 active torsions:
REMARK  status: ('A' for Active; 'I' for Inactive)
REMARK    1  A    between atoms: C_2  and  S_1 
REMARK    2  A    between atoms: N_3  and  S_1 
REMARK    3  A    between atoms: C_4  and  N_3 
REMARK    4  A    between atoms: O_16  and  C_9 
REMARK    5  A    between atoms: O_17  and  C_14 
ROOT
ATOM      1  C   UNL d   1      53.729  32.963  53.959  0.00  0.00     0.118 A 
ATOM      2  C   UNL d   1      52.969  33.130  53.686  0.00  0.00     0.046 A 
ATOM      3  C   UNL d   1      54.098  33.474  54.488  0.00  0.00     0.113 A 
ATOM      4  C   UNL d   1      53.708  34.156  54.746  0.00  0.00     0.028 A 
ATOM      5  C   UNL d   1      52.578  33.807  53.941  0.00  0.00     0.096 A 
ATOM      6  C   UNL d   1      52.948  34.323  54.472  0.00  0.00     0.026 A 
ENDROOT
BRANCH   1   7
ATOM      7  N   UNL d   1      54.132  32.275  53.704  0.00  0.00    -0.156 NA
BRANCH   7   8
ATOM      8  S   UNL d   1      53.703  31.574  53.546  0.00  0.00     0.291 S 
ATOM      9  O   UNL d   1      53.698  31.767  52.744  0.00  0.00    -0.198 OA
ATOM     10  O   UNL d   1      53.711  31.388  54.349  0.00  0.00    -0.198 OA
BRANCH   8  11
ATOM     11  C   UNL d   1      53.280  30.884  53.387  0.00  0.00     0.135 A 
ATOM     12  S   UNL d   1      53.437  30.280  53.754  0.00  0.00    -0.073 SA
ATOM     13  C   UNL d   1      53.058  29.680  53.605  0.00  0.00     0.036 A 
ATOM     14  C   UNL d   1      52.538  29.685  53.105  0.00  0.00     0.008 A 
ATOM     15  C   UNL d   1      52.763  30.885  52.891  0.00  0.00     0.020 A 
ENDBRANCH   8  11
ENDBRANCH   7   8
ENDBRANCH   1   7
BRANCH   3  16
ATOM     16  O   UNL d   1      54.859  33.308  54.761  0.00  0.00    -0.327 OA
ATOM     17  C   UNL d   1      55.269  33.865  55.207  0.00  0.00     0.181 C 
ENDBRANCH   3  16
BRANCH   5  18
ATOM     18  O   UNL d   1      51.817  33.974  53.667  0.00  0.00    -0.328 OA
ATOM     19  C   UNL d   1      51.696  34.591  53.137  0.00  0.00     0.181 C 
ENDBRANCH   5  18
TORSDOF 5
ENDMDL
MODEL 3
REMARK VINA RESULT:      -7.8      1.393      3.476
REMARK  5 active torsions:
REMARK  status: ('A' for Active; 'I' for Inactive)
REMARK    1  A    between atoms: C_2  and  S_1 
REMARK    2  A    between atoms: N_3  and  S_1 
REMARK    3  A    between atoms: C_4  and  N_3 
REMARK    4  A    between atoms: O_16  and  C_9 
REMARK    5  A    between atoms: O_17  and  C_14 
ROOT
ATOM      1  C   UNL d   1      53.031  32.925  53.387  0.00  0.00     0.118 A 
ATOM      2  C   UNL d   1      53.556  32.836  54.017  0.00  0.00     0.046 A 
ATOM      3  C   UNL d   1      52.599  33.620  53.306  0.00  0.00     0.113 A 
ATOM      4  C   UNL d   1      52.690  34.232  53.855  0.00  0.00     0.028 A 
ATOM      5  C   UNL d   1      53.650  33.443  54.565  0.00  0.00     0.096 A 
ATOM      6  C   UNL d   1      53.216  34.143  54.485  0.00  0.00     0.026 A 
ENDROOT
BRANCH   1   7
ATOM      7  N   UNL d   1      52.932  32.312  52.826  0.00  0.00    -0.156 NA
BRANCH   7   8
ATOM      8  S   UNL d   1      53.018  31.513  53.061  0.00  0.00     0.291 S 
ATOM      9  O   UNL d   1      53.814  31.544  52.844  0.00  0.00    -0.198 OA
ATOM     10  O   UNL d   1      52.222  31.490  53.276  0.00  0.00    -0.198 OA
BRANCH   8  11
ATOM     11  C   UNL d   1      53.107  30.726  53.291  0.00  0.00     0.135 A 
ATOM     12  S   UNL d   1      52.543  30.276  53.238  0.00  0.00    -0.073 SA
ATOM     13  C   UNL d   1      52.633  29.587  53.444  0.00  0.00     0.036 A 
ATOM     14  C   UNL d   1      53.269  29.355  53.695  0.00  0.00     0.008 A 
ATOM     15  C   UNL d   1      53.736  30.493  53.541  0.00  0.00     0.020 A 
ENDBRANCH   8  11
ENDBRANCH   7   8
ENDBRANCH   1   7
BRANCH   3  16
ATOM     16  O   UNL d   1      52.073  33.709  52.676  0.00  0.00    -0.327 OA
ATOM     17  C   UNL d   1      51.670  34.419  52.571  0.00  0.00     0.181 C 
ENDBRANCH   3  16
BRANCH   5  18
ATOM     18  O   UNL d   1      54.175  33.354  55.195  0.00  0.00    -0.328 OA
ATOM     19  C   UNL d   1      54.885  33.770  55.201  0.00  0.00     0.181 C 
ENDBRANCH   5  18
TORSDOF 5
ENDMDL
MODEL 4
REMARK VINA RESULT:      -7.8      0.721      1.965
REMARK  5 active torsions:
REMARK  status: ('A' for Active; 'I' for Inactive)
REMARK    1  A    between atoms: C_2  and  S_1 
REMARK    2  A    between atoms: N_3  and  S_1 
REMARK    3  A    between atoms: C_4  and  N_3 
REMARK    4  A    between atoms: O_16  and  C_9 
REMARK    5  A    between atoms: O_17  and  C_14 
ROOT
ATOM      1  C   UNL d   1      53.018  32.367  53.354  0.00  0.00     0.118 A 
ATOM      2  C   UNL d   1      53.274  33.037  53.762  0.00  0.00     0.046 A 
ATOM      3  C   UNL d   1      53.322  31.627  53.545  0.00  0.00     0.113 A 
ATOM      4  C   UNL d   1      53.884  31.553  54.147  0.00  0.00     0.028 A 
ATOM      5  C   UNL d   1      53.834  32.966  54.361  0.00  0.00     0.096 A 
ATOM      6  C   UNL d   1      54.141  32.222  54.555  0.00  0.00     0.026 A 
ENDROOT
BRANCH   1   7
ATOM      7  N   UNL d   1      52.449  32.433  52.744  0.00  0.00    -0.156 NA
BRANCH   7   8
ATOM      8  S   UNL d   1      51.904  33.069  52.748  0.00  0.00     0.291 S 
ATOM      9  O   UNL d   1      52.379  33.469  52.205  0.00  0.00    -0.198 OA
ATOM     10  O   UNL d   1      51.434  32.662  53.291  0.00  0.00    -0.198 OA
BRANCH   8  11
ATOM     11  C   UNL d   1      51.368  33.696  52.750  0.00  0.00     0.135 A 
ATOM     12  S   UNL d   1      50.707  33.596  53.026  0.00  0.00    -0.073 SA
ATOM     13  C   UNL d   1      50.245  34.155  53.021  0.00  0.00     0.036 A 
ATOM     14  C   UNL d   1      50.440  34.795  52.749  0.00  0.00     0.008 A 
ATOM     15  C   UNL d   1      51.558  34.331  52.480  0.00  0.00     0.020 A 
ENDBRANCH   8  11
ENDBRANCH   7   8
ENDBRANCH   1   7
BRANCH   3  16
ATOM     16  O   UNL d   1      53.065  30.957  53.137  0.00  0.00    -0.327 OA
ATOM     17  C   UNL d   1      53.368  30.216  53.328  0.00  0.00     0.181 C 
ENDBRANCH   3  16
BRANCH   5  18
ATOM     18  O   UNL d   1      54.091  33.636  54.769  0.00  0.00    -0.328 OA
ATOM     19  C   UNL d   1      54.858  33.670  55.064  0.00  0.00     0.181 C 
ENDBRANCH   5  18
TORSDOF 5
ENDMDL
MODEL 5
REMARK VINA RESULT:      -7.4      1.479      3.518
REMARK  5 active torsions:
REMARK  status: ('A' for Active; 'I' for Inactive)
REMARK    1  A    between atoms: C_2  and  S_1 
REMARK    2  A    between atoms: N_3  and  S_1 
REMARK    3  A    between atoms: C_4  and  N_3 
REMARK    4  A    between atoms: O_16  and  C_9 
REMARK    5  A    between atoms: O_17  and  C_14 
ROOT
ATOM      1  C   UNL d   1      53.166  32.188  53.366  0.00  0.00     0.118 A 
ATOM      2  C   UNL d   1      52.827  32.940  53.356  0.00  0.00     0.046 A 
ATOM      3  C   UNL d   1      52.734  31.538  53.106  0.00  0.00     0.113 A 
ATOM      4  C   UNL d   1      51.959  31.638  52.834  0.00  0.00     0.028 A 
ATOM      5  C   UNL d   1      52.057  33.043  53.086  0.00  0.00     0.096 A 
ATOM      6  C   UNL d   1      51.621  32.390  52.824  0.00  0.00     0.026 A 
ENDROOT
BRANCH   1   7
ATOM      7  N   UNL d   1      53.950  32.078  53.639  0.00  0.00    -0.156 NA
BRANCH   7   8
ATOM      8  S   UNL d   1      54.273  32.604  54.204  0.00  0.00     0.291 S 
ATOM      9  O   UNL d   1      54.667  33.001  53.597  0.00  0.00    -0.198 OA
ATOM     10  O   UNL d   1      53.876  32.203  54.805  0.00  0.00    -0.198 OA
BRANCH   8  11
ATOM     11  C   UNL d   1      54.593  33.124  54.759  0.00  0.00     0.135 A 
ATOM     12  S   UNL d   1      55.127  33.570  54.559  0.00  0.00    -0.073 SA
ATOM     13  C   UNL d   1      55.400  34.023  55.056  0.00  0.00     0.036 A 
ATOM     14  C   UNL d   1      55.146  34.028  55.732  0.00  0.00     0.008 A 
ATOM     15  C   UNL d   1      54.344  33.132  55.430  0.00  0.00     0.020 A 
ENDBRANCH   8  11
ENDBRANCH   7   8
ENDBRANCH   1   7
BRANCH   3  16
ATOM     16  O   UNL d   1      53.072  30.786  53.116  0.00  0.00    -0.327 OA
ATOM     17  C   UNL d   1      52.651  30.140  52.830  0.00  0.00     0.181 C 
ENDBRANCH   3  16
BRANCH   5  18
ATOM     18  O   UNL d   1      51.718  33.795  53.076  0.00  0.00    -0.328 OA
ATOM     19  C   UNL d   1      51.428  34.107  52.373  0.00  0.00     0.181 C 
ENDBRANCH   5  18
TORSDOF 5
ENDMDL
MODEL 6
REMARK VINA RESULT:      -7.0      1.578      3.239
REMARK  5 active torsions:
REMARK  status: ('A' for Active; 'I' for Inactive)
REMARK    1  A    between atoms: C_2  and  S_1 
REMARK    2  A    between atoms: N_3  and  S_1 
REMARK    3  A    between atoms: C_4  and  N_3 
REMARK    4  A    between atoms: O_16  and  C_9 
REMARK    5  A    between atoms: O_17  and  C_14 
ROOT
ATOM      1  C   UNL d   1      53.306  32.121  53.222  0.00  0.00     0.118 A 
ATOM      2  C   UNL d   1      53.691  31.444  53.494  0.00  0.00     0.046 A 
ATOM      3  C   UNL d   1      52.558  32.063  52.884  0.00  0.00     0.113 A 
ATOM      4  C   UNL d   1      52.191  31.325  52.818  0.00  0.00     0.028 A 
ATOM      5  C   UNL d   1      53.327  30.708  53.429  0.00  0.00     0.096 A 
ATOM      6  C   UNL d   1      52.575  30.648  53.090  0.00  0.00     0.026 A 
ENDROOT
BRANCH   1   7
ATOM      7  N   UNL d   1      53.671  32.872  53.285  0.00  0.00    -0.156 NA
BRANCH   7   8
ATOM      8  S   UNL d   1      54.068  33.085  53.991  0.00  0.00     0.291 S 
ATOM      9  O   UNL d   1      54.785  32.871  53.643  0.00  0.00    -0.198 OA
ATOM     10  O   UNL d   1      53.347  33.298  54.332  0.00  0.00    -0.198 OA
BRANCH   8  11
ATOM     11  C   UNL d   1      54.461  33.295  54.685  0.00  0.00     0.135 A 
ATOM     12  S   UNL d   1      55.044  33.722  54.646  0.00  0.00    -0.073 SA
ATOM     13  C   UNL d   1      55.381  33.899  55.263  0.00  0.00     0.036 A 
ATOM     14  C   UNL d   1      55.141  33.657  55.900  0.00  0.00     0.008 A 
ATOM     15  C   UNL d   1      54.226  33.057  55.318  0.00  0.00     0.020 A 
ENDBRANCH   8  11
ENDBRANCH   7   8
ENDBRANCH   1   7
BRANCH   3  16
ATOM     16  O   UNL d   1      52.174  32.740  52.612  0.00  0.00    -0.327 OA
ATOM     17  C   UNL d   1      51.357  32.739  52.513  0.00  0.00     0.181 C 
ENDBRANCH   3  16
BRANCH   5  18
ATOM     18  O   UNL d   1      53.712  30.031  53.702  0.00  0.00    -0.328 OA
ATOM     19  C   UNL d   1      53.286  29.443  54.088  0.00  0.00     0.181 C 
ENDBRANCH   5  18
TORSDOF 5
ENDMDL
