MODEL 1
REMARK VINA RESULT:      53.2      0.000      0.000
REMARK  4 active torsions:
REMARK  status: ('A' for Active; 'I' for Inactive)
REMARK    1  A    between atoms: N_5  and  C_1 
REMARK    2  A    between atoms: N_8  and  C_3 
REMARK    3  A    between atoms: C_13  and  N_8 
REMARK    4  A    between atoms: C_12  and  C_13 
ROOT
ATOM      1  C   UNL d   1     -51.280  26.096  33.711  0.00  0.00     0.200 A 
ATOM      2  C   UNL d   1     -50.582  26.525  33.801  0.00  0.00     0.288 A 
ATOM      3  C   UNL d   1     -51.258  25.277  33.563  0.00  0.00     0.109 A 
ATOM      4  N   UNL d   1     -49.852  26.134  33.744  0.00  0.00    -0.270 N 
ATOM      5  C   UNL d   1     -50.523  24.894  33.508  0.00  0.00     0.036 A 
ATOM      6  C   UNL d   1     -49.822  25.323  33.598  0.00  0.00     0.069 A 
ATOM      7  O   UNL d   1     -50.611  27.336  33.947  0.00  0.00    -0.265 OA
ATOM      8  C   UNL d   1     -49.154  26.562  33.834  0.00  0.00     0.102 C 
ATOM      9  C   UNL d   1     -50.493  24.082  33.361  0.00  0.00     0.003 A 
ATOM     10  C   UNL d   1     -49.095  24.939  33.542  0.00  0.00     0.018 A 
ATOM     11  C   UNL d   1     -49.763  23.700  33.306  0.00  0.00     0.000 A 
ATOM     12  C   UNL d   1     -49.066  24.128  33.396  0.00  0.00     0.002 A 
ENDROOT
BRANCH   3  13
ATOM     13  N   UNL d   1     -51.955  24.848  33.473  0.00  0.00    -0.242 NA
BRANCH  13  14
ATOM     14  C   UNL d   1     -52.440  24.705  34.125  0.00  0.00     0.100 C 
BRANCH  14  15
ATOM     15  C   UNL d   1     -53.101  24.220  34.047  0.00  0.00     0.030 A 
ATOM     16  C   UNL d   1     -53.275  23.673  34.640  0.00  0.00     0.059 A 
ATOM     17 CL   UNL d   1     -52.794  23.609  35.306  0.00  0.00    -0.082 Cl
ATOM     18  C   UNL d   1     -53.936  23.188  34.564  0.00  0.00     0.011 A 
ATOM     19  C   UNL d   1     -54.423  23.250  33.894  0.00  0.00     0.001 A 
ATOM     20  C   UNL d   1     -54.243  23.800  33.305  0.00  0.00     0.000 A 
ATOM     21  C   UNL d   1     -53.582  24.284  33.383  0.00  0.00     0.002 A 
ENDBRANCH  14  15
ENDBRANCH  13  14
ENDBRANCH   3  13
BRANCH   1  22
ATOM     22  N   UNL d   1     -52.014  26.480  33.767  0.00  0.00    -0.107 N 
ATOM     23  O   UNL d   1     -52.590  26.190  34.280  0.00  0.00    -0.531 OA
ATOM     24  O   UNL d   1     -52.169  27.151  33.309  0.00  0.00    -0.531 OA
ENDBRANCH   1  22
TORSDOF 4
ENDMDL
