MODEL 1
REMARK VINA RESULT:      46.6      0.000      0.000
REMARK  4 active torsions:
REMARK  status: ('A' for Active; 'I' for Inactive)
REMARK    1  A    between atoms: N_7  and  C_1 
REMARK    2  A    between atoms: S_2  and  C_8 
REMARK    3  A    between atoms: C_10  and  S_2 
REMARK       I    between atoms: C_9  and  N_7 
REMARK    4  A    between atoms: C_8  and  C_9 
ROOT
ATOM      1  N   UNL d   1      13.596  13.097  -3.234  0.00  0.00    -0.182 NA
ATOM      2  C   UNL d   1      13.236  12.590  -3.773  0.00  0.00     0.293 C 
ATOM      3  O   UNL d   1      13.124  11.791  -3.591  0.00  0.00    -0.264 OA
ENDROOT
BRANCH   2   4
ATOM      4  C   UNL d   1      12.981  12.862  -4.500  0.00  0.00     0.161 C 
BRANCH   4   5
ATOM      5  S   UNL d   1      13.219  13.627  -4.756  0.00  0.00     0.215 S 
ATOM      6  O   UNL d   1      13.670  13.282  -5.370  0.00  0.00    -0.217 OA
ATOM      7  O   UNL d   1      12.771  13.964  -4.147  0.00  0.00    -0.217 OA
BRANCH   5   8
ATOM      8  C   UNL d   1      13.456  14.383  -5.011  0.00  0.00     0.088 A 
ATOM      9  C   UNL d   1      13.021  15.046  -4.790  0.00  0.00     0.012 A 
ATOM     10  C   UNL d   1      13.255  15.789  -5.042  0.00  0.00     0.012 A 
ATOM     11  C   UNL d   1      13.924  15.870  -5.515  0.00  0.00     0.058 A 
ATOM     12  C   UNL d   1      14.359  15.216  -5.738  0.00  0.00     0.012 A 
ATOM     13 CL   UNL d   1      14.158  16.622  -5.768  0.00  0.00    -0.082 Cl
ATOM     14  C   UNL d   1      14.121  14.467  -5.483  0.00  0.00     0.012 A 
ENDBRANCH   5   8
ENDBRANCH   4   5
ENDBRANCH   2   4
BRANCH   1  15
ATOM     15  C   UNL d   1      13.839  12.822  -2.533  0.00  0.00     0.197 A 
ATOM     16  N   UNL d   1      13.339  12.506  -1.933  0.00  0.00    -0.221 NA
ATOM     17  C   UNL d   1      13.820  12.283  -1.289  0.00  0.00     0.090 A 
ATOM     18  C   UNL d   1      13.641  11.946  -0.556  0.00  0.00     0.018 A 
ATOM     19  C   UNL d   1      14.613  12.460  -1.491  0.00  0.00     0.060 A 
ATOM     20  C   UNL d   1      14.253  11.782  -0.014  0.00  0.00     0.002 A 
ATOM     21  C   UNL d   1      12.890  11.780  -0.369  0.00  0.00     0.002 C 
ATOM     22  C   UNL d   1      15.058  11.957  -0.207  0.00  0.00     0.012 A 
ATOM     23  C   UNL d   1      15.229  12.297  -0.950  0.00  0.00     0.065 A 
ATOM     24 CL   UNL d   1      16.006  12.472  -1.151  0.00  0.00    -0.082 Cl
ATOM     25  S   UNL d   1      14.615  12.794  -2.263  0.00  0.00    -0.046 SA
ENDBRANCH   1  15
TORSDOF 4
ENDMDL
