MODEL 1
REMARK VINA RESULT:      58.4      0.000      0.000
REMARK  2 active torsions:
REMARK  status: ('A' for Active; 'I' for Inactive)
REMARK    1  A    between atoms: N_9  and  C_3 
REMARK    2  A    between atoms: C_11  and  C_4 
ROOT
ATOM      1  N   UNL d   1      14.054  13.682  -2.886  0.00  0.00    -0.196 N 
ATOM      2  C   UNL d   1      14.346  14.353  -2.451  0.00  0.00     0.167 A 
ATOM      3  C   UNL d   1      13.733  13.804  -3.617  0.00  0.00     0.152 A 
ATOM      4  C   UNL d   1      14.672  14.250  -1.715  0.00  0.00     0.057 A 
ATOM      5  N   UNL d   1      14.436  12.834  -1.810  0.00  0.00    -0.161 NA
ATOM      6  N   UNL d   1      14.298  15.101  -2.775  0.00  0.00    -0.227 NA
ATOM      7  C   UNL d   1      13.679  14.555  -3.953  0.00  0.00     0.057 A 
ATOM      8  C   UNL d   1      14.719  13.484  -1.388  0.00  0.00     0.124 A 
ATOM      9  C   UNL d   1      13.967  15.215  -3.525  0.00  0.00     0.086 A 
ATOM     10  C   UNL d   1      13.916  16.002  -3.867  0.00  0.00     0.021 C 
ENDROOT
BRANCH   4  11
ATOM     11  C   UNL d   1      14.956  14.900  -1.294  0.00  0.00     0.005 A 
ATOM     12  C   UNL d   1      15.026  15.623  -1.663  0.00  0.00     0.001 A 
ATOM     13  C   UNL d   1      15.305  16.262  -1.248  0.00  0.00     0.011 A 
ATOM     14  C   UNL d   1      15.518  16.189  -0.457  0.00  0.00     0.058 A 
ATOM     15  C   UNL d   1      15.447  15.465  -0.089  0.00  0.00     0.011 A 
ATOM     16 CL   UNL d   1      15.815  16.870  -0.015  0.00  0.00    -0.082 Cl
ATOM     17  C   UNL d   1      15.163  14.815  -0.510  0.00  0.00     0.001 A 
ENDBRANCH   4  11
BRANCH   3  18
ATOM     18  N   UNL d   1      13.436  13.129  -4.059  0.00  0.00    -0.289 N 
ATOM     19  C   UNL d   1      13.100  12.455  -3.649  0.00  0.00     0.082 A 
ATOM     20  C   UNL d   1      12.805  11.785  -4.083  0.00  0.00     0.019 A 
ATOM     21  C   UNL d   1      12.843  11.779  -4.945  0.00  0.00     0.003 A 
ATOM     22  C   UNL d   1      13.182  12.459  -5.351  0.00  0.00     0.019 A 
ATOM     23  C   UNL d   1      13.476  13.129  -4.916  0.00  0.00     0.082 A 
ENDBRANCH   3  18
TORSDOF 2
ENDMDL
