MODEL 1
REMARK VINA RESULT:      -1.9      0.000      0.000
REMARK  6 active torsions:
REMARK  status: ('A' for Active; 'I' for Inactive)
REMARK    1  A    between atoms: C_7  and  C_1 
REMARK    2  A    between atoms: O_11  and  C_2 
REMARK    3  A    between atoms: O_13  and  C_10 
REMARK    4  A    between atoms: C_20  and  O_11 
REMARK    5  A    between atoms: C_21  and  C_12 
REMARK    6  A    between atoms: C_14  and  O_13 
ROOT
ATOM      1  C   UNL d   1      58.139  -1.517  29.890  0.00  0.00     0.197 A 
ATOM      2  C   UNL d   1      58.364  -0.713  29.750  0.00  0.00     0.165 A 
ATOM      3  O   UNL d   1      57.696  -1.707  30.562  0.00  0.00    -0.301 OA
ATOM      4  C   UNL d   1      58.131  -0.138  30.295  0.00  0.00     0.222 A 
ATOM      5  C   UNL d   1      57.688  -0.327  30.967  0.00  0.00     0.064 A 
ATOM      6  C   UNL d   1      57.472  -1.131  31.093  0.00  0.00     0.105 A 
ATOM      7  C   UNL d   1      57.466   0.249  31.494  0.00  0.00     0.007 A 
ATOM      8  C   UNL d   1      57.029  -1.324  31.764  0.00  0.00     0.050 A 
ATOM      9  C   UNL d   1      56.807  -0.740  32.293  0.00  0.00     0.105 A 
ATOM     10  C   UNL d   1      57.025   0.057  32.162  0.00  0.00     0.023 A 
ATOM     11  O   UNL d   1      58.360   0.668  30.148  0.00  0.00    -0.284 OA
ENDROOT
BRANCH   2  12
ATOM     12  O   UNL d   1      58.806  -0.506  29.084  0.00  0.00    -0.302 OA
BRANCH  12  13
ATOM     13  C   UNL d   1      59.578  -0.253  29.176  0.00  0.00     0.100 A 
ATOM     14  C   UNL d   1      60.022  -0.453  29.849  0.00  0.00     0.025 A 
ATOM     15  C   UNL d   1      60.780  -0.192  29.916  0.00  0.00     0.002 A 
ATOM     16  C   UNL d   1      61.130   0.272  29.328  0.00  0.00     0.000 A 
ATOM     17  C   UNL d   1      60.694   0.461  28.679  0.00  0.00     0.002 A 
ATOM     18  C   UNL d   1      59.928   0.211  28.587  0.00  0.00     0.025 A 
ENDBRANCH  12  13
ENDBRANCH   2  12
BRANCH   1  19
ATOM     19  C   UNL d   1      58.353  -2.120  29.369  0.00  0.00     0.442 C 
ATOM     20  F   UNL d   1      58.574  -2.737  28.844  0.00  0.00    -0.164 F 
ATOM     21  F   UNL d   1      57.939  -1.739  28.747  0.00  0.00    -0.164 F 
ATOM     22  F   UNL d   1      58.768  -2.502  29.995  0.00  0.00    -0.164 F 
ENDBRANCH   1  19
BRANCH  10  23
ATOM     23  C   UNL d   1      56.812   0.660  32.683  0.00  0.00     0.002 C 
ATOM     24  C   UNL d   1      57.058   0.662  33.333  0.00  0.00     0.000 C 
ENDBRANCH  10  23
BRANCH   9  25
ATOM     25  O   UNL d   1      56.367  -0.946  32.956  0.00  0.00    -0.273 OA
BRANCH  25  26
ATOM     26  C   UNL d   1      55.983  -1.673  33.000  0.00  0.00     0.300 C 
ATOM     27  O   UNL d   1      56.381  -2.343  33.294  0.00  0.00    -0.259 OA
ATOM     28  C   UNL d   1      55.213  -1.753  32.758  0.00  0.00     0.074 C 
ENDBRANCH  25  26
ENDBRANCH   9  25
TORSDOF 6
ENDMDL
MODEL 2
REMARK VINA RESULT:      -0.8      2.180      4.693
REMARK  6 active torsions:
REMARK  status: ('A' for Active; 'I' for Inactive)
REMARK    1  A    between atoms: C_7  and  C_1 
REMARK    2  A    between atoms: O_11  and  C_2 
REMARK    3  A    between atoms: O_13  and  C_10 
REMARK    4  A    between atoms: C_20  and  O_11 
REMARK    5  A    between atoms: C_21  and  C_12 
REMARK    6  A    between atoms: C_14  and  O_13 
ROOT
ATOM      1  C   UNL d   1      58.344   0.670  32.503  0.00  0.00     0.197 A 
ATOM      2  C   UNL d   1      57.547   0.669  32.219  0.00  0.00     0.165 A 
ATOM      3  O   UNL d   1      58.970   0.672  31.963  0.00  0.00    -0.301 OA
ATOM      4  C   UNL d   1      57.419   0.669  31.403  0.00  0.00     0.222 A 
ATOM      5  C   UNL d   1      58.044   0.671  30.863  0.00  0.00     0.064 A 
ATOM      6  C   UNL d   1      58.832   0.672  31.161  0.00  0.00     0.105 A 
ATOM      7  C   UNL d   1      57.903   0.671  30.064  0.00  0.00     0.007 A 
ATOM      8  C   UNL d   1      59.460   0.673  30.622  0.00  0.00     0.050 A 
ATOM      9  C   UNL d   1      59.313   0.674  29.817  0.00  0.00     0.105 A 
ATOM     10  C   UNL d   1      58.528   0.673  29.529  0.00  0.00     0.023 A 
ATOM     11  O   UNL d   1      56.615   0.668  31.125  0.00  0.00    -0.284 OA
ENDROOT
BRANCH   2  12
ATOM     12  O   UNL d   1      56.909   0.668  32.744  0.00  0.00    -0.302 OA
BRANCH  12  13
ATOM     13  C   UNL d   1      56.445  -0.002  32.813  0.00  0.00     0.100 A 
ATOM     14  C   UNL d   1      56.767  -0.762  32.726  0.00  0.00     0.025 A 
ATOM     15  C   UNL d   1      56.290  -1.406  32.798  0.00  0.00     0.002 A 
ATOM     16  C   UNL d   1      55.482  -1.328  32.958  0.00  0.00     0.000 A 
ATOM     17  C   UNL d   1      55.178  -0.588  33.041  0.00  0.00     0.002 A 
ATOM     18  C   UNL d   1      55.638   0.077  32.973  0.00  0.00     0.025 A 
ENDBRANCH  12  13
ENDBRANCH   2  12
BRANCH   1  19
ATOM     19  C   UNL d   1      58.513   0.670  33.311  0.00  0.00     0.442 C 
ATOM     20  F   UNL d   1      58.693   0.669  34.131  0.00  0.00    -0.164 F 
ATOM     21  F   UNL d   1      57.694   0.682  33.489  0.00  0.00    -0.164 F 
ATOM     22  F   UNL d   1      59.336   0.657  33.129  0.00  0.00    -0.164 F 
ENDBRANCH   1  19
BRANCH  10  23
ATOM     23  C   UNL d   1      58.359   0.673  28.721  0.00  0.00     0.002 C 
ATOM     24  C   UNL d   1      57.701   0.620  28.503  0.00  0.00     0.000 C 
ENDBRANCH  10  23
BRANCH   9  25
ATOM     25  O   UNL d   1      59.948   0.675  29.294  0.00  0.00    -0.273 OA
BRANCH  25  26
ATOM     26  C   UNL d   1      60.676   0.360  29.512  0.00  0.00     0.300 C 
ATOM     27  O   UNL d   1      61.056   0.616  30.207  0.00  0.00    -0.259 OA
ATOM     28  C   UNL d   1      61.039  -0.205  29.057  0.00  0.00     0.074 C 
ENDBRANCH  25  26
ENDBRANCH   9  25
TORSDOF 6
ENDMDL
