MODEL 1
REMARK VINA RESULT:       8.7      0.000      0.000
REMARK  5 active torsions:
REMARK  status: ('A' for Active; 'I' for Inactive)
REMARK    1  A    between atoms: N_2  and  C_1 
REMARK    2  A    between atoms: C_8  and  C_1 
REMARK    3  A    between atoms: O_5  and  N_2 
REMARK    4  A    between atoms: C_3  and  O_5 
REMARK    5  A    between atoms: C_4  and  C_3 
ROOT
ATOM      1  C   UNL d   1      45.408 -15.955  44.575  0.00  0.00     0.319 C 
ATOM      2  O   UNL d   1      44.647 -16.288  44.932  0.00  0.00    -0.257 OA
ENDROOT
BRANCH   1   3
ATOM      3  O   UNL d   1      46.013 -16.528  44.205  0.00  0.00    -0.168 OA
BRANCH   3   4
ATOM      4  N   UNL d   1      45.934 -17.342  44.312  0.00  0.00    -0.100 NA
BRANCH   4   5
ATOM      5  C   UNL d   1      46.272 -17.852  43.758  0.00  0.00     0.228 C 
ATOM      6  N   UNL d   1      46.517 -17.567  43.015  0.00  0.00    -0.123 N 
BRANCH   5   7
ATOM      7  C   UNL d   1      46.361 -18.648  43.952  0.00  0.00     0.121 A 
ATOM      8  N   UNL d   1      46.245 -19.206  43.360  0.00  0.00    -0.241 NA
ATOM      9  C   UNL d   1      46.333 -20.023  43.540  0.00  0.00     0.099 A 
ATOM     10  C   UNL d   1      46.535 -20.248  44.310  0.00  0.00     0.021 A 
ATOM     11  C   UNL d   1      46.647 -19.677  44.888  0.00  0.00     0.003 A 
ATOM     12  C   UNL d   1      46.559 -18.882  44.703  0.00  0.00     0.022 A 
ENDBRANCH   5   7
ENDBRANCH   4   5
ENDBRANCH   3   4
ENDBRANCH   1   3
BRANCH   1  13
ATOM     13  C   UNL d   1      45.562 -15.140  44.580  0.00  0.00     0.065 A 
ATOM     14  C   UNL d   1      45.033 -14.639  44.194  0.00  0.00     0.005 A 
ATOM     15  C   UNL d   1      45.180 -13.826  44.195  0.00  0.00     0.000 A 
ATOM     16  C   UNL d   1      44.660 -13.300  43.811  0.00  0.00     0.000 C 
ATOM     17  C   UNL d   1      45.838 -13.525  44.571  0.00  0.00     0.000 A 
ATOM     18  C   UNL d   1      46.358 -14.031  44.952  0.00  0.00     0.000 A 
ATOM     19  C   UNL d   1      46.004 -12.705  44.582  0.00  0.00     0.000 C 
ATOM     20  C   UNL d   1      46.218 -14.839  44.955  0.00  0.00     0.005 A 
ENDBRANCH   1  13
TORSDOF 5
ENDMDL
