MODEL 1
REMARK VINA RESULT:      15.4      0.000      0.000
REMARK  3 active torsions:
REMARK  status: ('A' for Active; 'I' for Inactive)
REMARK    1  A    between atoms: C_7  and  C_8 
REMARK       I    between atoms: N_10  and  C_7 
REMARK    2  A    between atoms: C_19  and  N_10 
REMARK    3  A    between atoms: C_11  and  C_19 
ROOT
ATOM      1  C   UNL d   1      45.951 -18.087  43.894  0.00  0.00     0.039 A 
ATOM      2  C   UNL d   1      46.062 -18.885  44.080  0.00  0.00     0.196 A 
ATOM      3  C   UNL d   1      46.088 -17.993  43.086  0.00  0.00     0.003 A 
ATOM      4  C   UNL d   1      46.267 -19.282  43.383  0.00  0.00     0.039 A 
ATOM      5  C   UNL d   1      46.283 -18.730  42.773  0.00  0.00     0.003 A 
ATOM      6  C   UNL d   1      45.746 -17.440  44.349  0.00  0.00     0.008 A 
ATOM      7  C   UNL d   1      45.676 -16.699  44.009  0.00  0.00     0.058 A 
ATOM      8  C   UNL d   1      46.020 -17.246  42.731  0.00  0.00     0.000 A 
ATOM      9  O   UNL d   1      45.982 -19.228  44.826  0.00  0.00    -0.287 OA
ATOM     10  C   UNL d   1      45.811 -16.596  43.200  0.00  0.00     0.005 A 
ATOM     11  C   UNL d   1      46.440 -20.070  43.233  0.00  0.00     0.003 A 
ATOM     12  C   UNL d   1      46.473 -18.969  42.006  0.00  0.00     0.000 A 
ATOM     13  C   UNL d   1      46.629 -20.311  42.470  0.00  0.00     0.000 A 
ATOM     14  C   UNL d   1      46.647 -19.761  41.854  0.00  0.00     0.000 A 
ENDROOT
BRANCH   7  15
ATOM     15  C   UNL d   1      45.468 -16.046  44.471  0.00  0.00     0.279 C 
ATOM     16  N   UNL d   1      45.926 -15.365  44.446  0.00  0.00    -0.204 NA
ATOM     17  O   UNL d   1      44.804 -16.079  44.955  0.00  0.00    -0.265 OA
BRANCH  16  18
ATOM     18  C   UNL d   1      45.724 -14.707  44.906  0.00  0.00     0.127 C 
BRANCH  18  19
ATOM     19  C   UNL d   1      45.782 -13.951  44.594  0.00  0.00     0.119 A 
ATOM     20  O   UNL d   1      45.429 -13.689  43.900  0.00  0.00    -0.304 OA
ATOM     21  C   UNL d   1      45.629 -12.896  43.791  0.00  0.00     0.123 A 
ATOM     22  C   UNL d   1      46.110 -12.671  44.427  0.00  0.00     0.029 A 
ATOM     23  C   UNL d   1      46.204 -13.324  44.924  0.00  0.00     0.028 A 
ENDBRANCH  18  19
ENDBRANCH  16  18
ENDBRANCH   7  15
TORSDOF 3
ENDMDL
