MODEL 1
REMARK VINA RESULT:      78.0      0.000      0.000
REMARK  8 active torsions:
REMARK  status: ('A' for Active; 'I' for Inactive)
REMARK    1  A    between atoms: C_6  and  N_1 
REMARK    2  A    between atoms: C_15  and  N_2 
REMARK    3  A    between atoms: C_8  and  C_3 
REMARK    4  A    between atoms: O_23  and  C_5 
REMARK    5  A    between atoms: C_7  and  O_9 
REMARK    6  A    between atoms: O_9  and  C_21 
REMARK    7  A    between atoms: C_20  and  C_15 
REMARK    8  A    between atoms: C_21  and  C_20 
ROOT
ATOM      1  C   UNL d   1      61.178  48.737  50.792  0.00  0.00     0.238 C 
ATOM      2  O   UNL d   1      61.880  48.833  51.216  0.00  0.00    -0.283 OA
ENDROOT
BRANCH   1   3
ATOM      3  C   UNL d   1      61.139  48.198  50.169  0.00  0.00     0.125 C 
BRANCH   3   4
ATOM      4  N   UNL d   1      61.192  47.380  50.316  0.00  0.00    -0.297 N 
ATOM      5  C   UNL d   1      61.474  46.885  49.714  0.00  0.00     0.100 A 
ATOM      6  C   UNL d   1      61.531  46.072  49.848  0.00  0.00     0.100 A 
ATOM      7  N   UNL d   1      61.308  45.761  50.580  0.00  0.00    -0.301 N 
ATOM      8  C   UNL d   1      61.027  46.259  51.181  0.00  0.00     0.100 A 
ATOM      9  C   UNL d   1      60.969  47.081  51.045  0.00  0.00     0.100 A 
BRANCH   7  10
ATOM     10  C   UNL d   1      61.366  44.948  50.714  0.00  0.00     0.064 A 
ATOM     11  C   UNL d   1      61.600  44.444  50.105  0.00  0.00     0.020 A 
ATOM     12  C   UNL d   1      61.659  43.629  50.236  0.00  0.00     0.031 A 
ATOM     13  C   UNL d   1      61.481  43.326  50.981  0.00  0.00     0.140 A 
ATOM     14  C   UNL d   1      61.245  43.833  51.593  0.00  0.00     0.031 A 
ATOM     15  F   UNL d   1      61.538  42.514  51.114  0.00  0.00    -0.204 F 
ATOM     16  C   UNL d   1      61.190  44.641  51.452  0.00  0.00     0.020 A 
ENDBRANCH   7  10
ENDBRANCH   3   4
ENDBRANCH   1   3
BRANCH   1  17
ATOM     17  C   UNL d   1      60.501  49.188  50.992  0.00  0.00     0.166 C 
BRANCH  17  18
ATOM     18  O   UNL d   1      60.142  49.685  50.420  0.00  0.00    -0.300 OA
BRANCH  18  19
ATOM     19  C   UNL d   1      59.319  49.658  50.266  0.00  0.00     0.122 A 
ATOM     20  C   UNL d   1      58.787  49.628  50.885  0.00  0.00     0.117 A 
ATOM     21  C   UNL d   1      57.982  49.602  50.735  0.00  0.00     0.029 A 
ATOM     22  C   UNL d   1      57.707  49.605  49.956  0.00  0.00     0.041 A 
ATOM     23  C   UNL d   1      58.240  49.634  49.337  0.00  0.00     0.005 A 
ATOM     24  C   UNL d   1      59.056  49.661  49.486  0.00  0.00     0.027 A 
BRANCH  20  25
ATOM     25  O   UNL d   1      59.061  49.626  51.659  0.00  0.00    -0.326 OA
ATOM     26  C   UNL d   1      58.530  49.699  52.286  0.00  0.00     0.181 C 
ENDBRANCH  20  25
BRANCH  22  27
ATOM     27  C   UNL d   1      56.899  49.578  49.803  0.00  0.00     0.196 C 
ATOM     28  O   UNL d   1      56.628  49.433  49.038  0.00  0.00    -0.287 OA
ATOM     29  C   UNL d   1      56.361  49.696  50.415  0.00  0.00     0.045 C 
ENDBRANCH  22  27
ENDBRANCH  18  19
ENDBRANCH  17  18
ENDBRANCH   1  17
TORSDOF 8
ENDMDL
