MODEL 1
REMARK VINA RESULT:      -9.8      0.000      0.000
REMARK  2 active torsions:
REMARK  status: ('A' for Active; 'I' for Inactive)
REMARK    1  A    between atoms: N_2  and  S_1 
REMARK    2  A    between atoms: C_3  and  S_1 
ROOT
ATOM      1  C   UNL d   1      53.436  32.527  54.030  0.00  0.00     0.104 A 
ATOM      2  O   UNL d   1      53.762  34.903  54.624  0.00  0.00    -0.273 OA
ATOM      3  C   UNL d   1      53.205  35.476  54.384  0.00  0.00     0.300 A 
ATOM      4  C   UNL d   1      52.991  33.879  53.988  0.00  0.00     0.024 A 
ATOM      5  C   UNL d   1      53.654  34.111  54.427  0.00  0.00     0.103 A 
ATOM      6  C   UNL d   1      52.428  34.446  53.744  0.00  0.00     0.007 A 
ATOM      7  C   UNL d   1      52.882  33.088  53.791  0.00  0.00     0.015 A 
ATOM      8  C   UNL d   1      52.542  35.244  53.946  0.00  0.00     0.069 A 
ATOM      9  C   UNL d   1      54.099  32.759  54.469  0.00  0.00     0.015 A 
ATOM     10  O   UNL d   1      53.320  36.270  54.586  0.00  0.00    -0.259 OA
ATOM     11  C   UNL d   1      54.207  33.551  54.666  0.00  0.00     0.025 A 
ENDROOT
BRANCH   1  12
ATOM     12  S   UNL d   1      53.331  31.737  53.835  0.00  0.00     0.272 S 
ATOM     13  O   UNL d   1      53.261  31.935  53.037  0.00  0.00    -0.200 OA
ATOM     14  O   UNL d   1      53.401  31.529  54.630  0.00  0.00    -0.200 OA
BRANCH  12  15
ATOM     15  N   UNL d   1      53.226  30.940  53.640  0.00  0.00    -0.225 N 
ATOM     16  C   UNL d   1      53.495  30.349  54.156  0.00  0.00     0.118 A 
ATOM     17  C   UNL d   1      53.391  29.556  53.964  0.00  0.00     0.142 A 
ATOM     18  O   UNL d   1      53.021  29.339  53.259  0.00  0.00    -0.300 OA
ATOM     19  C   UNL d   1      52.751  29.933  52.740  0.00  0.00     0.142 A 
ATOM     20  C   UNL d   1      52.853  30.729  52.929  0.00  0.00     0.118 A 
ENDBRANCH  12  15
ENDBRANCH   1  12
TORSDOF 2
ENDMDL
MODEL 2
REMARK VINA RESULT:      -9.2      2.415      3.555
REMARK  2 active torsions:
REMARK  status: ('A' for Active; 'I' for Inactive)
REMARK    1  A    between atoms: N_2  and  S_1 
REMARK    2  A    between atoms: C_3  and  S_1 
ROOT
ATOM      1  C   UNL d   1      52.330  34.346  53.598  0.00  0.00     0.104 A 
ATOM      2  O   UNL d   1      54.345  34.397  55.026  0.00  0.00    -0.273 OA
ATOM      3  C   UNL d   1      54.750  33.689  55.205  0.00  0.00     0.300 A 
ATOM      4  C   UNL d   1      53.396  33.661  54.247  0.00  0.00     0.024 A 
ATOM      5  C   UNL d   1      53.674  34.380  54.550  0.00  0.00     0.103 A 
ATOM      6  C   UNL d   1      53.796  32.949  54.421  0.00  0.00     0.007 A 
ATOM      7  C   UNL d   1      52.725  33.645  53.771  0.00  0.00     0.015 A 
ATOM      8  C   UNL d   1      54.473  32.970  54.902  0.00  0.00     0.069 A 
ATOM      9  C   UNL d   1      52.607  35.065  53.901  0.00  0.00     0.015 A 
ATOM     10  O   UNL d   1      55.424  33.712  55.684  0.00  0.00    -0.259 OA
ATOM     11  C   UNL d   1      53.279  35.081  54.377  0.00  0.00     0.025 A 
ENDROOT
BRANCH   1  12
ATOM     12  S   UNL d   1      51.660  34.334  53.124  0.00  0.00     0.272 S 
ATOM     13  O   UNL d   1      51.251  33.908  53.699  0.00  0.00    -0.200 OA
ATOM     14  O   UNL d   1      52.061  34.761  52.542  0.00  0.00    -0.200 OA
BRANCH  12  15
ATOM     15  N   UNL d   1      50.986  34.324  52.645  0.00  0.00    -0.225 N 
ATOM     16  C   UNL d   1      50.244  34.503  52.970  0.00  0.00     0.118 A 
ATOM     17  C   UNL d   1      49.573  34.492  52.494  0.00  0.00     0.142 A 
ATOM     18  O   UNL d   1      49.628  34.304  51.692  0.00  0.00    -0.300 OA
ATOM     19  C   UNL d   1      50.373  34.124  51.366  0.00  0.00     0.142 A 
ATOM     20  C   UNL d   1      51.049  34.133  51.839  0.00  0.00     0.118 A 
ENDBRANCH  12  15
ENDBRANCH   1  12
TORSDOF 2
ENDMDL
MODEL 3
REMARK VINA RESULT:      -9.0      1.239      4.271
REMARK  2 active torsions:
REMARK  status: ('A' for Active; 'I' for Inactive)
REMARK    1  A    between atoms: N_2  and  S_1 
REMARK    2  A    between atoms: C_3  and  S_1 
ROOT
ATOM      1  C   UNL d   1      52.896  32.705  53.596  0.00  0.00     0.104 A 
ATOM      2  O   UNL d   1      52.534  30.394  52.800  0.00  0.00    -0.273 OA
ATOM      3  C   UNL d   1      52.953  29.761  53.146  0.00  0.00     0.300 A 
ATOM      4  C   UNL d   1      53.192  31.314  53.676  0.00  0.00     0.024 A 
ATOM      5  C   UNL d   1      52.654  31.164  53.065  0.00  0.00     0.103 A 
ATOM      6  C   UNL d   1      53.616  30.687  54.027  0.00  0.00     0.007 A 
ATOM      7  C   UNL d   1      53.313  32.084  53.940  0.00  0.00     0.015 A 
ATOM      8  C   UNL d   1      53.491  29.911  53.757  0.00  0.00     0.069 A 
ATOM      9  C   UNL d   1      52.358  32.555  52.985  0.00  0.00     0.015 A 
ATOM     10  O   UNL d   1      52.827  28.990  52.875  0.00  0.00    -0.259 OA
ATOM     11  C   UNL d   1      52.237  31.785  52.720  0.00  0.00     0.025 A 
ENDROOT
BRANCH   1  12
ATOM     12  S   UNL d   1      53.013  33.474  53.857  0.00  0.00     0.272 S 
ATOM     13  O   UNL d   1      53.781  33.468  53.555  0.00  0.00    -0.200 OA
ATOM     14  O   UNL d   1      52.247  33.490  54.162  0.00  0.00    -0.200 OA
BRANCH  12  15
ATOM     15  N   UNL d   1      53.130  34.250  54.120  0.00  0.00    -0.225 N 
ATOM     16  C   UNL d   1      53.383  34.389  54.897  0.00  0.00     0.118 A 
ATOM     17  C   UNL d   1      53.499  35.159  55.161  0.00  0.00     0.142 A 
ATOM     18  O   UNL d   1      53.366  35.801  54.659  0.00  0.00    -0.300 OA
ATOM     19  C   UNL d   1      53.112  35.661  53.878  0.00  0.00     0.142 A 
ATOM     20  C   UNL d   1      52.994  34.890  53.609  0.00  0.00     0.118 A 
ENDBRANCH  12  15
ENDBRANCH   1  12
TORSDOF 2
ENDMDL
MODEL 4
REMARK VINA RESULT:      -8.2      2.415      3.539
REMARK  2 active torsions:
REMARK  status: ('A' for Active; 'I' for Inactive)
REMARK    1  A    between atoms: N_2  and  S_1 
REMARK    2  A    between atoms: C_3  and  S_1 
ROOT
ATOM      1  C   UNL d   1      52.055  33.938  53.156  0.00  0.00     0.104 A 
ATOM      2  O   UNL d   1      50.215  34.416  51.578  0.00  0.00    -0.273 OA
ATOM      3  C   UNL d   1      49.467  34.652  51.865  0.00  0.00     0.300 A 
ATOM      4  C   UNL d   1      50.706  34.329  52.919  0.00  0.00     0.024 A 
ATOM      5  C   UNL d   1      50.828  34.256  52.104  0.00  0.00     0.103 A 
ATOM      6  C   UNL d   1      49.962  34.564  53.214  0.00  0.00     0.007 A 
ATOM      7  C   UNL d   1      51.320  34.170  53.444  0.00  0.00     0.015 A 
ATOM      8  C   UNL d   1      49.346  34.724  52.681  0.00  0.00     0.069 A 
ATOM      9  C   UNL d   1      52.177  33.865  52.340  0.00  0.00     0.015 A 
ATOM     10  O   UNL d   1      48.855  34.810  51.332  0.00  0.00    -0.259 OA
ATOM     11  C   UNL d   1      51.563  34.024  51.815  0.00  0.00     0.025 A 
ENDROOT
BRANCH   1  12
ATOM     12  S   UNL d   1      52.669  33.778  53.676  0.00  0.00     0.272 S 
ATOM     13  O   UNL d   1      52.970  34.538  53.567  0.00  0.00    -0.200 OA
ATOM     14  O   UNL d   1      52.376  33.015  53.791  0.00  0.00    -0.200 OA
BRANCH  12  15
ATOM     15  N   UNL d   1      53.288  33.615  54.201  0.00  0.00    -0.225 N 
ATOM     16  C   UNL d   1      53.565  32.838  54.285  0.00  0.00     0.118 A 
ATOM     17  C   UNL d   1      54.180  32.674  54.806  0.00  0.00     0.142 A 
ATOM     18  O   UNL d   1      54.527  33.278  55.250  0.00  0.00    -0.300 OA
ATOM     19  C   UNL d   1      54.248  34.058  55.166  0.00  0.00     0.142 A 
ATOM     20  C   UNL d   1      53.632  34.226  54.644  0.00  0.00     0.118 A 
ENDBRANCH  12  15
ENDBRANCH   1  12
TORSDOF 2
ENDMDL
MODEL 5
REMARK VINA RESULT:      -8.2      1.319      4.332
REMARK  2 active torsions:
REMARK  status: ('A' for Active; 'I' for Inactive)
REMARK    1  A    between atoms: N_2  and  S_1 
REMARK    2  A    between atoms: C_3  and  S_1 
ROOT
ATOM      1  C   UNL d   1      52.862  31.632  53.333  0.00  0.00     0.104 A 
ATOM      2  O   UNL d   1      53.167  29.199  53.629  0.00  0.00    -0.273 OA
ATOM      3  C   UNL d   1      53.340  28.886  54.382  0.00  0.00     0.300 A 
ATOM      4  C   UNL d   1      53.134  30.519  54.178  0.00  0.00     0.024 A 
ATOM      5  C   UNL d   1      53.065  30.010  53.530  0.00  0.00     0.103 A 
ATOM      6  C   UNL d   1      53.308  30.215  54.936  0.00  0.00     0.007 A 
ATOM      7  C   UNL d   1      53.033  31.330  54.080  0.00  0.00     0.015 A 
ATOM      8  C   UNL d   1      53.410  29.396  55.031  0.00  0.00     0.069 A 
ATOM      9  C   UNL d   1      52.792  31.123  52.685  0.00  0.00     0.015 A 
ATOM     10  O   UNL d   1      53.441  28.071  54.475  0.00  0.00    -0.259 OA
ATOM     11  C   UNL d   1      52.894  30.312  52.783  0.00  0.00     0.025 A 
ENDROOT
BRANCH   1  12
ATOM     12  S   UNL d   1      52.759  32.440  53.231  0.00  0.00     0.272 S 
ATOM     13  O   UNL d   1      53.576  32.544  53.172  0.00  0.00    -0.200 OA
ATOM     14  O   UNL d   1      51.942  32.347  53.288  0.00  0.00    -0.200 OA
BRANCH  12  15
ATOM     15  N   UNL d   1      52.655  33.254  53.127  0.00  0.00    -0.225 N 
ATOM     16  C   UNL d   1      52.023  33.535  52.669  0.00  0.00     0.118 A 
ATOM     17  C   UNL d   1      51.917  34.344  52.565  0.00  0.00     0.142 A 
ATOM     18  O   UNL d   1      52.436  34.885  52.913  0.00  0.00    -0.300 OA
ATOM     19  C   UNL d   1      53.070  34.602  53.373  0.00  0.00     0.142 A 
ATOM     20  C   UNL d   1      53.180  33.791  53.480  0.00  0.00     0.118 A 
ENDBRANCH  12  15
ENDBRANCH   1  12
TORSDOF 2
ENDMDL
MODEL 6
REMARK VINA RESULT:      -7.7      2.280      4.201
REMARK  2 active torsions:
REMARK  status: ('A' for Active; 'I' for Inactive)
REMARK    1  A    between atoms: N_2  and  S_1 
REMARK    2  A    between atoms: C_3  and  S_1 
ROOT
ATOM      1  C   UNL d   1      51.925  33.036  53.062  0.00  0.00     0.104 A 
ATOM      2  O   UNL d   1      53.840  31.548  53.534  0.00  0.00    -0.273 OA
ATOM      3  C   UNL d   1      53.780  30.729  53.389  0.00  0.00     0.300 A 
ATOM      4  C   UNL d   1      52.498  31.732  53.074  0.00  0.00     0.024 A 
ATOM      5  C   UNL d   1      53.202  32.044  53.377  0.00  0.00     0.103 A 
ATOM      6  C   UNL d   1      52.430  30.913  52.926  0.00  0.00     0.007 A 
ATOM      7  C   UNL d   1      51.860  32.228  52.917  0.00  0.00     0.015 A 
ATOM      8  C   UNL d   1      53.076  30.416  53.086  0.00  0.00     0.069 A 
ATOM      9  C   UNL d   1      52.630  33.348  53.365  0.00  0.00     0.015 A 
ATOM     10  O   UNL d   1      54.425  30.235  53.549  0.00  0.00    -0.259 OA
ATOM     11  C   UNL d   1      53.267  32.852  53.522  0.00  0.00     0.025 A 
ENDROOT
BRANCH   1  12
ATOM     12  S   UNL d   1      51.292  33.534  52.906  0.00  0.00     0.272 S 
ATOM     13  O   UNL d   1      51.716  33.897  52.299  0.00  0.00    -0.200 OA
ATOM     14  O   UNL d   1      50.859  33.176  53.511  0.00  0.00    -0.200 OA
BRANCH  12  15
ATOM     15  N   UNL d   1      50.652  34.035  52.751  0.00  0.00    -0.225 N 
ATOM     16  C   UNL d   1      50.329  34.069  51.988  0.00  0.00     0.118 A 
ATOM     17  C   UNL d   1      49.693  34.567  51.832  0.00  0.00     0.142 A 
ATOM     18  O   UNL d   1      49.370  35.037  52.429  0.00  0.00    -0.300 OA
ATOM     19  C   UNL d   1      49.695  35.003  53.196  0.00  0.00     0.142 A 
ATOM     20  C   UNL d   1      50.333  34.504  53.356  0.00  0.00     0.118 A 
ENDBRANCH  12  15
ENDBRANCH   1  12
TORSDOF 2
ENDMDL
MODEL 7
REMARK VINA RESULT:      -7.3      2.675      3.443
REMARK  2 active torsions:
REMARK  status: ('A' for Active; 'I' for Inactive)
REMARK    1  A    between atoms: N_2  and  S_1 
REMARK    2  A    between atoms: C_3  and  S_1 
ROOT
ATOM      1  C   UNL d   1      51.546  33.701  53.014  0.00  0.00     0.104 A 
ATOM      2  O   UNL d   1      49.374  34.783  52.550  0.00  0.00    -0.273 OA
ATOM      3  C   UNL d   1      49.084  34.823  51.769  0.00  0.00     0.300 A 
ATOM      4  C   UNL d   1      50.541  34.098  52.086  0.00  0.00     0.024 A 
ATOM      5  C   UNL d   1      50.097  34.422  52.705  0.00  0.00     0.103 A 
ATOM      6  C   UNL d   1      50.258  34.134  51.301  0.00  0.00     0.007 A 
ATOM      7  C   UNL d   1      51.265  33.738  52.241  0.00  0.00     0.015 A 
ATOM      8  C   UNL d   1      49.527  34.499  51.149  0.00  0.00     0.069 A 
ATOM      9  C   UNL d   1      51.102  34.025  53.633  0.00  0.00     0.015 A 
ATOM     10  O   UNL d   1      48.356  35.187  51.620  0.00  0.00    -0.259 OA
ATOM     11  C   UNL d   1      50.378  34.385  53.478  0.00  0.00     0.025 A 
ENDROOT
BRANCH   1  12
ATOM     12  S   UNL d   1      52.267  33.342  53.173  0.00  0.00     0.272 S 
ATOM     13  O   UNL d   1      51.897  32.606  53.227  0.00  0.00    -0.200 OA
ATOM     14  O   UNL d   1      52.645  34.074  53.120  0.00  0.00    -0.200 OA
BRANCH  12  15
ATOM     15  N   UNL d   1      52.994  32.983  53.333  0.00  0.00    -0.225 N 
ATOM     16  C   UNL d   1      53.629  33.438  53.610  0.00  0.00     0.118 A 
ATOM     17  C   UNL d   1      54.353  33.082  53.770  0.00  0.00     0.142 A 
ATOM     18  O   UNL d   1      54.457  32.271  53.656  0.00  0.00    -0.300 OA
ATOM     19  C   UNL d   1      53.819  31.813  53.378  0.00  0.00     0.142 A 
ATOM     20  C   UNL d   1      53.091  32.167  53.216  0.00  0.00     0.118 A 
ENDBRANCH  12  15
ENDBRANCH   1  12
TORSDOF 2
ENDMDL
MODEL 8
REMARK VINA RESULT:      -6.9      1.894      2.393
REMARK  2 active torsions:
REMARK  status: ('A' for Active; 'I' for Inactive)
REMARK    1  A    between atoms: N_2  and  S_1 
REMARK    2  A    between atoms: C_3  and  S_1 
ROOT
ATOM      1  C   UNL d   1      52.114  33.045  53.183  0.00  0.00     0.104 A 
ATOM      2  O   UNL d   1      50.743  35.099  53.098  0.00  0.00    -0.273 OA
ATOM      3  C   UNL d   1      49.923  35.050  52.949  0.00  0.00     0.300 A 
ATOM      4  C   UNL d   1      50.848  33.675  53.007  0.00  0.00     0.024 A 
ATOM      5  C   UNL d   1      51.200  34.415  53.126  0.00  0.00     0.103 A 
ATOM      6  C   UNL d   1      50.029  33.617  52.857  0.00  0.00     0.007 A 
ATOM      7  C   UNL d   1      51.306  32.991  53.035  0.00  0.00     0.015 A 
ATOM      8  C   UNL d   1      49.572  34.310  52.829  0.00  0.00     0.069 A 
ATOM      9  C   UNL d   1      52.465  33.785  53.302  0.00  0.00     0.015 A 
ATOM     10  O   UNL d   1      49.470  35.741  52.921  0.00  0.00    -0.259 OA
ATOM     11  C   UNL d   1      52.008  34.469  53.274  0.00  0.00     0.025 A 
ENDROOT
BRANCH   1  12
ATOM     12  S   UNL d   1      52.573  32.366  53.212  0.00  0.00     0.272 S 
ATOM     13  O   UNL d   1      52.601  32.411  54.035  0.00  0.00    -0.200 OA
ATOM     14  O   UNL d   1      52.551  32.313  52.389  0.00  0.00    -0.200 OA
BRANCH  12  15
ATOM     15  N   UNL d   1      53.036  31.681  53.239  0.00  0.00    -0.225 N 
ATOM     16  C   UNL d   1      52.718  30.956  52.992  0.00  0.00     0.118 A 
ATOM     17  C   UNL d   1      53.177  30.274  53.019  0.00  0.00     0.142 A 
ATOM     18  O   UNL d   1      53.956  30.302  53.291  0.00  0.00    -0.300 OA
ATOM     19  C   UNL d   1      54.276  31.030  53.539  0.00  0.00     0.142 A 
ATOM     20  C   UNL d   1      53.818  31.716  53.514  0.00  0.00     0.118 A 
ENDBRANCH  12  15
ENDBRANCH   1  12
TORSDOF 2
ENDMDL
