MODEL 1
REMARK VINA RESULT:      41.6      0.000      0.000
REMARK  4 active torsions:
REMARK  status: ('A' for Active; 'I' for Inactive)
REMARK    1  A    between atoms: C_7  and  N_1 
REMARK    2  A    between atoms: N_6  and  C_2 
REMARK    3  A    between atoms: C_10  and  N_6 
REMARK    4  A    between atoms: C_12  and  C_7 
ROOT
ATOM      1  N   UNL d   1     -55.794 -99.959 -44.112  0.00  0.00    -0.239 N 
ATOM      2  C   UNL d   1     -56.869 -99.276 -44.559  0.00  0.00     0.151 A 
ATOM      3  C   UNL d   1     -56.495-100.042 -44.570  0.00  0.00     0.285 A 
ATOM      4  C   UNL d   1     -55.753 -99.140 -43.828  0.00  0.00     0.269 A 
ATOM      5  C   UNL d   1     -56.415 -98.756 -44.115  0.00  0.00     0.086 A 
ATOM      6  O   UNL d   1     -56.754-100.582 -44.900  0.00  0.00    -0.265 OA
ATOM      7  O   UNL d   1     -55.217 -99.003 -43.455  0.00  0.00    -0.267 OA
ENDROOT
BRANCH   2   8
ATOM      8  N   UNL d   1     -57.581 -99.064 -44.931  0.00  0.00    -0.181 N 
ATOM      9  O   UNL d   1     -57.440 -98.994 -45.668  0.00  0.00    -0.080 OA
BRANCH   8  10
ATOM     10  C   UNL d   1     -58.270 -98.970 -44.483  0.00  0.00     0.090 A 
ATOM     11  C   UNL d   1     -58.235 -98.848 -43.663  0.00  0.00     0.020 A 
ATOM     12  C   UNL d   1     -58.937 -98.755 -43.219  0.00  0.00     0.002 A 
ATOM     13  C   UNL d   1     -59.683 -98.782 -43.585  0.00  0.00     0.000 A 
ATOM     14  C   UNL d   1     -59.715 -98.904 -44.405  0.00  0.00     0.002 A 
ATOM     15  C   UNL d   1     -59.021 -98.997 -44.853  0.00  0.00     0.020 A 
ENDBRANCH   8  10
ENDBRANCH   2   8
BRANCH   1  16
ATOM     16  C   UNL d   1     -55.227-100.458 -43.921  0.00  0.00     0.086 C 
BRANCH  16  17
ATOM     17  C   UNL d   1     -55.151-101.167 -44.311  0.00  0.00     0.018 A 
ATOM     18  C   UNL d   1     -54.905-101.175 -45.087  0.00  0.00     0.002 A 
ATOM     19  C   UNL d   1     -54.829-101.884 -45.478  0.00  0.00     0.000 A 
ATOM     20  C   UNL d   1     -54.996-102.578 -45.103  0.00  0.00     0.000 A 
ATOM     21  C   UNL d   1     -55.246-102.570 -44.316  0.00  0.00     0.000 A 
ATOM     22  C   UNL d   1     -55.324-101.854 -43.915  0.00  0.00     0.002 A 
ENDBRANCH  16  17
ENDBRANCH   1  16
TORSDOF 4
ENDMDL
