MODEL 1
REMARK VINA RESULT:      -4.7      0.000      0.000
REMARK  6 active torsions:
REMARK  status: ('A' for Active; 'I' for Inactive)
REMARK    1  A    between atoms: C_4  and  C_1 
REMARK    2  A    between atoms: C_3  and  C_7 
REMARK    3  A    between atoms: O_18  and  C_3 
REMARK    4  A    between atoms: C_9  and  C_4 
REMARK    5  A    between atoms: O_13  and  C_9 
REMARK    6  A    between atoms: C_15  and  O_13 
ROOT
ATOM      1  C   UNL d   1      58.198  -0.657  30.166  0.00  0.00     0.165 C 
ENDROOT
BRANCH   1   2
ATOM      2  C   UNL d   1      58.515  -0.720  29.417  0.00  0.00     0.223 C 
ATOM      3  O   UNL d   1      58.270  -0.214  28.813  0.00  0.00    -0.284 OA
BRANCH   2   4
ATOM      4  C   UNL d   1      59.100  -1.316  29.267  0.00  0.00     0.080 A 
ATOM      5  C   UNL d   1      59.879  -1.093  29.188  0.00  0.00     0.202 A 
ATOM      6  C   UNL d   1      60.469  -1.674  29.040  0.00  0.00     0.084 A 
ATOM      7  O   UNL d   1      60.077  -0.290  29.256  0.00  0.00    -0.286 OA
ATOM      8  C   UNL d   1      60.237  -2.464  28.978  0.00  0.00     0.199 A 
ATOM      9  C   UNL d   1      59.442  -2.683  29.060  0.00  0.00     0.042 A 
ATOM     10  O   UNL d   1      60.826  -3.044  28.830  0.00  0.00    -0.286 OA
ATOM     11  C   UNL d   1      58.882  -2.110  29.203  0.00  0.00     0.010 A 
ENDBRANCH   2   4
ENDBRANCH   1   2
BRANCH   1  12
ATOM     12  O   UNL d   1      57.479  -0.279  30.284  0.00  0.00    -0.302 OA
BRANCH  12  13
ATOM     13  C   UNL d   1      57.187  -0.175  31.052  0.00  0.00     0.100 A 
ATOM     14  C   UNL d   1      57.174   0.577  31.390  0.00  0.00     0.025 A 
ATOM     15  C   UNL d   1      56.890   0.682  32.140  0.00  0.00     0.007 A 
ATOM     16  C   UNL d   1      56.605   0.030  32.586  0.00  0.00     0.063 A 
ATOM     17  C   UNL d   1      56.619  -0.723  32.249  0.00  0.00     0.007 A 
ATOM     18  C   UNL d   1      56.917  -0.819  31.466  0.00  0.00     0.025 A 
BRANCH  16  19
ATOM     19  C   UNL d   1      56.314   0.148  33.361  0.00  0.00     0.296 C 
ATOM     20  O   UNL d   1      56.826   0.309  33.987  0.00  0.00    -0.259 OA
BRANCH  19  21
ATOM     21  O   UNL d   1      55.488   0.099  33.483  0.00  0.00    -0.296 OA
ATOM     22  C   UNL d   1      55.155   0.291  34.213  0.00  0.00     0.185 C 
ENDBRANCH  19  21
ENDBRANCH  16  19
ENDBRANCH  12  13
ENDBRANCH   1  12
TORSDOF 6
ENDMDL
MODEL 2
REMARK VINA RESULT:      -3.6      1.405      1.721
REMARK  6 active torsions:
REMARK  status: ('A' for Active; 'I' for Inactive)
REMARK    1  A    between atoms: C_4  and  C_1 
REMARK    2  A    between atoms: C_3  and  C_7 
REMARK    3  A    between atoms: O_18  and  C_3 
REMARK    4  A    between atoms: C_9  and  C_4 
REMARK    5  A    between atoms: O_13  and  C_9 
REMARK    6  A    between atoms: C_15  and  O_13 
ROOT
ATOM      1  C   UNL d   1      57.823  -0.154  30.581  0.00  0.00     0.165 C 
ENDROOT
BRANCH   1   2
ATOM      2  C   UNL d   1      58.098  -0.381  29.847  0.00  0.00     0.223 C 
ATOM      3  O   UNL d   1      57.641  -0.863  29.358  0.00  0.00    -0.284 OA
BRANCH   2   4
ATOM      4  C   UNL d   1      58.863  -0.113  29.594  0.00  0.00     0.080 A 
ATOM      5  C   UNL d   1      58.913   0.392  28.957  0.00  0.00     0.202 A 
ATOM      6  C   UNL d   1      59.665   0.664  28.697  0.00  0.00     0.084 A 
ATOM      7  O   UNL d   1      58.216   0.629  28.575  0.00  0.00    -0.286 OA
ATOM      8  C   UNL d   1      60.338   0.408  29.101  0.00  0.00     0.199 A 
ATOM      9  C   UNL d   1      60.278  -0.105  29.748  0.00  0.00     0.042 A 
ATOM     10  O   UNL d   1      61.089   0.681  28.840  0.00  0.00    -0.286 OA
ATOM     11  C   UNL d   1      59.544  -0.361  29.989  0.00  0.00     0.010 A 
ENDBRANCH   2   4
ENDBRANCH   1   2
BRANCH   1  12
ATOM     12  O   UNL d   1      57.202  -0.557  30.937  0.00  0.00    -0.302 OA
BRANCH  12  13
ATOM     13  C   UNL d   1      56.921  -0.314  31.677  0.00  0.00     0.100 A 
ATOM     14  C   UNL d   1      56.447  -0.819  32.124  0.00  0.00     0.025 A 
ATOM     15  C   UNL d   1      56.171  -0.585  32.847  0.00  0.00     0.007 A 
ATOM     16  C   UNL d   1      56.360   0.174  33.154  0.00  0.00     0.063 A 
ATOM     17  C   UNL d   1      56.834   0.680  32.706  0.00  0.00     0.007 A 
ATOM     18  C   UNL d   1      57.116   0.424  31.953  0.00  0.00     0.025 A 
BRANCH  16  19
ATOM     19  C   UNL d   1      56.069   0.408  33.902  0.00  0.00     0.296 C 
ATOM     20  O   UNL d   1      56.547   0.368  34.574  0.00  0.00    -0.259 OA
BRANCH  19  21
ATOM     21  O   UNL d   1      55.281   0.682  33.950  0.00  0.00    -0.296 OA
ATOM     22  C   UNL d   1      54.872   0.673  34.666  0.00  0.00     0.185 C 
ENDBRANCH  19  21
ENDBRANCH  16  19
ENDBRANCH  12  13
ENDBRANCH   1  12
TORSDOF 6
ENDMDL
MODEL 3
REMARK VINA RESULT:      -3.1      8.370      9.877
REMARK  6 active torsions:
REMARK  status: ('A' for Active; 'I' for Inactive)
REMARK    1  A    between atoms: C_4  and  C_1 
REMARK    2  A    between atoms: C_3  and  C_7 
REMARK    3  A    between atoms: O_18  and  C_3 
REMARK    4  A    between atoms: C_9  and  C_4 
REMARK    5  A    between atoms: O_13  and  C_9 
REMARK    6  A    between atoms: C_15  and  O_13 
ROOT
ATOM      1  C   UNL d   1      59.018  -9.073  34.226  0.00  0.00     0.165 C 
ENDROOT
BRANCH   1   2
ATOM      2  C   UNL d   1      59.256  -9.065  35.006  0.00  0.00     0.223 C 
ATOM      3  O   UNL d   1      59.227  -9.752  35.462  0.00  0.00    -0.284 OA
BRANCH   2   4
ATOM      4  C   UNL d   1      59.537  -8.337  35.342  0.00  0.00     0.080 A 
ATOM      5  C   UNL d   1      60.287  -8.312  35.657  0.00  0.00     0.202 A 
ATOM      6  C   UNL d   1      60.576  -7.596  35.994  0.00  0.00     0.084 A 
ATOM      7  O   UNL d   1      60.755  -8.996  35.640  0.00  0.00    -0.286 OA
ATOM      8  C   UNL d   1      60.084  -6.934  35.994  0.00  0.00     0.199 A 
ATOM      9  C   UNL d   1      59.322  -6.969  35.671  0.00  0.00     0.042 A 
ATOM     10  O   UNL d   1      60.373  -6.220  36.330  0.00  0.00    -0.286 OA
ATOM     11  C   UNL d   1      59.055  -7.667  35.349  0.00  0.00     0.010 A 
ENDBRANCH   2   4
ENDBRANCH   1   2
BRANCH   1  12
ATOM     12  O   UNL d   1      58.906  -9.785  33.832  0.00  0.00    -0.302 OA
BRANCH  12  13
ATOM     13  C   UNL d   1      58.757  -9.787  33.017  0.00  0.00     0.100 A 
ATOM     14  C   UNL d   1      57.980  -9.761  32.740  0.00  0.00     0.025 A 
ATOM     15  C   UNL d   1      57.832  -9.764  31.945  0.00  0.00     0.007 A 
ATOM     16  C   UNL d   1      58.462  -9.792  31.390  0.00  0.00     0.063 A 
ATOM     17  C   UNL d   1      59.238  -9.818  31.668  0.00  0.00     0.007 A 
ATOM     18  C   UNL d   1      59.381  -9.815  32.499  0.00  0.00     0.025 A 
BRANCH  16  19
ATOM     19  C   UNL d   1      58.298  -9.794  30.570  0.00  0.00     0.296 C 
ATOM     20  O   UNL d   1      58.908  -9.815  30.016  0.00  0.00    -0.259 OA
BRANCH  19  21
ATOM     21  O   UNL d   1      57.498  -9.774  30.329  0.00  0.00    -0.296 OA
ATOM     22  C   UNL d   1      57.297  -9.683  29.534  0.00  0.00     0.185 C 
ENDBRANCH  19  21
ENDBRANCH  16  19
ENDBRANCH  12  13
ENDBRANCH   1  12
TORSDOF 6
ENDMDL
