MODEL 1
REMARK VINA RESULT:      -4.0      0.000      0.000
REMARK  6 active torsions:
REMARK  status: ('A' for Active; 'I' for Inactive)
REMARK    1  A    between atoms: C_3  and  N_4 
REMARK       I    between atoms: N_4  and  C_6 
REMARK    2  A    between atoms: C_9  and  C_5 
REMARK    3  A    between atoms: C_6  and  C_16 
REMARK    4  A    between atoms: S_12  and  C_7 
REMARK    5  A    between atoms: O_20  and  C_8 
REMARK    6  A    between atoms: C_16  and  S_12 
ROOT
ATOM      1  S   UNL d   1     -41.184-122.521 -50.934  0.00  0.00    -0.061 SA
ENDROOT
BRANCH   1   2
ATOM      2  C   UNL d   1     -41.336-122.456 -51.745  0.00  0.00     0.133 A 
ATOM      3  N   UNL d   1     -41.600-121.742 -52.065  0.00  0.00    -0.141 NA
ATOM      4  N   UNL d   1     -41.752-121.677 -52.876  0.00  0.00    -0.146 NA
ATOM      5  C   UNL d   1     -41.637-122.336 -53.373  0.00  0.00     0.121 A 
ATOM      6  C   UNL d   1     -41.373-123.050 -53.053  0.00  0.00     0.025 A 
ATOM      7  C   UNL d   1     -41.222-123.117 -52.247  0.00  0.00     0.029 A 
BRANCH   5   8
ATOM      8  C   UNL d   1     -41.792-122.265 -54.187  0.00  0.00     0.101 A 
ATOM      9  N   UNL d   1     -41.188-122.393 -54.735  0.00  0.00    -0.242 NA
ATOM     10  C   UNL d   1     -41.349-122.320 -55.525  0.00  0.00     0.099 A 
ATOM     11  C   UNL d   1     -42.114-122.118 -55.789  0.00  0.00     0.021 A 
ATOM     12  C   UNL d   1     -42.711-121.992 -55.240  0.00  0.00     0.003 A 
ATOM     13  C   UNL d   1     -42.558-122.063 -54.433  0.00  0.00     0.021 A 
ENDBRANCH   5   8
ENDBRANCH   1   2
BRANCH   1  14
ATOM     14  C   UNL d   1     -41.288-123.236 -50.549  0.00  0.00     0.099 C 
BRANCH  14  15
ATOM     15  C   UNL d   1     -41.467-123.242 -49.748  0.00  0.00     0.286 C 
ATOM     16  N   UNL d   1     -41.989-123.793 -49.442  0.00  0.00    -0.206 NA
ATOM     17  O   UNL d   1     -41.123-122.690 -49.239  0.00  0.00    -0.265 OA
BRANCH  16  18
ATOM     18  C   UNL d   1     -42.171-123.800 -48.629  0.00  0.00     0.107 A 
ATOM     19  C   UNL d   1     -42.956-123.811 -48.381  0.00  0.00     0.112 A 
ATOM     20  C   UNL d   1     -43.134-123.817 -47.585  0.00  0.00     0.026 A 
ATOM     21  C   UNL d   1     -42.527-123.812 -47.018  0.00  0.00     0.002 A 
ATOM     22  C   UNL d   1     -41.734-123.800 -47.262  0.00  0.00     0.002 A 
ATOM     23  C   UNL d   1     -41.561-123.794 -48.069  0.00  0.00     0.021 A 
ATOM     24  C   UNL d   1     -41.136-123.795 -46.706  0.00  0.00     0.000 C 
BRANCH  19  25
ATOM     25  O   UNL d   1     -43.576-123.817 -48.849  0.00  0.00    -0.327 OA
ATOM     26  C   UNL d   1     -44.341-123.747 -48.577  0.00  0.00     0.181 C 
ENDBRANCH  19  25
ENDBRANCH  16  18
ENDBRANCH  14  15
ENDBRANCH   1  14
TORSDOF 6
ENDMDL
