MODEL 1
REMARK VINA RESULT:       8.3      0.000      0.000
REMARK  3 active torsions:
REMARK  status: ('A' for Active; 'I' for Inactive)
REMARK    1  A    between atoms: C_9  and  N_1 
REMARK    2  A    between atoms: C_7  and  C_9 
REMARK    3  A    between atoms: C_8  and  C_7 
ROOT
ATOM      1  N   UNL d   1     -58.129 -98.756 -44.311  0.00  0.00    -0.190 N 
ATOM      2  N   UNL d   1     -58.439 -98.756 -45.076  0.00  0.00    -0.120 NA
ATOM      3  C   UNL d   1     -58.635 -98.756 -43.661  0.00  0.00     0.281 A 
ATOM      4  C   UNL d   1     -59.255 -98.755 -45.191  0.00  0.00     0.296 A 
ATOM      5  C   UNL d   1     -59.447 -98.755 -43.777  0.00  0.00     0.068 A 
ATOM      6  C   UNL d   1     -59.757 -98.755 -44.541  0.00  0.00     0.069 A 
ATOM      7  O   UNL d   1     -58.324 -98.756 -42.895  0.00  0.00    -0.265 OA
ATOM      8  O   UNL d   1     -59.565 -98.755 -45.956  0.00  0.00    -0.264 OA
ENDROOT
BRANCH   1   9
ATOM      9  C   UNL d   1     -57.309 -98.756 -44.198  0.00  0.00     0.110 C 
BRANCH   9  10
ATOM     10  C   UNL d   1     -56.821 -99.129 -44.753  0.00  0.00     0.091 C 
BRANCH  10  11
ATOM     11  C   UNL d   1     -56.053 -99.341 -44.539  0.00  0.00     0.213 C 
ATOM     12  O   UNL d   1     -55.856-100.133 -44.411  0.00  0.00    -0.644 OA
ATOM     13  O   UNL d   1     -55.477 -98.756 -44.452  0.00  0.00    -0.644 OA
ENDBRANCH  10  11
ENDBRANCH   9  10
ENDBRANCH   1   9
TORSDOF 3
ENDMDL
