MODEL 1
REMARK VINA RESULT:      -3.9      0.000      0.000
REMARK  6 active torsions:
REMARK  status: ('A' for Active; 'I' for Inactive)
REMARK    1  A    between atoms: N_3  and  C_1 
REMARK       I    between atoms: C_4  and  N_3 
REMARK       I    between atoms: N_10  and  C_4 
REMARK    2  A    between atoms: C_7  and  C_5 
REMARK    3  A    between atoms: C_9  and  C_7 
REMARK       I    between atoms: N_12  and  C_9 
REMARK    4  A    between atoms: C_13  and  N_10 
REMARK    5  A    between atoms: C_18  and  N_12 
REMARK    6  A    between atoms: C_17  and  C_18 
ROOT
ATOM      1  C   UNL d   1      33.054  18.969 -22.870  0.00  0.00     0.199 A 
ATOM      2  N   UNL d   1      32.662  18.246 -22.937  0.00  0.00    -0.220 NA
ATOM      3  C   UNL d   1      32.609  18.064 -23.736  0.00  0.00     0.095 A 
ATOM      4  S   UNL d   1      33.241  19.232 -23.611  0.00  0.00    -0.046 SA
ATOM      5  C   UNL d   1      32.969  18.677 -24.156  0.00  0.00     0.058 A 
ENDROOT
BRANCH   1   6
ATOM      6  N   UNL d   1      33.231  19.368 -22.156  0.00  0.00    -0.166 NA
ATOM      7  C   UNL d   1      32.936  20.135 -22.025  0.00  0.00     0.370 C 
ATOM      8  N   UNL d   1      33.104  20.538 -21.323  0.00  0.00    -0.191 NA
ATOM      9  O   UNL d   1      32.467  20.506 -22.601  0.00  0.00    -0.242 OA
BRANCH   8  10
ATOM     10  C   UNL d   1      32.818  21.292 -21.188  0.00  0.00     0.087 A 
ATOM     11  C   UNL d   1      33.164  21.945 -21.548  0.00  0.00     0.031 A 
ATOM     12  C   UNL d   1      32.884  22.694 -21.417  0.00  0.00     0.059 A 
ATOM     13 CL   UNL d   1      33.237  23.348 -21.782  0.00  0.00    -0.082 Cl
ATOM     14  C   UNL d   1      32.231  22.804 -20.908  0.00  0.00     0.011 A 
ATOM     15  C   UNL d   1      31.885  22.150 -20.549  0.00  0.00     0.002 A 
ATOM     16  C   UNL d   1      32.178  21.393 -20.688  0.00  0.00     0.019 A 
ENDBRANCH   8  10
ENDBRANCH   1   6
BRANCH   3  17
ATOM     17  C   UNL d   1      32.257  17.386 -24.060  0.00  0.00     0.082 C 
BRANCH  17  18
ATOM     18  C   UNL d   1      31.497  17.425 -24.412  0.00  0.00     0.281 C 
ATOM     19  N   UNL d   1      30.870  16.986 -24.108  0.00  0.00    -0.206 NA
ATOM     20  O   UNL d   1      31.392  17.912 -25.067  0.00  0.00    -0.265 OA
BRANCH  19  21
ATOM     21  C   UNL d   1      30.130  17.030 -24.458  0.00  0.00     0.104 C 
BRANCH  21  22
ATOM     22  C   UNL d   1      29.487  16.649 -24.105  0.00  0.00     0.038 A 
ATOM     23  C   UNL d   1      29.572  15.890 -23.789  0.00  0.00     0.101 A 
ATOM     24  N   UNL d   1      28.921  15.520 -23.438  0.00  0.00    -0.242 NA
ATOM     25  C   UNL d   1      28.186  15.906 -23.403  0.00  0.00     0.099 A 
ATOM     26  C   UNL d   1      28.116  16.656 -23.720  0.00  0.00     0.021 A 
ATOM     27  C   UNL d   1      28.767  17.027 -24.071  0.00  0.00     0.005 A 
ENDBRANCH  21  22
ENDBRANCH  19  21
ENDBRANCH  17  18
ENDBRANCH   3  17
TORSDOF 6
ENDMDL
