MODEL 1
REMARK VINA RESULT:      84.7      0.000      0.000
REMARK  5 active torsions:
REMARK  status: ('A' for Active; 'I' for Inactive)
REMARK    1  A    between atoms: C_5  and  S_1 
REMARK    2  A    between atoms: C_12  and  S_1 
REMARK    3  A    between atoms: C_2  and  N_6 
REMARK    4  A    between atoms: C_13  and  C_4 
REMARK    5  A    between atoms: C_7  and  C_5 
REMARK       I    between atoms: N_6  and  C_7 
ROOT
ATOM      1  N   UNL d   1      62.059  46.540  49.507  0.00  0.00    -0.182 NA
ATOM      2  C   UNL d   1      61.556  47.009  49.962  0.00  0.00     0.293 C 
ATOM      3  O   UNL d   1      60.965  46.677  50.422  0.00  0.00    -0.264 OA
ENDROOT
BRANCH   1   4
ATOM      4  C   UNL d   1      61.968  45.723  49.512  0.00  0.00     0.197 A 
ATOM      5  N   UNL d   1      62.265  45.205  50.095  0.00  0.00    -0.221 NA
ATOM      6  C   UNL d   1      62.046  44.427  49.885  0.00  0.00     0.090 A 
ATOM      7  C   UNL d   1      61.610  44.475  49.166  0.00  0.00     0.058 A 
ATOM      8  S   UNL d   1      61.568  45.276  48.946  0.00  0.00    -0.046 SA
BRANCH   6   9
ATOM      9  C   UNL d   1      62.224  43.739  50.305  0.00  0.00     0.018 A 
ATOM     10  C   UNL d   1      62.798  43.233  50.025  0.00  0.00     0.004 A 
ATOM     11  C   UNL d   1      62.981  42.549  50.433  0.00  0.00     0.030 A 
ATOM     12  C   UNL d   1      62.582  42.370  51.134  0.00  0.00     0.140 A 
ATOM     13  C   UNL d   1      61.999  42.882  51.421  0.00  0.00     0.030 A 
ATOM     14  F   UNL d   1      62.763  41.679  51.552  0.00  0.00    -0.204 F 
ATOM     15  C   UNL d   1      61.821  43.570  51.001  0.00  0.00     0.004 A 
ENDBRANCH   6   9
ENDBRANCH   1   4
BRANCH   2  16
ATOM     16  C   UNL d   1      61.649  47.833  49.957  0.00  0.00     0.161 C 
BRANCH  16  17
ATOM     17  S   UNL d   1      61.205  48.304  50.474  0.00  0.00     0.215 S 
ATOM     18  O   UNL d   1      60.712  48.532  49.835  0.00  0.00    -0.217 OA
ATOM     19  O   UNL d   1      61.695  48.075  51.102  0.00  0.00    -0.217 OA
BRANCH  17  20
ATOM     20  C   UNL d   1      60.762  48.774  50.992  0.00  0.00     0.088 A 
ATOM     21  C   UNL d   1      60.105  49.177  50.719  0.00  0.00     0.011 A 
ATOM     22  C   UNL d   1      59.661  49.648  51.236  0.00  0.00     0.001 A 
ATOM     23  C   UNL d   1      59.886  49.706  52.024  0.00  0.00     0.000 A 
ATOM     24  C   UNL d   1      60.543  49.303  52.297  0.00  0.00     0.001 A 
ATOM     25  C   UNL d   1      60.985  48.836  51.788  0.00  0.00     0.011 A 
ENDBRANCH  17  20
ENDBRANCH  16  17
ENDBRANCH   2  16
TORSDOF 5
ENDMDL
