MODEL 1
REMARK VINA RESULT:      -4.4      0.000      0.000
REMARK  8 active torsions:
REMARK  status: ('A' for Active; 'I' for Inactive)
REMARK    1  A    between atoms: N_5  and  C_1 
REMARK    2  A    between atoms: N_7  and  C_1 
REMARK    3  A    between atoms: N_2  and  C_3 
REMARK    4  A    between atoms: C_3  and  C_4 
REMARK    5  A    between atoms: C_6  and  C_3 
REMARK    6  A    between atoms: C_4  and  N_5 
REMARK    7  A    between atoms: C_8  and  N_7 
REMARK    8  A    between atoms: C_25  and  N_10 
ROOT
ATOM      1  C   UNL d   1     -48.458  13.134  22.627  0.00  0.00     0.088 C 
ENDROOT
BRANCH   1   2
ATOM      2  N   UNL d   1     -48.838  13.827  22.872  0.00  0.00    -0.300 N 
ATOM      3  C   UNL d   1     -48.625  14.551  22.542  0.00  0.00     0.100 A 
ATOM      4  C   UNL d   1     -49.001  15.238  22.784  0.00  0.00     0.100 A 
ATOM      5  N   UNL d   1     -49.596  15.214  23.359  0.00  0.00    -0.300 N 
ATOM      6  C   UNL d   1     -49.809  14.484  23.690  0.00  0.00     0.100 A 
ATOM      7  C   UNL d   1     -49.434  13.787  23.451  0.00  0.00     0.100 A 
BRANCH   5   8
ATOM      8  C   UNL d   1     -49.970  15.903  23.599  0.00  0.00     0.080 C 
ATOM      9  C   UNL d   1     -50.797  15.922  23.654  0.00  0.00     0.021 C 
ENDBRANCH   5   8
ENDBRANCH   1   2
BRANCH   1  10
ATOM     10  C   UNL d   1     -47.725  12.930  22.940  0.00  0.00     0.100 C 
ATOM     11  C   UNL d   1     -47.681  12.571  23.672  0.00  0.00     0.022 C 
BRANCH  10  12
ATOM     12  N   UNL d   1     -47.044  13.092  22.511  0.00  0.00    -0.216 NA
BRANCH  12  13
ATOM     13  C   UNL d   1     -46.302  13.020  22.873  0.00  0.00     0.221 C 
ATOM     14  S   UNL d   1     -45.990  13.658  23.284  0.00  0.00    -0.037 SA
BRANCH  13  15
ATOM     15  N   UNL d   1     -45.887  12.314  22.818  0.00  0.00    -0.217 NA
BRANCH  15  16
ATOM     16  C   UNL d   1     -45.110  12.306  22.541  0.00  0.00     0.084 A 
ATOM     17  C   UNL d   1     -44.599  11.710  22.772  0.00  0.00     0.018 A 
ATOM     18  C   UNL d   1     -43.829  11.697  22.501  0.00  0.00     0.002 A 
ATOM     19  C   UNL d   1     -44.872  11.117  23.286  0.00  0.00     0.002 C 
ATOM     20  C   UNL d   1     -43.561  12.293  21.987  0.00  0.00     0.000 A 
ATOM     21  C   UNL d   1     -44.081  12.901  21.750  0.00  0.00     0.002 A 
ATOM     22  C   UNL d   1     -44.852  12.904  22.029  0.00  0.00     0.019 A 
ATOM     23  C   UNL d   1     -43.820  13.493  21.242  0.00  0.00     0.000 C 
ENDBRANCH  15  16
ENDBRANCH  13  15
ENDBRANCH  12  13
ENDBRANCH  10  12
ENDBRANCH   1  10
BRANCH   1  24
ATOM     24  C   UNL d   1     -48.817  12.649  22.068  0.00  0.00     0.047 A 
ATOM     25  S   UNL d   1     -49.275  11.977  22.220  0.00  0.00    -0.085 SA
ATOM     26  C   UNL d   1     -49.521  11.665  21.501  0.00  0.00     0.035 A 
ATOM     27  C   UNL d   1     -49.221  12.135  20.892  0.00  0.00     0.007 A 
ATOM     28  C   UNL d   1     -48.781  12.749  21.241  0.00  0.00     0.009 A 
ENDBRANCH   1  24
TORSDOF 8
ENDMDL
MODEL 2
REMARK VINA RESULT:      -3.4      0.916      1.624
REMARK  8 active torsions:
REMARK  status: ('A' for Active; 'I' for Inactive)
REMARK    1  A    between atoms: N_5  and  C_1 
REMARK    2  A    between atoms: N_7  and  C_1 
REMARK    3  A    between atoms: N_2  and  C_3 
REMARK    4  A    between atoms: C_3  and  C_4 
REMARK    5  A    between atoms: C_6  and  C_3 
REMARK    6  A    between atoms: C_4  and  N_5 
REMARK    7  A    between atoms: C_8  and  N_7 
REMARK    8  A    between atoms: C_25  and  N_10 
ROOT
ATOM      1  C   UNL d   1     -47.999  13.127  22.783  0.00  0.00     0.088 C 
ENDROOT
BRANCH   1   2
ATOM      2  N   UNL d   1     -48.635  13.631  22.618  0.00  0.00    -0.300 N 
ATOM      3  C   UNL d   1     -48.945  14.108  23.214  0.00  0.00     0.100 A 
ATOM      4  C   UNL d   1     -49.575  14.608  23.051  0.00  0.00     0.100 A 
ATOM      5  N   UNL d   1     -49.904  14.640  22.293  0.00  0.00    -0.300 N 
ATOM      6  C   UNL d   1     -49.590  14.159  21.695  0.00  0.00     0.100 A 
ATOM      7  C   UNL d   1     -48.956  13.653  21.851  0.00  0.00     0.100 A 
BRANCH   5   8
ATOM      8  C   UNL d   1     -50.535  15.141  22.135  0.00  0.00     0.080 C 
ATOM      9  C   UNL d   1     -51.034  15.377  22.751  0.00  0.00     0.021 C 
ENDBRANCH   5   8
ENDBRANCH   1   2
BRANCH   1  10
ATOM     10  C   UNL d   1     -47.229  13.415  22.777  0.00  0.00     0.100 C 
ATOM     11  C   UNL d   1     -47.054  14.113  23.165  0.00  0.00     0.022 C 
BRANCH  10  12
ATOM     12  N   UNL d   1     -46.644  12.998  22.381  0.00  0.00    -0.216 NA
BRANCH  12  13
ATOM     13  C   UNL d   1     -45.871  13.295  22.355  0.00  0.00     0.221 C 
ATOM     14  S   UNL d   1     -45.640  13.869  22.894  0.00  0.00    -0.037 SA
BRANCH  13  15
ATOM     15  N   UNL d   1     -45.344  13.014  21.792  0.00  0.00    -0.217 NA
BRANCH  15  16
ATOM     16  C   UNL d   1     -44.698  12.554  22.016  0.00  0.00     0.084 A 
ATOM     17  C   UNL d   1     -43.957  12.710  21.707  0.00  0.00     0.018 A 
ATOM     18  C   UNL d   1     -43.312  12.258  21.925  0.00  0.00     0.002 A 
ATOM     19  C   UNL d   1     -43.865  13.335  21.167  0.00  0.00     0.002 C 
ATOM     20  C   UNL d   1     -43.410  11.634  22.465  0.00  0.00     0.000 A 
ATOM     21  C   UNL d   1     -44.165  11.473  22.782  0.00  0.00     0.002 A 
ATOM     22  C   UNL d   1     -44.804  11.934  22.555  0.00  0.00     0.019 A 
ATOM     23  C   UNL d   1     -44.266  10.857  23.317  0.00  0.00     0.000 C 
ENDBRANCH  15  16
ENDBRANCH  13  15
ENDBRANCH  12  13
ENDBRANCH  10  12
ENDBRANCH   1  10
BRANCH   1  24
ATOM     24  C   UNL d   1     -48.142  12.335  22.952  0.00  0.00     0.047 A 
ATOM     25  S   UNL d   1     -48.398  11.756  22.420  0.00  0.00    -0.085 SA
ATOM     26  C   UNL d   1     -48.467  11.045  22.827  0.00  0.00     0.035 A 
ATOM     27  C   UNL d   1     -48.255  11.170  23.615  0.00  0.00     0.007 A 
ATOM     28  C   UNL d   1     -48.052  11.972  23.698  0.00  0.00     0.009 A 
ENDBRANCH   1  24
TORSDOF 8
ENDMDL
MODEL 3
REMARK VINA RESULT:      -2.7      1.283      5.169
REMARK  8 active torsions:
REMARK  status: ('A' for Active; 'I' for Inactive)
REMARK    1  A    between atoms: N_5  and  C_1 
REMARK    2  A    between atoms: N_7  and  C_1 
REMARK    3  A    between atoms: N_2  and  C_3 
REMARK    4  A    between atoms: C_3  and  C_4 
REMARK    5  A    between atoms: C_6  and  C_3 
REMARK    6  A    between atoms: C_4  and  N_5 
REMARK    7  A    between atoms: C_8  and  N_7 
REMARK    8  A    between atoms: C_25  and  N_10 
ROOT
ATOM      1  C   UNL d   1     -46.487  12.573  23.085  0.00  0.00     0.088 C 
ENDROOT
BRANCH   1   2
ATOM      2  N   UNL d   1     -45.865  12.028  23.113  0.00  0.00    -0.300 N 
ATOM      3  C   UNL d   1     -45.234  12.098  22.587  0.00  0.00     0.100 A 
ATOM      4  C   UNL d   1     -44.617  11.559  22.615  0.00  0.00     0.100 A 
ATOM      5  N   UNL d   1     -44.619  10.942  23.166  0.00  0.00    -0.300 N 
ATOM      6  C   UNL d   1     -45.255  10.873  23.694  0.00  0.00     0.100 A 
ATOM      7  C   UNL d   1     -45.881  11.413  23.673  0.00  0.00     0.100 A 
BRANCH   5   8
ATOM      8  C   UNL d   1     -44.000  10.404  23.190  0.00  0.00     0.080 C 
ATOM      9  C   UNL d   1     -44.111   9.668  23.554  0.00  0.00     0.021 C 
ENDBRANCH   5   8
ENDBRANCH   1   2
BRANCH   1  10
ATOM     10  C   UNL d   1     -47.264  12.321  23.183  0.00  0.00     0.100 C 
ATOM     11  C   UNL d   1     -47.428  11.699  23.687  0.00  0.00     0.022 C 
BRANCH  10  12
ATOM     12  N   UNL d   1     -47.866  12.698  22.772  0.00  0.00    -0.216 NA
BRANCH  12  13
ATOM     13  C   UNL d   1     -48.643  12.418  22.832  0.00  0.00     0.221 C 
ATOM     14  S   UNL d   1     -48.886  12.040  23.519  0.00  0.00    -0.037 SA
BRANCH  13  15
ATOM     15  N   UNL d   1     -49.164  12.520  22.205  0.00  0.00    -0.217 NA
BRANCH  15  16
ATOM     16  C   UNL d   1     -49.778  13.069  22.256  0.00  0.00     0.084 A 
ATOM     17  C   UNL d   1     -50.331  13.120  21.655  0.00  0.00     0.018 A 
ATOM     18  C   UNL d   1     -50.941  13.662  21.699  0.00  0.00     0.002 A 
ATOM     19  C   UNL d   1     -50.267  12.616  20.998  0.00  0.00     0.002 C 
ATOM     20  C   UNL d   1     -51.001  14.164  22.359  0.00  0.00     0.000 A 
ATOM     21  C   UNL d   1     -50.437  14.112  22.973  0.00  0.00     0.002 A 
ATOM     22  C   UNL d   1     -49.829  13.565  22.917  0.00  0.00     0.019 A 
ATOM     23  C   UNL d   1     -50.493  14.607  23.627  0.00  0.00     0.000 C 
ENDBRANCH  15  16
ENDBRANCH  13  15
ENDBRANCH  12  13
ENDBRANCH  10  12
ENDBRANCH   1  10
BRANCH   1  24
ATOM     24  C   UNL d   1     -46.325  13.370  22.958  0.00  0.00     0.047 A 
ATOM     25  S   UNL d   1     -46.158  13.729  22.233  0.00  0.00    -0.085 SA
ATOM     26  C   UNL d   1     -46.032  14.531  22.366  0.00  0.00     0.035 A 
ATOM     27  C   UNL d   1     -46.119  14.682  23.173  0.00  0.00     0.007 A 
ATOM     28  C   UNL d   1     -46.302  13.961  23.547  0.00  0.00     0.009 A 
ENDBRANCH   1  24
TORSDOF 8
ENDMDL
MODEL 4
REMARK VINA RESULT:      -2.6      1.611      4.967
REMARK  8 active torsions:
REMARK  status: ('A' for Active; 'I' for Inactive)
REMARK    1  A    between atoms: N_5  and  C_1 
REMARK    2  A    between atoms: N_7  and  C_1 
REMARK    3  A    between atoms: N_2  and  C_3 
REMARK    4  A    between atoms: C_3  and  C_4 
REMARK    5  A    between atoms: C_6  and  C_3 
REMARK    6  A    between atoms: C_4  and  N_5 
REMARK    7  A    between atoms: C_8  and  N_7 
REMARK    8  A    between atoms: C_25  and  N_10 
ROOT
ATOM      1  C   UNL d   1     -46.355  13.128  22.820  0.00  0.00     0.088 C 
ENDROOT
BRANCH   1   2
ATOM      2  N   UNL d   1     -45.625  12.912  22.494  0.00  0.00    -0.300 N 
ATOM      3  C   UNL d   1     -45.100  12.453  22.932  0.00  0.00     0.100 A 
ATOM      4  C   UNL d   1     -44.377  12.238  22.610  0.00  0.00     0.100 A 
ATOM      5  N   UNL d   1     -44.166  12.478  21.847  0.00  0.00    -0.300 N 
ATOM      6  C   UNL d   1     -44.697  12.941  21.407  0.00  0.00     0.100 A 
ATOM      7  C   UNL d   1     -45.427  13.161  21.725  0.00  0.00     0.100 A 
BRANCH   5   8
ATOM      8  C   UNL d   1     -43.442  12.262  21.528  0.00  0.00     0.080 C 
ATOM      9  C   UNL d   1     -42.814  12.802  21.535  0.00  0.00     0.021 C 
ENDBRANCH   5   8
ENDBRANCH   1   2
BRANCH   1  10
ATOM     10  C   UNL d   1     -46.862  12.554  23.118  0.00  0.00     0.100 C 
ATOM     11  C   UNL d   1     -46.572  11.975  23.616  0.00  0.00     0.022 C 
BRANCH  10  12
ATOM     12  N   UNL d   1     -47.656  12.569  22.911  0.00  0.00    -0.216 NA
BRANCH  12  13
ATOM     13  C   UNL d   1     -48.099  11.869  22.922  0.00  0.00     0.221 C 
ATOM     14  S   UNL d   1     -48.044  11.366  23.569  0.00  0.00    -0.037 SA
BRANCH  13  15
ATOM     15  N   UNL d   1     -48.587  11.684  22.289  0.00  0.00    -0.217 NA
BRANCH  15  16
ATOM     16  C   UNL d   1     -49.372  11.939  22.276  0.00  0.00     0.084 A 
ATOM     17  C   UNL d   1     -49.709  12.190  21.574  0.00  0.00     0.018 A 
ATOM     18  C   UNL d   1     -50.485  12.443  21.555  0.00  0.00     0.002 A 
ATOM     19  C   UNL d   1     -49.254  12.184  20.879  0.00  0.00     0.002 C 
ATOM     20  C   UNL d   1     -50.936  12.447  22.253  0.00  0.00     0.000 A 
ATOM     21  C   UNL d   1     -50.593  12.191  22.970  0.00  0.00     0.002 A 
ATOM     22  C   UNL d   1     -49.813  11.939  22.977  0.00  0.00     0.019 A 
ATOM     23  C   UNL d   1     -51.035  12.193  23.663  0.00  0.00     0.000 C 
ENDBRANCH  15  16
ENDBRANCH  13  15
ENDBRANCH  12  13
ENDBRANCH  10  12
ENDBRANCH   1  10
BRANCH   1  24
ATOM     24  C   UNL d   1     -46.571  13.921  22.843  0.00  0.00     0.047 A 
ATOM     25  S   UNL d   1     -46.559  14.416  23.506  0.00  0.00    -0.085 SA
ATOM     26  C   UNL d   1     -46.819  15.161  23.276  0.00  0.00     0.035 A 
ATOM     27  C   UNL d   1     -46.995  15.142  22.469  0.00  0.00     0.007 A 
ATOM     28  C   UNL d   1     -46.842  14.372  22.195  0.00  0.00     0.009 A 
ENDBRANCH   1  24
TORSDOF 8
ENDMDL
MODEL 5
REMARK VINA RESULT:      -2.2      1.150      2.108
REMARK  8 active torsions:
REMARK  status: ('A' for Active; 'I' for Inactive)
REMARK    1  A    between atoms: N_5  and  C_1 
REMARK    2  A    between atoms: N_7  and  C_1 
REMARK    3  A    between atoms: N_2  and  C_3 
REMARK    4  A    between atoms: C_3  and  C_4 
REMARK    5  A    between atoms: C_6  and  C_3 
REMARK    6  A    between atoms: C_4  and  N_5 
REMARK    7  A    between atoms: C_8  and  N_7 
REMARK    8  A    between atoms: C_25  and  N_10 
ROOT
ATOM      1  C   UNL d   1     -48.107  13.881  22.763  0.00  0.00     0.088 C 
ENDROOT
BRANCH   1   2
ATOM      2  N   UNL d   1     -48.639  13.259  22.884  0.00  0.00    -0.300 N 
ATOM      3  C   UNL d   1     -48.721  12.672  22.313  0.00  0.00     0.100 A 
ATOM      4  C   UNL d   1     -49.248  12.055  22.432  0.00  0.00     0.100 A 
ATOM      5  N   UNL d   1     -49.702  12.015  23.123  0.00  0.00    -0.300 N 
ATOM      6  C   UNL d   1     -49.618  12.607  23.697  0.00  0.00     0.100 A 
ATOM      7  C   UNL d   1     -49.088  13.232  23.584  0.00  0.00     0.100 A 
BRANCH   5   8
ATOM      8  C   UNL d   1     -50.229  11.396  23.239  0.00  0.00     0.080 C 
ATOM      9  C   UNL d   1     -50.987  11.554  23.532  0.00  0.00     0.021 C 
ENDBRANCH   5   8
ENDBRANCH   1   2
BRANCH   1  10
ATOM     10  C   UNL d   1     -47.314  13.793  22.963  0.00  0.00     0.100 C 
ATOM     11  C   UNL d   1     -47.032  14.120  23.656  0.00  0.00     0.022 C 
BRANCH  10  12
ATOM     12  N   UNL d   1     -46.815  13.377  22.462  0.00  0.00    -0.216 NA
BRANCH  12  13
ATOM     13  C   UNL d   1     -46.049  13.182  22.711  0.00  0.00     0.221 C 
ATOM     14  S   UNL d   1     -45.586  13.752  23.078  0.00  0.00    -0.037 SA
BRANCH  13  15
ATOM     15  N   UNL d   1     -45.761  12.423  22.589  0.00  0.00    -0.217 NA
BRANCH  15  16
ATOM     16  C   UNL d   1     -44.969  12.304  22.391  0.00  0.00     0.084 A 
ATOM     17  C   UNL d   1     -44.541  11.711  22.758  0.00  0.00     0.018 A 
ATOM     18  C   UNL d   1     -43.756  11.587  22.567  0.00  0.00     0.002 A 
ATOM     19  C   UNL d   1     -44.912  11.234  23.329  0.00  0.00     0.002 C 
ATOM     20  C   UNL d   1     -43.390  12.066  21.995  0.00  0.00     0.000 A 
ATOM     21  C   UNL d   1     -43.826  12.671  21.620  0.00  0.00     0.002 A 
ATOM     22  C   UNL d   1     -44.612  12.786  21.820  0.00  0.00     0.019 A 
ATOM     23  C   UNL d   1     -43.467  13.148  21.054  0.00  0.00     0.000 C 
ENDBRANCH  15  16
ENDBRANCH  13  15
ENDBRANCH  12  13
ENDBRANCH  10  12
ENDBRANCH   1  10
BRANCH   1  24
ATOM     24  C   UNL d   1     -48.375  14.589  22.441  0.00  0.00     0.047 A 
ATOM     25  S   UNL d   1     -48.756  15.201  22.845  0.00  0.00    -0.085 SA
ATOM     26  C   UNL d   1     -48.925  15.799  22.307  0.00  0.00     0.035 A 
ATOM     27  C   UNL d   1     -48.652  15.570  21.562  0.00  0.00     0.007 A 
ATOM     28  C   UNL d   1     -48.309  14.816  21.641  0.00  0.00     0.009 A 
ENDBRANCH   1  24
TORSDOF 8
ENDMDL
