MODEL 1
REMARK VINA RESULT:      -7.9      0.000      0.000
REMARK  3 active torsions:
REMARK  status: ('A' for Active; 'I' for Inactive)
REMARK    1  A    between atoms: C_4  and  C_1 
REMARK       I    between atoms: N_7  and  C_4 
REMARK    2  A    between atoms: C_14  and  N_7 
REMARK    3  A    between atoms: C_9  and  C_10 
ROOT
ATOM      1  C   UNL d   1     -48.868  14.279  22.613  0.00  0.00     0.281 C 
ATOM      2  N   UNL d   1     -48.339  14.156  23.220  0.00  0.00    -0.208 NA
ATOM      3  O   UNL d   1     -48.668  14.079  21.837  0.00  0.00    -0.265 OA
ENDROOT
BRANCH   2   4
ATOM      4  C   UNL d   1     -47.604  13.833  23.058  0.00  0.00     0.085 A 
ATOM      5  C   UNL d   1     -47.499  13.001  23.146  0.00  0.00     0.019 A 
ATOM      6  C   UNL d   1     -46.772  12.660  22.988  0.00  0.00     0.005 A 
ATOM      7  C   UNL d   1     -46.139  13.122  22.743  0.00  0.00     0.039 A 
ATOM      8  C   UNL d   1     -46.249  13.943  22.658  0.00  0.00     0.005 A 
ATOM      9  C   UNL d   1     -46.975  14.287  22.815  0.00  0.00     0.019 A 
BRANCH   7  10
ATOM     10  C   UNL d   1     -45.387  12.771  22.580  0.00  0.00     0.196 C 
ATOM     11  O   UNL d   1     -45.086  12.190  23.055  0.00  0.00    -0.287 OA
ATOM     12  C   UNL d   1     -44.941  13.027  21.913  0.00  0.00     0.045 C 
ENDBRANCH   7  10
ENDBRANCH   2   4
BRANCH   1  13
ATOM     13  C   UNL d   1     -49.620  14.606  22.750  0.00  0.00     0.076 A 
ATOM     14  C   UNL d   1     -50.315  14.411  22.390  0.00  0.00     0.092 A 
ATOM     15  S   UNL d   1     -50.942  14.878  22.695  0.00  0.00    -0.064 SA
ATOM     16 CL   UNL d   1     -50.399  13.813  21.785  0.00  0.00    -0.075 Cl
ATOM     17  C   UNL d   1     -50.633  15.352  23.234  0.00  0.00     0.088 A 
ATOM     18  C   UNL d   1     -49.808  15.202  23.287  0.00  0.00     0.024 A 
ATOM     19 CL   UNL d   1     -51.064  15.922  23.687  0.00  0.00    -0.075 Cl
ENDBRANCH   1  13
TORSDOF 3
ENDMDL
MODEL 2
REMARK VINA RESULT:      -7.1      2.370      4.488
REMARK  3 active torsions:
REMARK  status: ('A' for Active; 'I' for Inactive)
REMARK    1  A    between atoms: C_4  and  C_1 
REMARK       I    between atoms: N_7  and  C_4 
REMARK    2  A    between atoms: C_14  and  N_7 
REMARK    3  A    between atoms: C_9  and  C_10 
ROOT
ATOM      1  C   UNL d   1     -47.332  13.512  22.564  0.00  0.00     0.281 C 
ATOM      2  N   UNL d   1     -47.498  14.207  22.956  0.00  0.00    -0.208 NA
ATOM      3  O   UNL d   1     -47.933  13.092  22.183  0.00  0.00    -0.265 OA
ENDROOT
BRANCH   2   4
ATOM      4  C   UNL d   1     -48.266  14.489  22.971  0.00  0.00     0.085 A 
ATOM      5  C   UNL d   1     -48.454  15.177  22.521  0.00  0.00     0.019 A 
ATOM      6  C   UNL d   1     -49.217  15.474  22.524  0.00  0.00     0.005 A 
ATOM      7  C   UNL d   1     -49.806  15.107  22.963  0.00  0.00     0.039 A 
ATOM      8  C   UNL d   1     -49.614  14.429  23.404  0.00  0.00     0.005 A 
ATOM      9  C   UNL d   1     -48.852  14.129  23.404  0.00  0.00     0.019 A 
BRANCH   7  10
ATOM     10  C   UNL d   1     -50.594  15.413  22.966  0.00  0.00     0.196 C 
ATOM     11  O   UNL d   1     -51.064  15.362  22.310  0.00  0.00    -0.287 OA
ATOM     12  C   UNL d   1     -50.898  15.778  23.661  0.00  0.00     0.045 C 
ENDBRANCH   7  10
ENDBRANCH   2   4
BRANCH   1  13
ATOM     13  C   UNL d   1     -46.560  13.202  22.534  0.00  0.00     0.076 A 
ATOM     14  C   UNL d   1     -46.265  12.576  22.946  0.00  0.00     0.092 A 
ATOM     15  S   UNL d   1     -45.458  12.451  22.748  0.00  0.00    -0.064 SA
ATOM     16 CL   UNL d   1     -46.710  12.106  23.504  0.00  0.00    -0.075 Cl
ATOM     17  C   UNL d   1     -45.266  12.996  22.222  0.00  0.00     0.088 A 
ATOM     18  C   UNL d   1     -45.937  13.478  22.071  0.00  0.00     0.024 A 
ATOM     19 CL   UNL d   1     -44.503  13.081  21.866  0.00  0.00    -0.075 Cl
ENDBRANCH   1  13
TORSDOF 3
ENDMDL
MODEL 3
REMARK VINA RESULT:      -6.1      9.160      9.798
REMARK  3 active torsions:
REMARK  status: ('A' for Active; 'I' for Inactive)
REMARK    1  A    between atoms: C_4  and  C_1 
REMARK       I    between atoms: N_7  and  C_4 
REMARK    2  A    between atoms: C_14  and  N_7 
REMARK    3  A    between atoms: C_9  and  C_10 
ROOT
ATOM      1  C   UNL d   1     -39.299  14.421  20.177  0.00  0.00     0.281 C 
ATOM      2  N   UNL d   1     -40.037  14.258  19.874  0.00  0.00    -0.208 NA
ATOM      3  O   UNL d   1     -38.775  14.909  19.763  0.00  0.00    -0.265 OA
ENDROOT
BRANCH   2   4
ATOM      4  C   UNL d   1     -40.260  14.580  19.155  0.00  0.00     0.085 A 
ATOM      5  C   UNL d   1     -40.271  14.083  18.474  0.00  0.00     0.019 A 
ATOM      6  C   UNL d   1     -40.492  14.387  17.747  0.00  0.00     0.005 A 
ATOM      7  C   UNL d   1     -40.705  15.177  17.673  0.00  0.00     0.039 A 
ATOM      8  C   UNL d   1     -40.692  15.662  18.349  0.00  0.00     0.005 A 
ATOM      9  C   UNL d   1     -40.472  15.361  19.077  0.00  0.00     0.019 A 
BRANCH   7  10
ATOM     10  C   UNL d   1     -40.933  15.492  16.922  0.00  0.00     0.196 C 
ATOM     11  O   UNL d   1     -41.682  15.388  16.636  0.00  0.00    -0.287 OA
ATOM     12  C   UNL d   1     -40.374  15.922  16.462  0.00  0.00     0.045 C 
ENDBRANCH   7  10
ENDBRANCH   2   4
BRANCH   1  13
ATOM     13  C   UNL d   1     -39.046  14.108  20.905  0.00  0.00     0.076 A 
ATOM     14  C   UNL d   1     -38.442  13.590  21.035  0.00  0.00     0.092 A 
ATOM     15  S   UNL d   1     -38.377  13.418  21.854  0.00  0.00    -0.064 SA
ATOM     16 CL   UNL d   1     -37.940  13.265  20.425  0.00  0.00    -0.075 Cl
ATOM     17  C   UNL d   1     -38.936  13.826  22.217  0.00  0.00     0.088 A 
ATOM     18  C   UNL d   1     -39.368  14.265  21.646  0.00  0.00     0.024 A 
ATOM     19 CL   UNL d   1     -39.077  13.821  23.052  0.00  0.00    -0.075 Cl
ENDBRANCH   1  13
TORSDOF 3
ENDMDL
MODEL 4
REMARK VINA RESULT:      -5.8      8.799      9.393
REMARK  3 active torsions:
REMARK  status: ('A' for Active; 'I' for Inactive)
REMARK    1  A    between atoms: C_4  and  C_1 
REMARK       I    between atoms: N_7  and  C_4 
REMARK    2  A    between atoms: C_14  and  N_7 
REMARK    3  A    between atoms: C_9  and  C_10 
ROOT
ATOM      1  C   UNL d   1     -40.096  14.526  18.736  0.00  0.00     0.281 C 
ATOM      2  N   UNL d   1     -39.906  15.019  19.355  0.00  0.00    -0.208 NA
ATOM      3  O   UNL d   1     -40.041  13.706  18.821  0.00  0.00    -0.265 OA
ENDROOT
BRANCH   2   4
ATOM      4  C   UNL d   1     -39.659  14.699  20.067  0.00  0.00     0.085 A 
ATOM      5  C   UNL d   1     -38.832  14.647  20.223  0.00  0.00     0.019 A 
ATOM      6  C   UNL d   1     -38.567  14.330  20.929  0.00  0.00     0.005 A 
ATOM      7  C   UNL d   1     -39.101  14.060  21.492  0.00  0.00     0.039 A 
ATOM      8  C   UNL d   1     -39.916  14.114  21.331  0.00  0.00     0.005 A 
ATOM      9  C   UNL d   1     -40.184  14.431  20.626  0.00  0.00     0.019 A 
BRANCH   7  10
ATOM     10  C   UNL d   1     -38.827  13.732  22.221  0.00  0.00     0.196 C 
ATOM     11  O   UNL d   1     -38.532  12.980  22.257  0.00  0.00    -0.287 OA
ATOM     12  C   UNL d   1     -38.861  14.193  22.926  0.00  0.00     0.045 C 
ENDBRANCH   7  10
ENDBRANCH   2   4
BRANCH   1  13
ATOM     13  C   UNL d   1     -40.350  14.824  18.002  0.00  0.00     0.076 A 
ATOM     14  C   UNL d   1     -40.002  14.722  17.282  0.00  0.00     0.092 A 
ATOM     15  S   UNL d   1     -40.442  15.119  16.687  0.00  0.00    -0.064 SA
ATOM     16 CL   UNL d   1     -39.288  14.273  17.145  0.00  0.00    -0.075 Cl
ATOM     17  C   UNL d   1     -41.050  15.459  17.041  0.00  0.00     0.088 A 
ATOM     18  C   UNL d   1     -41.015  15.290  17.863  0.00  0.00     0.024 A 
ATOM     19 CL   UNL d   1     -41.643  15.922  16.653  0.00  0.00    -0.075 Cl
ENDBRANCH   1  13
TORSDOF 3
ENDMDL
MODEL 5
REMARK VINA RESULT:      -5.4      8.312     10.196
REMARK  3 active torsions:
REMARK  status: ('A' for Active; 'I' for Inactive)
REMARK    1  A    between atoms: C_4  and  C_1 
REMARK       I    between atoms: N_7  and  C_4 
REMARK    2  A    between atoms: C_14  and  N_7 
REMARK    3  A    between atoms: C_9  and  C_10 
ROOT
ATOM      1  C   UNL d   1     -39.630  14.533  18.956  0.00  0.00     0.281 C 
ATOM      2  N   UNL d   1     -39.781  13.995  18.364  0.00  0.00    -0.208 NA
ATOM      3  O   UNL d   1     -39.085  15.142  18.840  0.00  0.00    -0.265 OA
ENDROOT
BRANCH   2   4
ATOM      4  C   UNL d   1     -39.388  14.059  17.649  0.00  0.00     0.085 A 
ATOM      5  C   UNL d   1     -38.829  13.464  17.437  0.00  0.00     0.019 A 
ATOM      6  C   UNL d   1     -38.426  13.513  16.726  0.00  0.00     0.005 A 
ATOM      7  C   UNL d   1     -38.561  14.139  16.212  0.00  0.00     0.039 A 
ATOM      8  C   UNL d   1     -39.114  14.723  16.427  0.00  0.00     0.005 A 
ATOM      9  C   UNL d   1     -39.518  14.678  17.137  0.00  0.00     0.019 A 
BRANCH   7  10
ATOM     10  C   UNL d   1     -38.146  14.190  15.478  0.00  0.00     0.196 C 
ATOM     11  O   UNL d   1     -37.941  14.906  15.162  0.00  0.00    -0.287 OA
ATOM     12  C   UNL d   1     -37.940  13.486  15.064  0.00  0.00     0.045 C 
ENDBRANCH   7  10
ENDBRANCH   2   4
BRANCH   1  13
ATOM     13  C   UNL d   1     -40.016  14.490  19.692  0.00  0.00     0.076 A 
ATOM     14  C   UNL d   1     -39.679  14.476  20.424  0.00  0.00     0.092 A 
ATOM     15  S   UNL d   1     -40.272  14.430  21.017  0.00  0.00    -0.064 SA
ATOM     16 CL   UNL d   1     -38.838  14.504  20.574  0.00  0.00    -0.075 Cl
ATOM     17  C   UNL d   1     -40.961  14.417  20.650  0.00  0.00     0.088 A 
ATOM     18  C   UNL d   1     -40.829  14.453  19.821  0.00  0.00     0.024 A 
ATOM     19 CL   UNL d   1     -41.715  14.373  21.031  0.00  0.00    -0.075 Cl
ENDBRANCH   1  13
TORSDOF 3
ENDMDL
MODEL 6
REMARK VINA RESULT:      -5.3      8.752     10.609
REMARK  3 active torsions:
REMARK  status: ('A' for Active; 'I' for Inactive)
REMARK    1  A    between atoms: C_4  and  C_1 
REMARK       I    between atoms: N_7  and  C_4 
REMARK    2  A    between atoms: C_14  and  N_7 
REMARK    3  A    between atoms: C_9  and  C_10 
ROOT
ATOM      1  C   UNL d   1     -38.863  14.217  17.926  0.00  0.00     0.281 C 
ATOM      2  N   UNL d   1     -39.663  14.297  18.054  0.00  0.00    -0.208 NA
ATOM      3  O   UNL d   1     -38.321  14.463  18.499  0.00  0.00    -0.265 OA
ENDROOT
BRANCH   2   4
ATOM      4  C   UNL d   1     -39.930  14.623  18.755  0.00  0.00     0.085 A 
ATOM      5  C   UNL d   1     -40.338  15.361  18.731  0.00  0.00     0.019 A 
ATOM      6  C   UNL d   1     -40.612  15.701  19.423  0.00  0.00     0.005 A 
ATOM      7  C   UNL d   1     -40.495  15.331  20.146  0.00  0.00     0.039 A 
ATOM      8  C   UNL d   1     -40.092  14.603  20.163  0.00  0.00     0.005 A 
ATOM      9  C   UNL d   1     -39.816  14.259  19.474  0.00  0.00     0.019 A 
BRANCH   7  10
ATOM     10  C   UNL d   1     -40.778  15.682  20.860  0.00  0.00     0.196 C 
ATOM     11  O   UNL d   1     -40.288  15.793  21.494  0.00  0.00    -0.287 OA
ATOM     12  C   UNL d   1     -41.583  15.922  20.919  0.00  0.00     0.045 C 
ENDBRANCH   7  10
ENDBRANCH   2   4
BRANCH   1  13
ATOM     13  C   UNL d   1     -38.564  13.890  17.222  0.00  0.00     0.076 A 
ATOM     14  C   UNL d   1     -38.248  13.156  17.116  0.00  0.00     0.092 A 
ATOM     15  S   UNL d   1     -38.014  13.052  16.316  0.00  0.00    -0.064 SA
ATOM     16 CL   UNL d   1     -38.163  12.569  17.732  0.00  0.00    -0.075 Cl
ATOM     17  C   UNL d   1     -38.187  13.714  15.941  0.00  0.00     0.088 A 
ATOM     18  C   UNL d   1     -38.532  14.254  16.484  0.00  0.00     0.024 A 
ATOM     19 CL   UNL d   1     -38.047  13.859  15.118  0.00  0.00    -0.075 Cl
ENDBRANCH   1  13
TORSDOF 3
ENDMDL
