MODEL 1
REMARK VINA RESULT:      -8.1      0.000      0.000
REMARK  3 active torsions:
REMARK  status: ('A' for Active; 'I' for Inactive)
REMARK    1  A    between atoms: N_2  and  C_1 
REMARK    2  A    between atoms: N_4  and  C_1 
REMARK       I    between atoms: C_3  and  N_2 
REMARK    3  A    between atoms: C_5  and  C_3 
ROOT
ATOM      1  C   UNL d   1      52.526  32.881  53.237  0.00  0.00     0.209 C 
ATOM      2  S   UNL d   1      52.652  32.118  52.925  0.00  0.00    -0.038 SA
ENDROOT
BRANCH   1   3
ATOM      3  N   UNL d   1      53.058  33.205  53.763  0.00  0.00    -0.179 NA
ATOM      4  C   UNL d   1      53.726  32.782  53.990  0.00  0.00     0.287 C 
ATOM      5  O   UNL d   1      53.856  32.025  53.683  0.00  0.00    -0.265 OA
BRANCH   4   6
ATOM      6  C   UNL d   1      54.265  33.108  54.522  0.00  0.00     0.087 A 
ATOM      7  S   UNL d   1      54.266  33.162  55.352  0.00  0.00    -0.082 SA
ATOM      8  C   UNL d   1      54.958  33.551  55.583  0.00  0.00     0.036 A 
ATOM      9  C   UNL d   1      55.381  33.735  54.904  0.00  0.00     0.008 A 
ATOM     10  C   UNL d   1      54.956  33.463  54.245  0.00  0.00     0.012 A 
ENDBRANCH   4   6
ENDBRANCH   1   3
BRANCH   1  11
ATOM     11  N   UNL d   1      51.853  33.313  53.011  0.00  0.00    -0.281 N 
ATOM     12  C   UNL d   1      51.895  33.857  52.386  0.00  0.00     0.082 A 
ATOM     13  C   UNL d   1      51.233  34.283  52.164  0.00  0.00     0.019 A 
ATOM     14  C   UNL d   1      50.513  34.173  52.562  0.00  0.00     0.003 A 
ATOM     15  C   UNL d   1      50.477  33.631  53.183  0.00  0.00     0.019 A 
ATOM     16  C   UNL d   1      49.834  34.603  52.341  0.00  0.00     0.000 C 
ATOM     17  C   UNL d   1      51.142  33.203  53.406  0.00  0.00     0.082 A 
ENDBRANCH   1  11
TORSDOF 3
ENDMDL
MODEL 2
REMARK VINA RESULT:      -7.5      1.865      3.874
REMARK  3 active torsions:
REMARK  status: ('A' for Active; 'I' for Inactive)
REMARK    1  A    between atoms: N_2  and  C_1 
REMARK    2  A    between atoms: N_4  and  C_1 
REMARK       I    between atoms: C_3  and  N_2 
REMARK    3  A    between atoms: C_5  and  C_3 
ROOT
ATOM      1  C   UNL d   1      53.085  32.397  53.229  0.00  0.00     0.209 C 
ATOM      2  S   UNL d   1      53.763  32.881  53.268  0.00  0.00    -0.038 SA
ENDROOT
BRANCH   1   3
ATOM      3  N   UNL d   1      52.362  32.714  53.027  0.00  0.00    -0.179 NA
ATOM      4  C   UNL d   1      52.247  33.528  53.044  0.00  0.00     0.287 C 
ATOM      5  O   UNL d   1      52.870  34.026  53.267  0.00  0.00    -0.265 OA
BRANCH   4   6
ATOM      6  C   UNL d   1      51.516  33.852  52.840  0.00  0.00     0.087 A 
ATOM      7  S   UNL d   1      50.823  33.983  53.280  0.00  0.00    -0.082 SA
ATOM      8  C   UNL d   1      50.262  34.326  52.779  0.00  0.00     0.036 A 
ATOM      9  C   UNL d   1      50.605  34.407  52.037  0.00  0.00     0.008 A 
ATOM     10  C   UNL d   1      51.381  34.115  52.070  0.00  0.00     0.012 A 
ENDBRANCH   4   6
ENDBRANCH   1   3
BRANCH   1  11
ATOM     11  N   UNL d   1      53.147  31.585  53.396  0.00  0.00    -0.281 N 
ATOM     12  C   UNL d   1      52.852  31.023  52.863  0.00  0.00     0.082 A 
ATOM     13  C   UNL d   1      52.914  30.224  53.028  0.00  0.00     0.019 A 
ATOM     14  C   UNL d   1      53.273  29.970  53.732  0.00  0.00     0.003 A 
ATOM     15  C   UNL d   1      53.565  30.534  54.259  0.00  0.00     0.019 A 
ATOM     16  C   UNL d   1      53.340  29.157  53.907  0.00  0.00     0.000 C 
ATOM     17  C   UNL d   1      53.503  31.336  54.093  0.00  0.00     0.082 A 
ENDBRANCH   1  11
TORSDOF 3
ENDMDL
MODEL 3
REMARK VINA RESULT:      -7.5      1.611      2.264
REMARK  3 active torsions:
REMARK  status: ('A' for Active; 'I' for Inactive)
REMARK    1  A    between atoms: N_2  and  C_1 
REMARK    2  A    between atoms: N_4  and  C_1 
REMARK       I    between atoms: C_3  and  N_2 
REMARK    3  A    between atoms: C_5  and  C_3 
ROOT
ATOM      1  C   UNL d   1      52.602  32.949  53.215  0.00  0.00     0.209 C 
ATOM      2  S   UNL d   1      53.318  33.344  53.377  0.00  0.00    -0.038 SA
ENDROOT
BRANCH   1   3
ATOM      3  N   UNL d   1      52.561  32.135  53.251  0.00  0.00    -0.179 NA
ATOM      4  C   UNL d   1      53.241  31.692  53.383  0.00  0.00     0.287 C 
ATOM      5  O   UNL d   1      53.968  32.075  53.479  0.00  0.00    -0.265 OA
BRANCH   4   6
ATOM      6  C   UNL d   1      53.202  30.869  53.420  0.00  0.00     0.087 A 
ATOM      7  S   UNL d   1      52.893  30.302  52.896  0.00  0.00    -0.082 SA
ATOM      8  C   UNL d   1      53.011  29.554  53.228  0.00  0.00     0.036 A 
ATOM      9  C   UNL d   1      53.390  29.658  53.950  0.00  0.00     0.008 A 
ATOM     10  C   UNL d   1      53.510  30.470  54.073  0.00  0.00     0.012 A 
ENDBRANCH   4   6
ENDBRANCH   1   3
BRANCH   1  11
ATOM     11  N   UNL d   1      51.925  33.388  53.015  0.00  0.00    -0.281 N 
ATOM     12  C   UNL d   1      51.919  33.865  52.338  0.00  0.00     0.082 A 
ATOM     13  C   UNL d   1      51.253  34.297  52.142  0.00  0.00     0.019 A 
ATOM     14  C   UNL d   1      50.576  34.260  52.620  0.00  0.00     0.003 A 
ATOM     15  C   UNL d   1      50.587  33.784  53.294  0.00  0.00     0.019 A 
ATOM     16  C   UNL d   1      49.893  34.698  52.427  0.00  0.00     0.000 C 
ATOM     17  C   UNL d   1      51.256  33.350  53.490  0.00  0.00     0.082 A 
ENDBRANCH   1  11
TORSDOF 3
ENDMDL
MODEL 4
REMARK VINA RESULT:      -7.4      1.027      3.924
REMARK  3 active torsions:
REMARK  status: ('A' for Active; 'I' for Inactive)
REMARK    1  A    between atoms: N_2  and  C_1 
REMARK    2  A    between atoms: N_4  and  C_1 
REMARK       I    between atoms: C_3  and  N_2 
REMARK    3  A    between atoms: C_5  and  C_3 
ROOT
ATOM      1  C   UNL d   1      53.097  32.728  53.644  0.00  0.00     0.209 C 
ATOM      2  S   UNL d   1      53.119  31.956  53.327  0.00  0.00    -0.038 SA
ENDROOT
BRANCH   1   3
ATOM      3  N   UNL d   1      52.447  33.205  53.523  0.00  0.00    -0.179 NA
ATOM      4  C   UNL d   1      51.973  33.100  52.860  0.00  0.00     0.287 C 
ATOM      5  O   UNL d   1      52.158  32.506  52.313  0.00  0.00    -0.265 OA
BRANCH   4   6
ATOM      6  C   UNL d   1      51.315  33.581  52.735  0.00  0.00     0.087 A 
ATOM      7  S   UNL d   1      50.621  33.701  53.178  0.00  0.00    -0.082 SA
ATOM      8  C   UNL d   1      50.154  34.254  52.778  0.00  0.00     0.036 A 
ATOM      9  C   UNL d   1      50.555  34.474  52.096  0.00  0.00     0.008 A 
ATOM     10  C   UNL d   1      51.274  34.060  52.065  0.00  0.00     0.012 A 
ENDBRANCH   4   6
ENDBRANCH   1   3
BRANCH   1  11
ATOM     11  N   UNL d   1      53.742  33.012  54.085  0.00  0.00    -0.281 N 
ATOM     12  C   UNL d   1      53.643  33.232  54.878  0.00  0.00     0.082 A 
ATOM     13  C   UNL d   1      54.278  33.511  55.312  0.00  0.00     0.019 A 
ATOM     14  C   UNL d   1      55.027  33.576  54.960  0.00  0.00     0.003 A 
ATOM     15  C   UNL d   1      55.120  33.355  54.171  0.00  0.00     0.019 A 
ATOM     16  C   UNL d   1      55.679  33.860  55.396  0.00  0.00     0.000 C 
ATOM     17  C   UNL d   1      54.482  33.075  53.735  0.00  0.00     0.082 A 
ENDBRANCH   1  11
TORSDOF 3
ENDMDL
MODEL 5
REMARK VINA RESULT:      -7.2      1.964      2.995
REMARK  3 active torsions:
REMARK  status: ('A' for Active; 'I' for Inactive)
REMARK    1  A    between atoms: N_2  and  C_1 
REMARK    2  A    between atoms: N_4  and  C_1 
REMARK       I    between atoms: C_3  and  N_2 
REMARK    3  A    between atoms: C_5  and  C_3 
ROOT
ATOM      1  C   UNL d   1      53.943  32.920  53.748  0.00  0.00     0.209 C 
ATOM      2  S   UNL d   1      54.755  32.892  53.561  0.00  0.00    -0.038 SA
ENDROOT
BRANCH   1   3
ATOM      3  N   UNL d   1      53.488  32.244  53.715  0.00  0.00    -0.179 NA
ATOM      4  C   UNL d   1      53.818  31.535  53.461  0.00  0.00     0.287 C 
ATOM      5  O   UNL d   1      54.615  31.509  53.238  0.00  0.00    -0.265 OA
BRANCH   4   6
ATOM      6  C   UNL d   1      53.360  30.850  53.426  0.00  0.00     0.087 A 
ATOM      7  S   UNL d   1      52.690  30.650  52.976  0.00  0.00    -0.082 SA
ATOM      8  C   UNL d   1      52.466  29.880  53.176  0.00  0.00     0.036 A 
ATOM      9  C   UNL d   1      52.992  29.606  53.745  0.00  0.00     0.008 A 
ATOM     10  C   UNL d   1      53.547  30.203  53.902  0.00  0.00     0.012 A 
ENDBRANCH   4   6
ENDBRANCH   1   3
BRANCH   1  11
ATOM     11  N   UNL d   1      53.595  33.641  53.970  0.00  0.00    -0.281 N 
ATOM     12  C   UNL d   1      53.163  34.086  53.420  0.00  0.00     0.082 A 
ATOM     13  C   UNL d   1      52.820  34.795  53.639  0.00  0.00     0.019 A 
ATOM     14  C   UNL d   1      52.904  35.077  54.416  0.00  0.00     0.003 A 
ATOM     15  C   UNL d   1      53.335  34.630  54.959  0.00  0.00     0.019 A 
ATOM     16  C   UNL d   1      52.558  35.799  54.646  0.00  0.00     0.000 C 
ATOM     17  C   UNL d   1      53.679  33.917  54.739  0.00  0.00     0.082 A 
ENDBRANCH   1  11
TORSDOF 3
ENDMDL
