MODEL 1
REMARK VINA RESULT:      39.8      0.000      0.000
REMARK  5 active torsions:
REMARK  status: ('A' for Active; 'I' for Inactive)
REMARK       I    between atoms: C_2  and  N_1 
REMARK    1  A    between atoms: C_3  and  N_1 
REMARK    2  A    between atoms: C_4  and  C_2 
REMARK    3  A    between atoms: N_6  and  C_3 
REMARK    4  A    between atoms: C_11  and  N_6 
REMARK    5  A    between atoms: C_12  and  C_11 
ROOT
ATOM      1  N   UNL d   1      59.860  49.617  50.770  0.00  0.00    -0.179 NA
ATOM      2  C   UNL d   1      60.608  49.338  50.917  0.00  0.00     0.281 C 
ATOM      3  O   UNL d   1      61.032  48.972  50.305  0.00  0.00    -0.265 OA
ENDROOT
BRANCH   1   4
ATOM      4  C   UNL d   1      59.506  49.550  50.032  0.00  0.00     0.224 C 
ATOM      5  S   UNL d   1      59.955  49.335  49.371  0.00  0.00    -0.037 SA
BRANCH   4   6
ATOM      6  N   UNL d   1      58.709  49.697  49.958  0.00  0.00    -0.214 NA
BRANCH   6   7
ATOM      7  C   UNL d   1      58.175  49.343  50.482  0.00  0.00     0.126 C 
BRANCH   7   8
ATOM      8  C   UNL d   1      57.362  49.306  50.289  0.00  0.00     0.119 A 
ATOM      9  O   UNL d   1      57.037  48.848  49.686  0.00  0.00    -0.304 OA
ATOM     10  C   UNL d   1      56.220  48.969  49.681  0.00  0.00     0.123 A 
ATOM     11  C   UNL d   1      56.052  49.504  50.287  0.00  0.00     0.029 A 
ATOM     12  C   UNL d   1      56.755  49.706  50.655  0.00  0.00     0.028 A 
ENDBRANCH   7   8
ENDBRANCH   6   7
ENDBRANCH   4   6
ENDBRANCH   1   4
BRANCH   2  13
ATOM     13  C   UNL d   1      60.944  49.420  51.676  0.00  0.00     0.058 A 
ATOM     14  C   UNL d   1      61.744  49.289  51.759  0.00  0.00     0.005 A 
ATOM     15  C   UNL d   1      62.092  49.366  52.505  0.00  0.00     0.000 A 
ATOM     16  C   UNL d   1      61.642  49.572  53.161  0.00  0.00     0.000 A 
ATOM     17  C   UNL d   1      60.826  49.702  53.058  0.00  0.00     0.000 A 
ATOM     18  C   UNL d   1      62.012  49.645  53.908  0.00  0.00     0.000 C 
ATOM     19  C   UNL d   1      60.488  49.625  52.320  0.00  0.00     0.005 A 
ENDBRANCH   2  13
TORSDOF 5
ENDMDL
MODEL 2
REMARK VINA RESULT:      42.6      1.105      4.461
REMARK  5 active torsions:
REMARK  status: ('A' for Active; 'I' for Inactive)
REMARK       I    between atoms: C_2  and  N_1 
REMARK    1  A    between atoms: C_3  and  N_1 
REMARK    2  A    between atoms: C_4  and  C_2 
REMARK    3  A    between atoms: N_6  and  C_3 
REMARK    4  A    between atoms: C_11  and  N_6 
REMARK    5  A    between atoms: C_12  and  C_11 
ROOT
ATOM      1  N   UNL d   1      59.778  49.687  49.919  0.00  0.00    -0.179 NA
ATOM      2  C   UNL d   1      59.134  49.687  50.414  0.00  0.00     0.281 C 
ATOM      3  O   UNL d   1      59.254  49.700  51.235  0.00  0.00    -0.265 OA
ENDROOT
BRANCH   1   4
ATOM      4  C   UNL d   1      60.548  49.699  50.204  0.00  0.00     0.224 C 
ATOM      5  S   UNL d   1      61.187  49.703  49.679  0.00  0.00    -0.037 SA
BRANCH   4   6
ATOM      6  N   UNL d   1      60.675  49.706  51.008  0.00  0.00    -0.214 NA
BRANCH   6   7
ATOM      7  C   UNL d   1      60.951  49.025  51.387  0.00  0.00     0.126 C 
BRANCH   7   8
ATOM      8  C   UNL d   1      61.249  49.071  52.167  0.00  0.00     0.119 A 
ATOM      9  O   UNL d   1      61.677  49.704  52.476  0.00  0.00    -0.304 OA
ATOM     10  C   UNL d   1      61.866  49.531  53.261  0.00  0.00     0.123 A 
ATOM     11  C   UNL d   1      61.548  48.787  53.426  0.00  0.00     0.029 A 
ATOM     12  C   UNL d   1      61.172  48.512  52.754  0.00  0.00     0.028 A 
ENDBRANCH   7   8
ENDBRANCH   6   7
ENDBRANCH   4   6
ENDBRANCH   1   4
BRANCH   2  13
ATOM     13  C   UNL d   1      58.362  49.675  50.098  0.00  0.00     0.058 A 
ATOM     14  C   UNL d   1      57.734  49.700  50.616  0.00  0.00     0.005 A 
ATOM     15  C   UNL d   1      56.963  49.689  50.318  0.00  0.00     0.000 A 
ATOM     16  C   UNL d   1      56.823  49.652  49.509  0.00  0.00     0.000 A 
ATOM     17  C   UNL d   1      57.477  49.627  48.995  0.00  0.00     0.000 A 
ATOM     18  C   UNL d   1      56.036  49.642  49.227  0.00  0.00     0.000 C 
ATOM     19  C   UNL d   1      58.236  49.639  49.294  0.00  0.00     0.005 A 
ENDBRANCH   2  13
TORSDOF 5
ENDMDL
