MODEL 1
REMARK VINA RESULT:      10.0      0.000      0.000
REMARK  2 active torsions:
REMARK  status: ('A' for Active; 'I' for Inactive)
REMARK    1  A    between atoms: N_7  and  C_2 
REMARK    2  A    between atoms: C_10  and  N_7 
ROOT
ATOM      1  N   UNL d   1      13.722  11.969  -1.422  0.00  0.00     0.002 N 
ATOM      2  C   UNL d   1      13.906  11.957  -2.226  0.00  0.00     0.773 A 
ATOM      3  C   UNL d   1      14.315  12.132  -0.877  0.00  0.00     0.317 A 
ATOM      4  N   UNL d   1      14.684  12.107  -2.482  0.00  0.00     0.046 NA
ATOM      5  N   UNL d   1      15.268  12.268  -1.930  0.00  0.00    -0.127 NA
ATOM      6  C   UNL d   1      15.094  12.283  -1.133  0.00  0.00     0.162 A 
ATOM      7  O   UNL d   1      14.114  12.142  -0.052  0.00  0.00    -0.263 OA
ATOM      8  N   UNL d   1      12.957  11.822  -1.171  0.00  0.00    -0.023 N 
ATOM      9  C   UNL d   1      15.696  12.448  -0.571  0.00  0.00     0.028 C 
ENDROOT
BRANCH   2  10
ATOM     10  N   UNL d   1      13.286  11.787  -2.782  0.00  0.00    -0.058 NA
BRANCH  10  11
ATOM     11  C   UNL d   1      13.210  12.221  -3.489  0.00  0.00     0.100 A 
ATOM     12  C   UNL d   1      13.207  11.823  -4.201  0.00  0.00     0.020 A 
ATOM     13  C   UNL d   1      13.131  12.259  -4.912  0.00  0.00     0.002 A 
ATOM     14  C   UNL d   1      13.061  13.072  -4.878  0.00  0.00     0.000 A 
ATOM     15  C   UNL d   1      13.063  13.465  -4.166  0.00  0.00     0.002 A 
ATOM     16  C   UNL d   1      13.140  13.029  -3.455  0.00  0.00     0.020 A 
ENDBRANCH  10  11
ENDBRANCH   2  10
TORSDOF 2
ENDMDL
