MODEL 1
REMARK VINA RESULT:      -9.2      0.000      0.000
REMARK  1 active torsions:
REMARK  status: ('A' for Active; 'I' for Inactive)
REMARK    1  A    between atoms: C_8  and  C_1 
ROOT
ATOM      1  C   UNL d   1     -48.378  13.069  22.958  0.00  0.00     0.010 A 
ATOM      2  C   UNL d   1     -47.744  12.570  23.144  0.00  0.00     0.062 A 
ATOM      3  C   UNL d   1     -46.972  12.872  23.145  0.00  0.00     0.106 A 
ATOM      4  C   UNL d   1     -47.875  11.780  23.329  0.00  0.00     0.198 A 
ATOM      5  O   UNL d   1     -46.838  13.662  22.961  0.00  0.00    -0.273 OA
ATOM      6  C   UNL d   1     -48.247  13.860  22.774  0.00  0.00     0.069 A 
ATOM      7  C   UNL d   1     -47.479  14.160  22.774  0.00  0.00     0.300 A 
ATOM      8  C   UNL d   1     -46.338  12.380  23.330  0.00  0.00     0.025 A 
ATOM      9  C   UNL d   1     -47.243  11.284  23.514  0.00  0.00     0.042 A 
ATOM     10  O   UNL d   1     -47.343  14.956  22.589  0.00  0.00    -0.259 OA
ATOM     11  C   UNL d   1     -46.474  11.584  23.514  0.00  0.00     0.005 A 
ATOM     12  O   UNL d   1     -48.647  11.478  23.328  0.00  0.00    -0.286 OA
ATOM     13  C   UNL d   1     -45.838  11.097  23.698  0.00  0.00     0.000 C 
ENDROOT
BRANCH   1  14
ATOM     14  C   UNL d   1     -49.150  12.768  22.958  0.00  0.00     0.000 A 
ATOM     15  C   UNL d   1     -49.477  12.472  22.255  0.00  0.00     0.000 A 
ATOM     16  C   UNL d   1     -50.257  12.168  22.254  0.00  0.00     0.000 A 
ATOM     17  C   UNL d   1     -50.698  12.162  22.949  0.00  0.00     0.000 A 
ATOM     18  C   UNL d   1     -50.359  12.463  23.653  0.00  0.00     0.000 A 
ATOM     19  C   UNL d   1     -49.591  12.763  23.653  0.00  0.00     0.000 A 
ENDBRANCH   1  14
TORSDOF 1
ENDMDL
MODEL 2
REMARK VINA RESULT:      -9.0      0.933      2.367
REMARK  1 active torsions:
REMARK  status: ('A' for Active; 'I' for Inactive)
REMARK    1  A    between atoms: C_8  and  C_1 
ROOT
ATOM      1  C   UNL d   1     -48.984  12.728  23.176  0.00  0.00     0.010 A 
ATOM      2  C   UNL d   1     -48.234  12.404  23.306  0.00  0.00     0.062 A 
ATOM      3  C   UNL d   1     -48.166  11.620  23.568  0.00  0.00     0.106 A 
ATOM      4  C   UNL d   1     -47.557  12.851  23.176  0.00  0.00     0.198 A 
ATOM      5  O   UNL d   1     -48.842  11.169  23.698  0.00  0.00    -0.273 OA
ATOM      6  C   UNL d   1     -49.661  12.280  23.306  0.00  0.00     0.069 A 
ATOM      7  C   UNL d   1     -49.594  11.501  23.566  0.00  0.00     0.300 A 
ATOM      8  C   UNL d   1     -47.422  11.292  23.698  0.00  0.00     0.025 A 
ATOM      9  C   UNL d   1     -46.810  12.526  23.305  0.00  0.00     0.042 A 
ATOM     10  O   UNL d   1     -50.275  11.046  23.698  0.00  0.00    -0.259 OA
ATOM     11  C   UNL d   1     -46.743  11.747  23.566  0.00  0.00     0.005 A 
ATOM     12  O   UNL d   1     -47.624  13.635  22.914  0.00  0.00    -0.286 OA
ATOM     13  C   UNL d   1     -46.002  11.415  23.698  0.00  0.00     0.000 C 
ENDROOT
BRANCH   1  14
ATOM     14  C   UNL d   1     -49.052  13.512  22.914  0.00  0.00     0.000 A 
ATOM     15  C   UNL d   1     -49.119  14.127  23.467  0.00  0.00     0.000 A 
ATOM     16  C   UNL d   1     -49.188  14.919  23.202  0.00  0.00     0.000 A 
ATOM     17  C   UNL d   1     -49.188  15.085  22.396  0.00  0.00     0.000 A 
ATOM     18  C   UNL d   1     -49.120  14.458  21.847  0.00  0.00     0.000 A 
ATOM     19  C   UNL d   1     -49.052  13.678  22.107  0.00  0.00     0.000 A 
ENDBRANCH   1  14
TORSDOF 1
ENDMDL
MODEL 3
REMARK VINA RESULT:      -8.9      1.282      3.620
REMARK  1 active torsions:
REMARK  status: ('A' for Active; 'I' for Inactive)
REMARK    1  A    between atoms: C_8  and  C_1 
ROOT
ATOM      1  C   UNL d   1     -48.421  12.964  23.021  0.00  0.00     0.010 A 
ATOM      2  C   UNL d   1     -48.926  13.615  23.097  0.00  0.00     0.062 A 
ATOM      3  C   UNL d   1     -49.727  13.493  23.275  0.00  0.00     0.106 A 
ATOM      4  C   UNL d   1     -48.640  14.379  22.999  0.00  0.00     0.198 A 
ATOM      5  O   UNL d   1     -50.015  12.729  23.373  0.00  0.00    -0.273 OA
ATOM      6  C   UNL d   1     -48.706  12.199  23.119  0.00  0.00     0.069 A 
ATOM      7  C   UNL d   1     -49.503  12.078  23.295  0.00  0.00     0.300 A 
ATOM      8  C   UNL d   1     -50.234  14.137  23.352  0.00  0.00     0.025 A 
ATOM      9  C   UNL d   1     -49.145  15.027  23.076  0.00  0.00     0.042 A 
ATOM     10  O   UNL d   1     -49.795  11.309  23.395  0.00  0.00    -0.259 OA
ATOM     11  C   UNL d   1     -49.942  14.906  23.253  0.00  0.00     0.005 A 
ATOM     12  O   UNL d   1     -47.840  14.501  22.822  0.00  0.00    -0.286 OA
ATOM     13  C   UNL d   1     -50.452  15.545  23.331  0.00  0.00     0.000 C 
ENDROOT
BRANCH   1  14
ATOM     14  C   UNL d   1     -47.620  13.085  22.843  0.00  0.00     0.000 A 
ATOM     15  C   UNL d   1     -47.070  13.168  23.459  0.00  0.00     0.000 A 
ATOM     16  C   UNL d   1     -46.261  13.291  23.279  0.00  0.00     0.000 A 
ATOM     17  C   UNL d   1     -46.013  13.329  22.496  0.00  0.00     0.000 A 
ATOM     18  C   UNL d   1     -46.576  13.244  21.882  0.00  0.00     0.000 A 
ATOM     19  C   UNL d   1     -47.373  13.123  22.059  0.00  0.00     0.000 A 
ENDBRANCH   1  14
TORSDOF 1
ENDMDL
MODEL 4
REMARK VINA RESULT:      -8.9      1.334      2.964
REMARK  1 active torsions:
REMARK  status: ('A' for Active; 'I' for Inactive)
REMARK    1  A    between atoms: C_8  and  C_1 
ROOT
ATOM      1  C   UNL d   1     -48.289  13.999  22.776  0.00  0.00     0.010 A 
ATOM      2  C   UNL d   1     -48.857  13.442  23.007  0.00  0.00     0.062 A 
ATOM      3  C   UNL d   1     -49.648  13.675  23.093  0.00  0.00     0.106 A 
ATOM      4  C   UNL d   1     -48.642  12.662  23.152  0.00  0.00     0.198 A 
ATOM      5  O   UNL d   1     -49.865  14.455  22.949  0.00  0.00    -0.273 OA
ATOM      6  C   UNL d   1     -48.504  14.779  22.631  0.00  0.00     0.069 A 
ATOM      7  C   UNL d   1     -49.291  15.011  22.716  0.00  0.00     0.300 A 
ATOM      8  C   UNL d   1     -50.216  13.126  23.323  0.00  0.00     0.025 A 
ATOM      9  C   UNL d   1     -49.209  12.109  23.383  0.00  0.00     0.042 A 
ATOM     10  O   UNL d   1     -49.511  15.797  22.571  0.00  0.00    -0.259 OA
ATOM     11  C   UNL d   1     -49.996  12.341  23.468  0.00  0.00     0.005 A 
ATOM     12  O   UNL d   1     -47.851  12.429  23.066  0.00  0.00    -0.286 OA
ATOM     13  C   UNL d   1     -50.568  11.797  23.698  0.00  0.00     0.000 C 
ENDROOT
BRANCH   1  14
ATOM     14  C   UNL d   1     -47.498  13.766  22.690  0.00  0.00     0.000 A 
ATOM     15  C   UNL d   1     -47.235  13.461  21.964  0.00  0.00     0.000 A 
ATOM     16  C   UNL d   1     -46.435  13.226  21.877  0.00  0.00     0.000 A 
ATOM     17  C   UNL d   1     -45.914  13.296  22.510  0.00  0.00     0.000 A 
ATOM     18  C   UNL d   1     -46.190  13.604  23.237  0.00  0.00     0.000 A 
ATOM     19  C   UNL d   1     -46.977  13.836  23.323  0.00  0.00     0.000 A 
ENDBRANCH   1  14
TORSDOF 1
ENDMDL
MODEL 5
REMARK VINA RESULT:      -8.3      1.446      3.038
REMARK  1 active torsions:
REMARK  status: ('A' for Active; 'I' for Inactive)
REMARK    1  A    between atoms: C_8  and  C_1 
ROOT
ATOM      1  C   UNL d   1     -48.402  13.867  22.816  0.00  0.00     0.010 A 
ATOM      2  C   UNL d   1     -49.071  14.302  23.038  0.00  0.00     0.062 A 
ATOM      3  C   UNL d   1     -49.049  15.130  23.008  0.00  0.00     0.106 A 
ATOM      4  C   UNL d   1     -49.754  13.920  23.288  0.00  0.00     0.198 A 
ATOM      5  O   UNL d   1     -48.366  15.515  22.758  0.00  0.00    -0.273 OA
ATOM      6  C   UNL d   1     -47.718  14.249  22.566  0.00  0.00     0.069 A 
ATOM      7  C   UNL d   1     -47.697  15.073  22.536  0.00  0.00     0.300 A 
ATOM      8  C   UNL d   1     -49.710  15.568  23.227  0.00  0.00     0.025 A 
ATOM      9  C   UNL d   1     -50.419  14.355  23.509  0.00  0.00     0.042 A 
ATOM     10  O   UNL d   1     -47.009  15.462  22.285  0.00  0.00    -0.259 OA
ATOM     11  C   UNL d   1     -50.397  15.179  23.478  0.00  0.00     0.005 A 
ATOM     12  O   UNL d   1     -49.776  13.092  23.318  0.00  0.00    -0.286 OA
ATOM     13  C   UNL d   1     -51.055  15.621  23.697  0.00  0.00     0.000 C 
ENDROOT
BRANCH   1  14
ATOM     14  C   UNL d   1     -48.424  13.038  22.846  0.00  0.00     0.000 A 
ATOM     15  C   UNL d   1     -48.169  12.644  23.530  0.00  0.00     0.000 A 
ATOM     16  C   UNL d   1     -48.191  11.807  23.560  0.00  0.00     0.000 A 
ATOM     17  C   UNL d   1     -48.465  11.378  22.914  0.00  0.00     0.000 A 
ATOM     18  C   UNL d   1     -48.721  11.785  22.229  0.00  0.00     0.000 A 
ATOM     19  C   UNL d   1     -48.699  12.610  22.199  0.00  0.00     0.000 A 
ENDBRANCH   1  14
TORSDOF 1
ENDMDL
