MODEL 1
REMARK VINA RESULT:       0.7      0.000      0.000
REMARK  6 active torsions:
REMARK  status: ('A' for Active; 'I' for Inactive)
REMARK       I    between atoms: C_6  and  N_1 
REMARK    1  A    between atoms: C_10  and  C_2 
REMARK    2  A    between atoms: O_16  and  C_8 
REMARK    3  A    between atoms: O_14  and  C_10 
REMARK    4  A    between atoms: O_17  and  C_11 
REMARK    5  A    between atoms: C_15  and  O_14 
REMARK    6  A    between atoms: C_24  and  C_18 
ROOT
ATOM      1  N   UNL d   1      59.361   0.681  32.514  0.00  0.00    -0.271 N 
ATOM      2  C   UNL d   1      58.736   0.681  31.975  0.00  0.00     0.092 A 
ATOM      3  C   UNL d   1      58.891   0.681  31.173  0.00  0.00     0.020 A 
ATOM      4  C   UNL d   1      59.670   0.681  30.900  0.00  0.00     0.005 A 
ATOM      5  C   UNL d   1      58.268   0.681  30.639  0.00  0.00     0.028 A 
ATOM      6  C   UNL d   1      59.207   0.682  33.335  0.00  0.00     0.265 C 
ATOM      7  C   UNL d   1      60.140   0.681  32.241  0.00  0.00     0.083 A 
ATOM      8  C   UNL d   1      58.420   0.681  29.828  0.00  0.00     0.116 A 
ATOM      9  C   UNL d   1      59.825   0.681  30.093  0.00  0.00     0.026 A 
ATOM     10  C   UNL d   1      59.199   0.681  29.555  0.00  0.00     0.116 A 
ATOM     11  C   UNL d   1      60.293   0.681  31.430  0.00  0.00     0.019 A 
ATOM     12  O   UNL d   1      58.428   0.682  33.608  0.00  0.00    -0.267 OA
ATOM     13  C   UNL d   1      59.830   0.682  33.865  0.00  0.00     0.066 C 
ENDROOT
BRANCH   2  14
ATOM     14  C   UNL d   1      57.957   0.681  32.248  0.00  0.00     0.140 C 
BRANCH  14  15
ATOM     15  O   UNL d   1      57.483   0.013  32.145  0.00  0.00    -0.304 OA
BRANCH  15  16
ATOM     16  C   UNL d   1      56.736  -0.021  32.492  0.00  0.00     0.100 A 
ATOM     17  C   UNL d   1      56.344   0.677  32.693  0.00  0.00     0.025 A 
ATOM     18  C   UNL d   1      55.596   0.643  33.041  0.00  0.00     0.002 A 
ATOM     19  C   UNL d   1      55.241  -0.088  33.186  0.00  0.00     0.000 A 
ATOM     20  C   UNL d   1      55.634  -0.785  32.985  0.00  0.00     0.002 A 
ATOM     21  C   UNL d   1      56.381  -0.752  32.637  0.00  0.00     0.025 A 
BRANCH  19  22
ATOM     22  C   UNL d   1      54.493  -0.121  33.534  0.00  0.00     0.000 C 
ATOM     23  C   UNL d   1      54.372   0.193  34.283  0.00  0.00     0.000 C 
ENDBRANCH  19  22
ENDBRANCH  15  16
ENDBRANCH  14  15
ENDBRANCH   2  14
BRANCH   8  24
ATOM     24  O   UNL d   1      57.789   0.680  29.286  0.00  0.00    -0.326 OA
ATOM     25  C   UNL d   1      57.299   0.018  29.224  0.00  0.00     0.181 C 
ENDBRANCH   8  24
BRANCH  10  26
ATOM     26  O   UNL d   1      59.359   0.680  28.736  0.00  0.00    -0.326 OA
ATOM     27  C   UNL d   1      60.142   0.662  28.473  0.00  0.00     0.181 C 
ENDBRANCH  10  26
TORSDOF 6
ENDMDL
MODEL 2
REMARK VINA RESULT:       3.5      1.655      4.516
REMARK  6 active torsions:
REMARK  status: ('A' for Active; 'I' for Inactive)
REMARK       I    between atoms: C_6  and  N_1 
REMARK    1  A    between atoms: C_10  and  C_2 
REMARK    2  A    between atoms: O_16  and  C_8 
REMARK    3  A    between atoms: O_14  and  C_10 
REMARK    4  A    between atoms: O_17  and  C_11 
REMARK    5  A    between atoms: C_15  and  O_14 
REMARK    6  A    between atoms: C_24  and  C_18 
ROOT
ATOM      1  N   UNL d   1      58.092   0.682  34.263  0.00  0.00    -0.271 N 
ATOM      2  C   UNL d   1      57.443   0.682  33.753  0.00  0.00     0.092 A 
ATOM      3  C   UNL d   1      56.685   0.682  34.061  0.00  0.00     0.020 A 
ATOM      4  C   UNL d   1      56.568   0.682  34.878  0.00  0.00     0.005 A 
ATOM      5  C   UNL d   1      56.041   0.682  33.553  0.00  0.00     0.028 A 
ATOM      6  C   UNL d   1      58.868   0.682  33.952  0.00  0.00     0.265 C 
ATOM      7  C   UNL d   1      57.975   0.682  35.079  0.00  0.00     0.083 A 
ATOM      8  C   UNL d   1      55.275   0.682  33.859  0.00  0.00     0.116 A 
ATOM      9  C   UNL d   1      55.807   0.682  35.186  0.00  0.00     0.026 A 
ATOM     10  C   UNL d   1      55.158   0.682  34.676  0.00  0.00     0.116 A 
ATOM     11  C   UNL d   1      57.209   0.682  35.387  0.00  0.00     0.019 A 
ATOM     12  O   UNL d   1      58.985   0.682  33.136  0.00  0.00    -0.267 OA
ATOM     13  C   UNL d   1      59.508   0.682  34.461  0.00  0.00     0.066 C 
ENDROOT
BRANCH   2  14
ATOM     14  C   UNL d   1      57.559   0.682  32.937  0.00  0.00     0.140 C 
BRANCH  14  15
ATOM     15  O   UNL d   1      57.260   0.065  32.477  0.00  0.00    -0.304 OA
BRANCH  15  16
ATOM     16  C   UNL d   1      57.490  -0.011  31.688  0.00  0.00     0.100 A 
ATOM     17  C   UNL d   1      57.507  -0.756  31.333  0.00  0.00     0.025 A 
ATOM     18  C   UNL d   1      57.737  -0.832  30.545  0.00  0.00     0.002 A 
ATOM     19  C   UNL d   1      57.950  -0.163  30.111  0.00  0.00     0.000 A 
ATOM     20  C   UNL d   1      57.934   0.582  30.466  0.00  0.00     0.002 A 
ATOM     21  C   UNL d   1      57.704   0.658  31.255  0.00  0.00     0.025 A 
BRANCH  19  22
ATOM     22  C   UNL d   1      58.181  -0.238  29.322  0.00  0.00     0.000 C 
ATOM     23  C   UNL d   1      58.541   0.391  28.936  0.00  0.00     0.000 C 
ENDBRANCH  19  22
ENDBRANCH  15  16
ENDBRANCH  14  15
ENDBRANCH   2  14
BRANCH   8  24
ATOM     24  O   UNL d   1      54.621   0.682  33.345  0.00  0.00    -0.326 OA
ATOM     25  C   UNL d   1      54.121   0.026  33.314  0.00  0.00     0.181 C 
ENDBRANCH   8  24
BRANCH  10  26
ATOM     26  O   UNL d   1      54.385   0.682  34.992  0.00  0.00    -0.326 OA
ATOM     27  C   UNL d   1      54.269   0.486  35.785  0.00  0.00     0.181 C 
ENDBRANCH  10  26
TORSDOF 6
ENDMDL
