MODEL 1
REMARK VINA RESULT:      38.8      0.000      0.000
REMARK  1 active torsions:
REMARK  status: ('A' for Active; 'I' for Inactive)
REMARK    1  A    between atoms: C_3  and  C_1 
REMARK       I    between atoms: N_2  and  C_3 
ROOT
ATOM      1  N   UNL d   1     -50.958  25.348  33.352  0.00  0.00    -0.303 N 
ATOM      2  C   UNL d   1     -50.406  25.986  33.349  0.00  0.00     0.244 C 
ATOM      3  C   UNL d   1     -51.770  25.566  33.348  0.00  0.00     0.088 A 
ATOM      4  C   UNL d   1     -51.030  23.841  33.364  0.00  0.00     0.037 A 
ATOM      5  C   UNL d   1     -50.629  24.571  33.359  0.00  0.00     0.051 A 
ATOM      6  C   UNL d   1     -51.728  24.580  33.356  0.00  0.00     0.028 A 
ATOM      7  C   UNL d   1     -52.484  24.242  33.357  0.00  0.00     0.002 A 
ATOM      8  C   UNL d   1     -52.444  25.066  33.350  0.00  0.00     0.023 A 
ATOM      9  O   UNL d   1     -49.640  25.823  33.352  0.00  0.00    -0.271 OA
ATOM     10  C   UNL d   1     -51.845  23.709  33.363  0.00  0.00     0.006 A 
ATOM     11  C   UNL d   1     -50.483  23.190  33.371  0.00  0.00     0.006 C 
ATOM     12  C   UNL d   1     -52.703  23.430  33.363  0.00  0.00     0.000 C 
ATOM     13  C   UNL d   1     -53.296  24.462  33.353  0.00  0.00     0.000 C 
ENDROOT
BRANCH   2  14
ATOM     14  C   UNL d   1     -50.672  26.730  33.342  0.00  0.00     0.111 A 
ATOM     15  C   UNL d   1     -50.566  28.196  33.336  0.00  0.00     0.025 A 
ATOM     16  C   UNL d   1     -50.920  27.488  33.335  0.00  0.00     0.074 A 
ATOM     17  C   UNL d   1     -49.817  28.473  33.344  0.00  0.00     0.002 C 
ATOM     18  C   UNL d   1     -51.013  28.852  33.327  0.00  0.00     0.002 C 
ATOM     19  C   UNL d   1     -51.351  28.139  33.327  0.00  0.00     0.012 C 
ATOM     20  C   UNL d   1     -51.665  27.225  33.327  0.00  0.00    -0.023 A 
ATOM     21  C   UNL d   1     -50.143  27.336  33.345  0.00  0.00     0.172 A 
ATOM     22  C   UNL d   1     -51.412  26.479  33.334  0.00  0.00    -0.018 A 
ATOM     23  C   UNL d   1     -49.888  26.581  33.352  0.00  0.00     0.024 A 
ATOM     24  O   UNL d   1     -49.486  27.778  33.351  0.00  0.00    -0.291 OA
ENDBRANCH   2  14
TORSDOF 1
ENDMDL
MODEL 2
REMARK VINA RESULT:      39.5      1.380      3.695
REMARK  1 active torsions:
REMARK  status: ('A' for Active; 'I' for Inactive)
REMARK    1  A    between atoms: C_3  and  C_1 
REMARK       I    between atoms: N_2  and  C_3 
ROOT
ATOM      1  N   UNL d   1     -51.084  25.170  33.402  0.00  0.00    -0.303 N 
ATOM      2  C   UNL d   1     -51.921  25.278  33.395  0.00  0.00     0.244 C 
ATOM      3  C   UNL d   1     -50.817  24.372  33.382  0.00  0.00     0.088 A 
ATOM      4  C   UNL d   1     -49.788  25.940  33.441  0.00  0.00     0.037 A 
ATOM      5  C   UNL d   1     -50.617  25.873  33.429  0.00  0.00     0.051 A 
ATOM      6  C   UNL d   1     -50.018  24.952  33.409  0.00  0.00     0.028 A 
ATOM      7  C   UNL d   1     -49.319  24.507  33.405  0.00  0.00     0.002 A 
ATOM      8  C   UNL d   1     -50.029  24.087  33.384  0.00  0.00     0.023 A 
ATOM      9  O   UNL d   1     -52.208  26.007  33.412  0.00  0.00    -0.271 OA
ATOM     10  C   UNL d   1     -49.227  25.334  33.431  0.00  0.00     0.006 A 
ATOM     11  C   UNL d   1     -49.547  26.756  33.469  0.00  0.00     0.006 C 
ATOM     12  C   UNL d   1     -48.522  24.773  33.423  0.00  0.00     0.000 C 
ATOM     13  C   UNL d   1     -49.054  23.709  33.385  0.00  0.00     0.000 C 
ENDROOT
BRANCH   2  14
ATOM     14  C   UNL d   1     -52.394  24.646  33.370  0.00  0.00     0.111 A 
ATOM     15  C   UNL d   1     -53.675  23.925  33.346  0.00  0.00     0.025 A 
ATOM     16  C   UNL d   1     -52.889  24.021  33.346  0.00  0.00     0.074 A 
ATOM     17  C   UNL d   1     -54.319  24.397  33.371  0.00  0.00     0.002 C 
ATOM     18  C   UNL d   1     -53.975  23.191  33.316  0.00  0.00     0.002 C 
ATOM     19  C   UNL d   1     -53.194  23.303  33.316  0.00  0.00     0.012 C 
ATOM     20  C   UNL d   1     -52.258  23.546  33.321  0.00  0.00    -0.023 A 
ATOM     21  C   UNL d   1     -53.191  24.752  33.380  0.00  0.00     0.172 A 
ATOM     22  C   UNL d   1     -51.776  24.169  33.345  0.00  0.00    -0.018 A 
ATOM     23  C   UNL d   1     -52.703  25.381  33.404  0.00  0.00     0.024 A 
ATOM     24  O   UNL d   1     -53.922  25.056  33.398  0.00  0.00    -0.291 OA
ENDBRANCH   2  14
TORSDOF 1
ENDMDL
