MODEL 1
REMARK VINA RESULT:      -8.5      0.000      0.000
REMARK  5 active torsions:
REMARK  status: ('A' for Active; 'I' for Inactive)
REMARK    1  A    between atoms: C_16  and  N_5 
REMARK    2  A    between atoms: C_15  and  C_6 
REMARK    3  A    between atoms: C_19  and  C_16 
REMARK    4  A    between atoms: O_20  and  C_17 
REMARK    5  A    between atoms: C_22  and  C_19 
ROOT
ATOM      1  O   UNL d   1      53.486  29.996  53.735  0.00  0.00    -0.326 OA
ATOM      2  C   UNL d   1      53.664  30.721  53.370  0.00  0.00     0.118 C 
ATOM      3  C   UNL d   1      53.312  29.272  54.096  0.00  0.00     0.181 C 
ENDROOT
BRANCH   2   4
ATOM      4  C   UNL d   1      53.301  31.469  53.360  0.00  0.00     0.045 C 
BRANCH   4   5
ATOM      5  C   UNL d   1      53.572  32.256  53.431  0.00  0.00     0.086 C 
BRANCH   5   6
ATOM      6  N   UNL d   1      53.014  32.875  53.501  0.00  0.00    -0.258 N 
ATOM      7  C   UNL d   1      52.317  32.855  53.065  0.00  0.00     0.272 A 
ATOM      8  C   UNL d   1      51.770  33.468  53.138  0.00  0.00     0.137 A 
ATOM      9  O   UNL d   1      52.164  32.226  52.557  0.00  0.00    -0.266 OA
ATOM     10  C   UNL d   1      51.920  34.102  53.648  0.00  0.00     0.192 A 
ATOM     11  C   UNL d   1      51.069  33.450  52.701  0.00  0.00     0.205 A 
ATOM     12  N   UNL d   1      52.613  34.124  54.083  0.00  0.00    -0.204 NA
ATOM     13  O   UNL d   1      51.372  34.709  53.716  0.00  0.00    -0.289 OA
ATOM     14  C   UNL d   1      53.167  33.507  54.012  0.00  0.00     0.152 A 
ATOM     15  C   UNL d   1      50.674  34.686  53.277  0.00  0.00     0.107 A 
ATOM     16  C   UNL d   1      50.529  34.055  52.771  0.00  0.00     0.062 A 
ATOM     17  C   UNL d   1      50.121  35.303  53.349  0.00  0.00     0.049 A 
ATOM     18  C   UNL d   1      49.828  34.032  52.331  0.00  0.00     0.007 A 
ATOM     19  C   UNL d   1      49.281  34.647  52.405  0.00  0.00     0.024 A 
ATOM     20  C   UNL d   1      49.427  35.278  52.910  0.00  0.00     0.096 A 
ATOM     21  O   UNL d   1      50.924  32.819  52.195  0.00  0.00    -0.286 OA
BRANCH  14  22
ATOM     22  C   UNL d   1      53.865  33.530  54.451  0.00  0.00     0.035 A 
ATOM     23  C   UNL d   1      53.851  33.302  55.245  0.00  0.00     0.003 A 
ATOM     24  C   UNL d   1      54.546  33.326  55.680  0.00  0.00     0.000 A 
ATOM     25  C   UNL d   1      55.251  33.572  55.332  0.00  0.00     0.000 A 
ATOM     26  C   UNL d   1      55.261  33.798  54.539  0.00  0.00     0.000 A 
ATOM     27  C   UNL d   1      54.568  33.776  54.103  0.00  0.00     0.003 A 
ENDBRANCH  14  22
BRANCH  20  28
ATOM     28  O   UNL d   1      48.877  35.879  52.974  0.00  0.00    -0.328 OA
ATOM     29  C   UNL d   1      48.146  35.726  53.319  0.00  0.00     0.181 C 
ENDBRANCH  20  28
ENDBRANCH   5   6
ENDBRANCH   4   5
ENDBRANCH   2   4
TORSDOF 5
ENDMDL
MODEL 2
REMARK VINA RESULT:      -8.1      1.661      4.930
REMARK  5 active torsions:
REMARK  status: ('A' for Active; 'I' for Inactive)
REMARK    1  A    between atoms: C_16  and  N_5 
REMARK    2  A    between atoms: C_15  and  C_6 
REMARK    3  A    between atoms: C_19  and  C_16 
REMARK    4  A    between atoms: O_20  and  C_17 
REMARK    5  A    between atoms: C_22  and  C_19 
ROOT
ATOM      1  O   UNL d   1      53.107  36.162  54.420  0.00  0.00    -0.326 OA
ATOM      2  C   UNL d   1      53.163  35.686  53.741  0.00  0.00     0.118 C 
ATOM      3  C   UNL d   1      53.053  36.640  55.093  0.00  0.00     0.181 C 
ENDROOT
BRANCH   2   4
ATOM      4  C   UNL d   1      52.991  34.890  53.576  0.00  0.00     0.045 C 
BRANCH   4   5
ATOM      5  C   UNL d   1      52.520  34.494  53.011  0.00  0.00     0.086 C 
BRANCH   5   6
ATOM      6  N   UNL d   1      52.416  33.667  53.073  0.00  0.00    -0.258 N 
ATOM      7  C   UNL d   1      53.044  33.187  53.303  0.00  0.00     0.272 A 
ATOM      8  C   UNL d   1      52.937  32.372  53.362  0.00  0.00     0.137 A 
ATOM      9  O   UNL d   1      53.778  33.519  53.474  0.00  0.00    -0.266 OA
ATOM     10  C   UNL d   1      52.201  32.035  53.191  0.00  0.00     0.192 A 
ATOM     11  C   UNL d   1      53.566  31.889  53.593  0.00  0.00     0.205 A 
ATOM     12  N   UNL d   1      51.575  32.510  52.962  0.00  0.00    -0.204 NA
ATOM     13  O   UNL d   1      52.101  31.223  53.252  0.00  0.00    -0.289 OA
ATOM     14  C   UNL d   1      51.679  33.333  52.901  0.00  0.00     0.152 A 
ATOM     15  C   UNL d   1      52.732  30.745  53.483  0.00  0.00     0.107 A 
ATOM     16  C   UNL d   1      53.462  31.084  53.652  0.00  0.00     0.062 A 
ATOM     17  C   UNL d   1      52.627  29.922  53.543  0.00  0.00     0.049 A 
ATOM     18  C   UNL d   1      54.095  30.604  53.884  0.00  0.00     0.007 A 
ATOM     19  C   UNL d   1      53.987  29.787  53.943  0.00  0.00     0.024 A 
ATOM     20  C   UNL d   1      53.258  29.449  53.774  0.00  0.00     0.096 A 
ATOM     21  O   UNL d   1      54.296  32.228  53.762  0.00  0.00    -0.286 OA
BRANCH  14  22
ATOM     22  C   UNL d   1      51.048  33.811  52.670  0.00  0.00     0.035 A 
ATOM     23  C   UNL d   1      50.510  34.074  53.240  0.00  0.00     0.003 A 
ATOM     24  C   UNL d   1      49.883  34.549  53.008  0.00  0.00     0.000 A 
ATOM     25  C   UNL d   1      49.788  34.763  52.219  0.00  0.00     0.000 A 
ATOM     26  C   UNL d   1      50.327  34.499  51.653  0.00  0.00     0.000 A 
ATOM     27  C   UNL d   1      50.954  34.024  51.882  0.00  0.00     0.003 A 
ENDBRANCH  14  22
BRANCH  20  28
ATOM     28  O   UNL d   1      53.165  28.640  53.836  0.00  0.00    -0.328 OA
ATOM     29  C   UNL d   1      53.343  28.264  54.546  0.00  0.00     0.181 C 
ENDBRANCH  20  28
ENDBRANCH   5   6
ENDBRANCH   4   5
ENDBRANCH   2   4
TORSDOF 5
ENDMDL
MODEL 3
REMARK VINA RESULT:      -7.5      1.317      4.419
REMARK  5 active torsions:
REMARK  status: ('A' for Active; 'I' for Inactive)
REMARK    1  A    between atoms: C_16  and  N_5 
REMARK    2  A    between atoms: C_15  and  C_6 
REMARK    3  A    between atoms: C_19  and  C_16 
REMARK    4  A    between atoms: O_20  and  C_17 
REMARK    5  A    between atoms: C_22  and  C_19 
ROOT
ATOM      1  O   UNL d   1      49.955  34.734  52.286  0.00  0.00    -0.326 OA
ATOM      2  C   UNL d   1      50.761  34.614  52.125  0.00  0.00     0.118 C 
ATOM      3  C   UNL d   1      49.153  34.856  52.444  0.00  0.00     0.181 C 
ENDROOT
BRANCH   2   4
ATOM      4  C   UNL d   1      51.334  34.078  52.398  0.00  0.00     0.045 C 
BRANCH   4   5
ATOM      5  C   UNL d   1      52.107  34.149  52.707  0.00  0.00     0.086 C 
BRANCH   5   6
ATOM      6  N   UNL d   1      52.449  33.498  53.104  0.00  0.00    -0.258 N 
ATOM      7  C   UNL d   1      52.333  32.733  52.823  0.00  0.00     0.272 A 
ATOM      8  C   UNL d   1      52.672  32.095  53.220  0.00  0.00     0.137 A 
ATOM      9  O   UNL d   1      51.879  32.605  52.149  0.00  0.00    -0.266 OA
ATOM     10  C   UNL d   1      53.129  32.220  53.897  0.00  0.00     0.192 A 
ATOM     11  C   UNL d   1      52.556  31.327  52.939  0.00  0.00     0.205 A 
ATOM     12  N   UNL d   1      53.247  32.980  54.179  0.00  0.00    -0.204 NA
ATOM     13  O   UNL d   1      53.465  31.581  54.287  0.00  0.00    -0.289 OA
ATOM     14  C   UNL d   1      52.906  33.627  53.782  0.00  0.00     0.152 A 
ATOM     15  C   UNL d   1      53.346  30.816  54.003  0.00  0.00     0.107 A 
ATOM     16  C   UNL d   1      52.891  30.695  53.329  0.00  0.00     0.062 A 
ATOM     17  C   UNL d   1      53.687  30.170  54.400  0.00  0.00     0.049 A 
ATOM     18  C   UNL d   1      52.772  29.927  53.044  0.00  0.00     0.007 A 
ATOM     19  C   UNL d   1      53.112  29.288  53.441  0.00  0.00     0.024 A 
ATOM     20  C   UNL d   1      53.567  29.408  54.115  0.00  0.00     0.096 A 
ATOM     21  O   UNL d   1      52.102  31.206  52.265  0.00  0.00    -0.286 OA
BRANCH  14  22
ATOM     22  C   UNL d   1      53.025  34.392  54.066  0.00  0.00     0.035 A 
ATOM     23  C   UNL d   1      52.623  34.638  54.746  0.00  0.00     0.003 A 
ATOM     24  C   UNL d   1      52.743  35.399  55.027  0.00  0.00     0.000 A 
ATOM     25  C   UNL d   1      53.255  35.914  54.640  0.00  0.00     0.000 A 
ATOM     26  C   UNL d   1      53.654  35.665  53.961  0.00  0.00     0.000 A 
ATOM     27  C   UNL d   1      53.536  34.906  53.679  0.00  0.00     0.003 A 
ENDBRANCH  14  22
BRANCH  20  28
ATOM     28  O   UNL d   1      53.898  28.768  54.498  0.00  0.00    -0.328 OA
ATOM     29  C   UNL d   1      53.544  28.476  55.181  0.00  0.00     0.181 C 
ENDBRANCH  20  28
ENDBRANCH   5   6
ENDBRANCH   4   5
ENDBRANCH   2   4
TORSDOF 5
ENDMDL
MODEL 4
REMARK VINA RESULT:      -6.3      1.168      2.577
REMARK  5 active torsions:
REMARK  status: ('A' for Active; 'I' for Inactive)
REMARK    1  A    between atoms: C_16  and  N_5 
REMARK    2  A    between atoms: C_15  and  C_6 
REMARK    3  A    between atoms: C_19  and  C_16 
REMARK    4  A    between atoms: O_20  and  C_17 
REMARK    5  A    between atoms: C_22  and  C_19 
ROOT
ATOM      1  O   UNL d   1      55.203  33.710  55.153  0.00  0.00    -0.326 OA
ATOM      2  C   UNL d   1      54.467  33.331  55.213  0.00  0.00     0.118 C 
ATOM      3  C   UNL d   1      55.938  34.087  55.097  0.00  0.00     0.181 C 
ENDROOT
BRANCH   2   4
ATOM      4  C   UNL d   1      53.828  33.219  54.694  0.00  0.00     0.045 C 
BRANCH   4   5
ATOM      5  C   UNL d   1      53.429  32.553  54.385  0.00  0.00     0.086 C 
BRANCH   5   6
ATOM      6  N   UNL d   1      52.788  32.668  53.860  0.00  0.00    -0.258 N 
ATOM      7  C   UNL d   1      52.358  33.369  53.879  0.00  0.00     0.272 A 
ATOM      8  C   UNL d   1      51.727  33.477  53.360  0.00  0.00     0.137 A 
ATOM      9  O   UNL d   1      52.556  33.962  54.415  0.00  0.00    -0.266 OA
ATOM     10  C   UNL d   1      51.525  32.884  52.820  0.00  0.00     0.192 A 
ATOM     11  C   UNL d   1      51.294  34.181  53.378  0.00  0.00     0.205 A 
ATOM     12  N   UNL d   1      51.951  32.186  52.799  0.00  0.00    -0.204 NA
ATOM     13  O   UNL d   1      50.896  32.998  52.306  0.00  0.00    -0.289 OA
ATOM     14  C   UNL d   1      52.589  32.073  53.322  0.00  0.00     0.152 A 
ATOM     15  C   UNL d   1      50.467  33.702  52.328  0.00  0.00     0.107 A 
ATOM     16  C   UNL d   1      50.670  34.289  52.866  0.00  0.00     0.062 A 
ATOM     17  C   UNL d   1      49.829  33.813  51.805  0.00  0.00     0.049 A 
ATOM     18  C   UNL d   1      50.239  34.995  52.887  0.00  0.00     0.007 A 
ATOM     19  C   UNL d   1      49.607  35.103  52.367  0.00  0.00     0.024 A 
ATOM     20  C   UNL d   1      49.404  34.516  51.829  0.00  0.00     0.096 A 
ATOM     21  O   UNL d   1      51.497  34.768  53.916  0.00  0.00    -0.286 OA
BRANCH  14  22
ATOM     22  C   UNL d   1      53.018  31.369  53.300  0.00  0.00     0.035 A 
ATOM     23  C   UNL d   1      52.718  30.700  53.684  0.00  0.00     0.003 A 
ATOM     24  C   UNL d   1      53.147  30.001  53.661  0.00  0.00     0.000 A 
ATOM     25  C   UNL d   1      53.866  29.962  53.262  0.00  0.00     0.000 A 
ATOM     26  C   UNL d   1      54.161  30.632  52.880  0.00  0.00     0.000 A 
ATOM     27  C   UNL d   1      53.736  31.331  52.902  0.00  0.00     0.003 A 
ENDBRANCH  14  22
BRANCH  20  28
ATOM     28  O   UNL d   1      48.776  34.635  51.320  0.00  0.00    -0.328 OA
ATOM     29  C   UNL d   1      48.234  35.234  51.477  0.00  0.00     0.181 C 
ENDBRANCH  20  28
ENDBRANCH   5   6
ENDBRANCH   4   5
ENDBRANCH   2   4
TORSDOF 5
ENDMDL
