MODEL 1
REMARK VINA RESULT:      -8.3      0.000      0.000
REMARK  2 active torsions:
REMARK  status: ('A' for Active; 'I' for Inactive)
REMARK    1  A    between atoms: C_6  and  C_1 
REMARK    2  A    between atoms: C_8  and  C_6 
ROOT
ATOM      1  C   UNL d   1     -48.921  12.390  23.164  0.00  0.00     0.141 A 
ATOM      2  C   UNL d   1     -47.602  12.192  23.307  0.00  0.00     0.064 A 
ATOM      3  C   UNL d   1     -48.346  11.836  23.374  0.00  0.00     0.220 A 
ATOM      4  C   UNL d   1     -47.718  12.968  23.055  0.00  0.00     0.106 A 
ATOM      5  O   UNL d   1     -48.530  13.097  22.964  0.00  0.00    -0.304 OA
ATOM      6  C   UNL d   1     -46.835  11.905  23.445  0.00  0.00     0.008 A 
ATOM      7  C   UNL d   1     -47.069  13.466  22.937  0.00  0.00     0.067 A 
ATOM      8  C   UNL d   1     -46.189  12.402  23.328  0.00  0.00     0.042 A 
ATOM      9  C   UNL d   1     -46.305  13.178  23.075  0.00  0.00     0.198 A 
ATOM     10  O   UNL d   1     -48.493  11.056  23.612  0.00  0.00    -0.284 OA
ATOM     11  O   UNL d   1     -45.660  13.675  22.957  0.00  0.00    -0.286 OA
ATOM     12  C   UNL d   1     -46.723  11.127  23.698  0.00  0.00     0.000 C 
ENDROOT
BRANCH   1  13
ATOM     13  C   UNL d   1     -49.737  12.272  23.151  0.00  0.00     0.053 C 
BRANCH  13  14
ATOM     14  C   UNL d   1     -50.209  12.686  22.620  0.00  0.00     0.102 A 
ATOM     15  O   UNL d   1     -50.270  12.530  21.812  0.00  0.00    -0.305 OA
ATOM     16  C   UNL d   1     -50.802  13.076  21.494  0.00  0.00     0.123 A 
ATOM     17  C   UNL d   1     -51.064  13.561  22.100  0.00  0.00     0.029 A 
ATOM     18  C   UNL d   1     -50.697  13.321  22.803  0.00  0.00     0.027 A 
ENDBRANCH  13  14
ENDBRANCH   1  13
TORSDOF 2
ENDMDL
MODEL 2
REMARK VINA RESULT:      -8.3      1.637      2.428
REMARK  2 active torsions:
REMARK  status: ('A' for Active; 'I' for Inactive)
REMARK    1  A    between atoms: C_6  and  C_1 
REMARK    2  A    between atoms: C_8  and  C_6 
ROOT
ATOM      1  C   UNL d   1     -48.617  14.410  22.809  0.00  0.00     0.141 A 
ATOM      2  C   UNL d   1     -47.742  13.414  23.015  0.00  0.00     0.064 A 
ATOM      3  C   UNL d   1     -47.815  14.216  22.827  0.00  0.00     0.220 A 
ATOM      4  C   UNL d   1     -48.503  13.111  23.113  0.00  0.00     0.106 A 
ATOM      5  O   UNL d   1     -49.047  13.721  22.987  0.00  0.00    -0.304 OA
ATOM      6  C   UNL d   1     -47.080  12.922  23.108  0.00  0.00     0.008 A 
ATOM      7  C   UNL d   1     -48.609  12.314  23.305  0.00  0.00     0.067 A 
ATOM      8  C   UNL d   1     -47.186  12.129  23.300  0.00  0.00     0.042 A 
ATOM      9  C   UNL d   1     -47.947  11.826  23.398  0.00  0.00     0.198 A 
ATOM     10  O   UNL d   1     -47.189  14.741  22.681  0.00  0.00    -0.284 OA
ATOM     11  O   UNL d   1     -48.054  11.033  23.590  0.00  0.00    -0.286 OA
ATOM     12  C   UNL d   1     -46.319  13.229  23.009  0.00  0.00     0.000 C 
ENDROOT
BRANCH   1  13
ATOM     13  C   UNL d   1     -48.942  15.150  22.645  0.00  0.00     0.053 C 
BRANCH  13  14
ATOM     14  C   UNL d   1     -49.686  15.351  22.930  0.00  0.00     0.102 A 
ATOM     15  O   UNL d   1     -50.402  15.200  22.546  0.00  0.00    -0.305 OA
ATOM     16  C   UNL d   1     -51.006  15.493  23.027  0.00  0.00     0.123 A 
ATOM     17  C   UNL d   1     -50.666  15.819  23.698  0.00  0.00     0.029 A 
ATOM     18  C   UNL d   1     -49.843  15.731  23.640  0.00  0.00     0.027 A 
ENDBRANCH  13  14
ENDBRANCH   1  13
TORSDOF 2
ENDMDL
MODEL 3
REMARK VINA RESULT:      -8.0      1.028      1.759
REMARK  2 active torsions:
REMARK  status: ('A' for Active; 'I' for Inactive)
REMARK    1  A    between atoms: C_6  and  C_1 
REMARK    2  A    between atoms: C_8  and  C_6 
ROOT
ATOM      1  C   UNL d   1     -48.539  13.780  22.895  0.00  0.00     0.141 A 
ATOM      2  C   UNL d   1     -47.250  13.419  22.989  0.00  0.00     0.064 A 
ATOM      3  C   UNL d   1     -47.761  14.036  22.786  0.00  0.00     0.220 A 
ATOM      4  C   UNL d   1     -47.714  12.779  23.225  0.00  0.00     0.106 A 
ATOM      5  O   UNL d   1     -48.510  12.995  23.169  0.00  0.00    -0.304 OA
ATOM      6  C   UNL d   1     -46.422  13.361  22.988  0.00  0.00     0.008 A 
ATOM      7  C   UNL d   1     -47.353  12.074  23.462  0.00  0.00     0.067 A 
ATOM      8  C   UNL d   1     -46.064  12.658  23.225  0.00  0.00     0.042 A 
ATOM      9  C   UNL d   1     -46.527  12.018  23.461  0.00  0.00     0.198 A 
ATOM     10  O   UNL d   1     -47.536  14.788  22.517  0.00  0.00    -0.284 OA
ATOM     11  O   UNL d   1     -46.171  11.315  23.698  0.00  0.00    -0.286 OA
ATOM     12  C   UNL d   1     -45.961  14.004  22.751  0.00  0.00     0.000 C 
ENDROOT
BRANCH   1  13
ATOM     13  C   UNL d   1     -49.226  14.217  22.760  0.00  0.00     0.053 C 
BRANCH  13  14
ATOM     14  C   UNL d   1     -49.878  13.866  22.403  0.00  0.00     0.102 A 
ATOM     15  O   UNL d   1     -49.955  13.708  21.596  0.00  0.00    -0.305 OA
ATOM     16  C   UNL d   1     -50.693  13.356  21.483  0.00  0.00     0.123 A 
ATOM     17  C   UNL d   1     -51.064  13.297  22.211  0.00  0.00     0.029 A 
ATOM     18  C   UNL d   1     -50.559  13.614  22.786  0.00  0.00     0.027 A 
ENDBRANCH  13  14
ENDBRANCH   1  13
TORSDOF 2
ENDMDL
MODEL 4
REMARK VINA RESULT:      -7.6      0.840      3.564
REMARK  2 active torsions:
REMARK  status: ('A' for Active; 'I' for Inactive)
REMARK    1  A    between atoms: C_6  and  C_1 
REMARK    2  A    between atoms: C_8  and  C_6 
ROOT
ATOM      1  C   UNL d   1     -48.050  12.528  22.757  0.00  0.00     0.141 A 
ATOM      2  C   UNL d   1     -49.389  12.454  22.715  0.00  0.00     0.064 A 
ATOM      3  C   UNL d   1     -48.713  12.163  23.090  0.00  0.00     0.220 A 
ATOM      4  C   UNL d   1     -49.144  13.002  22.148  0.00  0.00     0.106 A 
ATOM      5  O   UNL d   1     -48.319  13.051  22.170  0.00  0.00    -0.304 OA
ATOM      6  C   UNL d   1     -50.196  12.290  22.818  0.00  0.00     0.008 A 
ATOM      7  C   UNL d   1     -49.704  13.390  21.680  0.00  0.00     0.067 A 
ATOM      8  C   UNL d   1     -50.753  12.676  22.352  0.00  0.00     0.042 A 
ATOM      9  C   UNL d   1     -50.509  13.224  21.785  0.00  0.00     0.198 A 
ATOM     10  O   UNL d   1     -48.696  11.599  23.698  0.00  0.00    -0.284 OA
ATOM     11  O   UNL d   1     -51.064  13.611  21.318  0.00  0.00    -0.286 OA
ATOM     12  C   UNL d   1     -50.437  11.741  23.387  0.00  0.00     0.000 C 
ENDROOT
BRANCH   1  13
ATOM     13  C   UNL d   1     -47.262  12.402  22.964  0.00  0.00     0.053 C 
BRANCH  13  14
ATOM     14  C   UNL d   1     -46.705  12.998  22.863  0.00  0.00     0.102 A 
ATOM     15  O   UNL d   1     -46.657  13.689  23.311  0.00  0.00    -0.305 OA
ATOM     16  C   UNL d   1     -46.020  14.128  23.021  0.00  0.00     0.123 A 
ATOM     17  C   UNL d   1     -45.681  13.711  22.403  0.00  0.00     0.029 A 
ATOM     18  C   UNL d   1     -46.106  13.006  22.302  0.00  0.00     0.027 A 
ENDBRANCH  13  14
ENDBRANCH   1  13
TORSDOF 2
ENDMDL
MODEL 5
REMARK VINA RESULT:      -7.6      1.505      3.833
REMARK  2 active torsions:
REMARK  status: ('A' for Active; 'I' for Inactive)
REMARK    1  A    between atoms: C_6  and  C_1 
REMARK    2  A    between atoms: C_8  and  C_6 
ROOT
ATOM      1  C   UNL d   1     -48.511  13.643  22.238  0.00  0.00     0.141 A 
ATOM      2  C   UNL d   1     -49.761  14.127  22.292  0.00  0.00     0.064 A 
ATOM      3  C   UNL d   1     -49.272  13.569  21.926  0.00  0.00     0.220 A 
ATOM      4  C   UNL d   1     -49.301  14.547  22.832  0.00  0.00     0.106 A 
ATOM      5  O   UNL d   1     -48.528  14.253  22.803  0.00  0.00    -0.304 OA
ATOM      6  C   UNL d   1     -50.567  14.304  22.200  0.00  0.00     0.008 A 
ATOM      7  C   UNL d   1     -49.641  15.148  23.285  0.00  0.00     0.067 A 
ATOM      8  C   UNL d   1     -50.906  14.903  22.652  0.00  0.00     0.042 A 
ATOM      9  C   UNL d   1     -50.445  15.323  23.192  0.00  0.00     0.198 A 
ATOM     10  O   UNL d   1     -49.503  13.025  21.344  0.00  0.00    -0.284 OA
ATOM     11  O   UNL d   1     -50.782  15.922  23.645  0.00  0.00    -0.286 OA
ATOM     12  C   UNL d   1     -51.025  13.881  21.658  0.00  0.00     0.000 C 
ENDROOT
BRANCH   1  13
ATOM     13  C   UNL d   1     -47.849  13.197  22.032  0.00  0.00     0.053 C 
BRANCH  13  14
ATOM     14  C   UNL d   1     -47.341  12.914  22.613  0.00  0.00     0.102 A 
ATOM     15  O   UNL d   1     -47.517  12.312  23.151  0.00  0.00    -0.305 OA
ATOM     16  C   UNL d   1     -46.853  12.207  23.630  0.00  0.00     0.123 A 
ATOM     17  C   UNL d   1     -46.276  12.738  23.391  0.00  0.00     0.029 A 
ATOM     18  C   UNL d   1     -46.578  13.179  22.757  0.00  0.00     0.027 A 
ENDBRANCH  13  14
ENDBRANCH   1  13
TORSDOF 2
ENDMDL
MODEL 6
REMARK VINA RESULT:      -6.9      1.249      2.102
REMARK  2 active torsions:
REMARK  status: ('A' for Active; 'I' for Inactive)
REMARK    1  A    between atoms: C_6  and  C_1 
REMARK    2  A    between atoms: C_8  and  C_6 
ROOT
ATOM      1  C   UNL d   1     -47.686  13.708  22.947  0.00  0.00     0.141 A 
ATOM      2  C   UNL d   1     -46.531  13.027  22.885  0.00  0.00     0.064 A 
ATOM      3  C   UNL d   1     -46.904  13.737  22.683  0.00  0.00     0.220 A 
ATOM      4  C   UNL d   1     -47.085  12.558  23.277  0.00  0.00     0.106 A 
ATOM      5  O   UNL d   1     -47.799  12.972  23.318  0.00  0.00    -0.304 OA
ATOM      6  C   UNL d   1     -45.758  12.751  22.763  0.00  0.00     0.008 A 
ATOM      7  C   UNL d   1     -46.871  11.807  23.549  0.00  0.00     0.067 A 
ATOM      8  C   UNL d   1     -45.546  12.003  23.034  0.00  0.00     0.042 A 
ATOM      9  C   UNL d   1     -46.100  11.533  23.426  0.00  0.00     0.198 A 
ATOM     10  O   UNL d   1     -46.555  14.374  22.281  0.00  0.00    -0.284 OA
ATOM     11  O   UNL d   1     -45.889  10.786  23.698  0.00  0.00    -0.286 OA
ATOM     12  C   UNL d   1     -45.206  13.224  22.371  0.00  0.00     0.000 C 
ENDROOT
BRANCH   1  13
ATOM     13  C   UNL d   1     -48.257  14.297  22.862  0.00  0.00     0.053 C 
BRANCH  13  14
ATOM     14  C   UNL d   1     -49.055  14.116  22.935  0.00  0.00     0.102 A 
ATOM     15  O   UNL d   1     -49.461  14.022  23.648  0.00  0.00    -0.305 OA
ATOM     16  C   UNL d   1     -50.246  13.845  23.464  0.00  0.00     0.123 A 
ATOM     17  C   UNL d   1     -50.322  13.829  22.648  0.00  0.00     0.029 A 
ATOM     18  C   UNL d   1     -49.581  13.998  22.316  0.00  0.00     0.027 A 
ENDBRANCH  13  14
ENDBRANCH   1  13
TORSDOF 2
ENDMDL
MODEL 7
REMARK VINA RESULT:      -6.6      1.093      3.866
REMARK  2 active torsions:
REMARK  status: ('A' for Active; 'I' for Inactive)
REMARK    1  A    between atoms: C_6  and  C_1 
REMARK    2  A    between atoms: C_8  and  C_6 
ROOT
ATOM      1  C   UNL d   1     -48.163  13.570  22.749  0.00  0.00     0.141 A 
ATOM      2  C   UNL d   1     -49.469  13.309  22.590  0.00  0.00     0.064 A 
ATOM      3  C   UNL d   1     -48.869  13.852  22.426  0.00  0.00     0.220 A 
ATOM      4  C   UNL d   1     -49.133  12.687  23.017  0.00  0.00     0.106 A 
ATOM      5  O   UNL d   1     -48.327  12.843  23.117  0.00  0.00    -0.304 OA
ATOM      6  C   UNL d   1     -50.278  13.302  22.406  0.00  0.00     0.008 A 
ATOM      7  C   UNL d   1     -49.604  12.053  23.262  0.00  0.00     0.067 A 
ATOM      8  C   UNL d   1     -50.746  12.670  22.650  0.00  0.00     0.042 A 
ATOM      9  C   UNL d   1     -50.411  12.049  23.077  0.00  0.00     0.198 A 
ATOM     10  O   UNL d   1     -48.955  14.563  22.008  0.00  0.00    -0.284 OA
ATOM     11  O   UNL d   1     -50.877  11.417  23.322  0.00  0.00    -0.286 OA
ATOM     12  C   UNL d   1     -50.611  13.926  21.979  0.00  0.00     0.000 C 
ENDROOT
BRANCH   1  13
ATOM     13  C   UNL d   1     -47.424  13.936  22.716  0.00  0.00     0.053 C 
BRANCH  13  14
ATOM     14  C   UNL d   1     -46.736  13.490  22.776  0.00  0.00     0.102 A 
ATOM     15  O   UNL d   1     -46.555  12.970  23.392  0.00  0.00    -0.305 OA
ATOM     16  C   UNL d   1     -45.815  12.643  23.229  0.00  0.00     0.123 A 
ATOM     17  C   UNL d   1     -45.544  12.957  22.522  0.00  0.00     0.029 A 
ATOM     18  C   UNL d   1     -46.117  13.485  22.238  0.00  0.00     0.027 A 
ENDBRANCH  13  14
ENDBRANCH   1  13
TORSDOF 2
ENDMDL
