MODEL 1
REMARK VINA RESULT:      15.8      0.000      0.000
REMARK  6 active torsions:
REMARK  status: ('A' for Active; 'I' for Inactive)
REMARK    1  A    between atoms: N_2  and  S_1 
REMARK    2  A    between atoms: C_5  and  S_1 
REMARK    3  A    between atoms: C_4  and  C_3 
REMARK       I    between atoms: N_6  and  C_4 
REMARK    4  A    between atoms: C_15  and  N_6 
REMARK    5  A    between atoms: C_9  and  C_10 
REMARK    6  A    between atoms: O_20  and  C_9 
ROOT
ATOM      1  N   UNL d   1     -42.038-122.498 -54.369  0.00  0.00    -0.226 N 
ATOM      2  C   UNL d   1     -42.136-123.133 -53.846  0.00  0.00     0.133 A 
ATOM      3  C   UNL d   1     -42.066-122.789 -55.138  0.00  0.00     0.092 A 
ATOM      4  C   UNL d   1     -42.225-123.817 -54.302  0.00  0.00     0.025 A 
ATOM      5  C   UNL d   1     -42.181-123.601 -55.096  0.00  0.00     0.021 A 
ENDROOT
BRANCH   2   6
ATOM      6  C   UNL d   1     -42.144-123.087 -53.022  0.00  0.00     0.296 C 
ATOM      7  N   UNL d   1     -41.826-123.710 -52.589  0.00  0.00    -0.207 NA
ATOM      8  O   UNL d   1     -42.463-122.430 -52.647  0.00  0.00    -0.264 OA
BRANCH   7   9
ATOM      9  C   UNL d   1     -41.833-123.666 -51.760  0.00  0.00     0.085 A 
ATOM     10  C   UNL d   1     -42.551-123.594 -51.351  0.00  0.00     0.019 A 
ATOM     11  C   UNL d   1     -42.556-123.551 -50.531  0.00  0.00     0.007 A 
ATOM     12  C   UNL d   1     -41.844-123.578 -50.108  0.00  0.00     0.063 A 
ATOM     13  C   UNL d   1     -41.125-123.650 -50.518  0.00  0.00     0.007 A 
ATOM     14  C   UNL d   1     -41.123-123.694 -51.346  0.00  0.00     0.019 A 
BRANCH  12  15
ATOM     15  C   UNL d   1     -41.846-123.535 -49.290  0.00  0.00     0.296 C 
ATOM     16  O   UNL d   1     -41.197-123.814 -48.854  0.00  0.00    -0.259 OA
BRANCH  15  17
ATOM     17  O   UNL d   1     -42.497-123.212 -48.890  0.00  0.00    -0.296 OA
ATOM     18  C   UNL d   1     -42.560-123.281 -48.071  0.00  0.00     0.185 C 
ENDBRANCH  15  17
ENDBRANCH  12  15
ENDBRANCH   7   9
ENDBRANCH   2   6
BRANCH   1  19
ATOM     19  S   UNL d   1     -41.934-121.726 -54.092  0.00  0.00     0.271 S 
ATOM     20  O   UNL d   1     -41.128-121.873 -54.157  0.00  0.00    -0.200 OA
ATOM     21  O   UNL d   1     -42.749-121.588 -54.031  0.00  0.00    -0.200 OA
BRANCH  19  22
ATOM     22  C   UNL d   1     -41.777-120.967 -53.822  0.00  0.00     0.104 A 
ATOM     23  C   UNL d   1     -42.115-120.316 -54.200  0.00  0.00     0.013 A 
ATOM     24  C   UNL d   1     -41.955-119.555 -53.925  0.00  0.00     0.001 A 
ATOM     25  C   UNL d   1     -41.461-119.444 -53.274  0.00  0.00     0.000 A 
ATOM     26  C   UNL d   1     -41.124-120.098 -52.897  0.00  0.00     0.001 A 
ATOM     27  C   UNL d   1     -41.301-118.682 -52.999  0.00  0.00     0.000 C 
ATOM     28  C   UNL d   1     -41.279-120.862 -53.166  0.00  0.00     0.013 A 
ENDBRANCH  19  22
ENDBRANCH   1  19
TORSDOF 6
ENDMDL
