MODEL 1
REMARK VINA RESULT:      46.3      0.000      0.000
REMARK  7 active torsions:
REMARK  status: ('A' for Active; 'I' for Inactive)
REMARK    1  A    between atoms: C_7  and  C_1 
REMARK    2  A    between atoms: S_8  and  C_3 
REMARK       I    between atoms: C_6  and  N_13 
REMARK    3  A    between atoms: C_10  and  C_6 
REMARK    4  A    between atoms: C_20  and  S_8 
REMARK    5  A    between atoms: N_13  and  C_21 
REMARK    6  A    between atoms: O_19  and  C_14 
REMARK    7  A    between atoms: C_21  and  C_20 
ROOT
ATOM      1  C   UNL d   1      13.770  14.092  -4.148  0.00  0.00     0.087 A 
ATOM      2  N   UNL d   1      13.758  14.023  -4.966  0.00  0.00    -0.245 NA
ATOM      3  C   UNL d   1      13.456  13.402  -3.826  0.00  0.00     0.049 A 
ATOM      4  C   UNL d   1      13.248  12.901  -4.441  0.00  0.00     0.025 A 
ATOM      5  C   UNL d   1      13.435  13.285  -5.152  0.00  0.00     0.082 A 
ATOM      6  C   UNL d   1      12.916  12.151  -4.455  0.00  0.00     0.002 A 
ATOM      7  C   UNL d   1      13.288  12.914  -5.875  0.00  0.00     0.019 A 
ATOM      8  C   UNL d   1      12.769  11.780  -5.178  0.00  0.00     0.000 A 
ATOM      9  C   UNL d   1      12.954  12.161  -5.881  0.00  0.00     0.002 A 
ENDROOT
BRANCH   3  10
ATOM     10  S   UNL d   1      13.364  13.238  -3.021  0.00  0.00    -0.083 SA
BRANCH  10  11
ATOM     11  C   UNL d   1      13.393  12.448  -2.757  0.00  0.00     0.056 C 
BRANCH  11  12
ATOM     12  C   UNL d   1      13.738  12.276  -2.026  0.00  0.00     0.109 C 
BRANCH  12  13
ATOM     13  N   UNL d   1      13.266  12.018  -1.414  0.00  0.00    -0.206 NA
ATOM     14  C   UNL d   1      13.547  12.049  -0.642  0.00  0.00     0.279 C 
ATOM     15  O   UNL d   1      13.062  11.785  -0.015  0.00  0.00    -0.265 OA
BRANCH  14  16
ATOM     16  C   UNL d   1      14.305  12.340  -0.486  0.00  0.00     0.058 A 
ATOM     17  C   UNL d   1      14.967  11.846  -0.589  0.00  0.00     0.005 A 
ATOM     18  C   UNL d   1      15.725  12.136  -0.433  0.00  0.00     0.000 A 
ATOM     19  C   UNL d   1      15.822  12.918  -0.175  0.00  0.00     0.000 A 
ATOM     20  C   UNL d   1      15.167  13.407  -0.073  0.00  0.00     0.000 A 
ATOM     21  C   UNL d   1      14.410  13.116  -0.229  0.00  0.00     0.005 A 
ENDBRANCH  14  16
ENDBRANCH  12  13
ENDBRANCH  11  12
ENDBRANCH  10  11
ENDBRANCH   3  10
BRANCH   1  22
ATOM     22  C   UNL d   1      14.055  14.756  -3.760  0.00  0.00     0.018 A 
ATOM     23  C   UNL d   1      14.279  14.707  -2.965  0.00  0.00     0.004 A 
ATOM     24  C   UNL d   1      14.564  15.370  -2.572  0.00  0.00     0.024 A 
ATOM     25  C   UNL d   1      14.628  16.085  -2.973  0.00  0.00     0.094 A 
ATOM     26  C   UNL d   1      14.404  16.138  -3.772  0.00  0.00     0.024 A 
ATOM     27  C   UNL d   1      14.118  15.477  -4.164  0.00  0.00     0.004 A 
BRANCH  25  28
ATOM     28  O   UNL d   1      14.918  16.758  -2.574  0.00  0.00    -0.328 OA
ATOM     29  C   UNL d   1      14.837  16.820  -1.750  0.00  0.00     0.181 C 
ENDBRANCH  25  28
ENDBRANCH   1  22
TORSDOF 7
ENDMDL
MODEL 2
REMARK VINA RESULT:      49.0      1.001      3.479
REMARK  7 active torsions:
REMARK  status: ('A' for Active; 'I' for Inactive)
REMARK    1  A    between atoms: C_7  and  C_1 
REMARK    2  A    between atoms: S_8  and  C_3 
REMARK       I    between atoms: C_6  and  N_13 
REMARK    3  A    between atoms: C_10  and  C_6 
REMARK    4  A    between atoms: C_20  and  S_8 
REMARK    5  A    between atoms: N_13  and  C_21 
REMARK    6  A    between atoms: O_19  and  C_14 
REMARK    7  A    between atoms: C_21  and  C_20 
ROOT
ATOM      1  C   UNL d   1      13.787  12.353  -3.356  0.00  0.00     0.087 A 
ATOM      2  N   UNL d   1      13.395  11.779  -3.793  0.00  0.00    -0.245 NA
ATOM      3  C   UNL d   1      13.866  13.026  -3.826  0.00  0.00     0.049 A 
ATOM      4  C   UNL d   1      13.524  12.873  -4.555  0.00  0.00     0.025 A 
ATOM      5  C   UNL d   1      13.230  12.097  -4.537  0.00  0.00     0.082 A 
ATOM      6  C   UNL d   1      13.438  13.328  -5.232  0.00  0.00     0.002 A 
ATOM      7  C   UNL d   1      12.851  11.783  -5.200  0.00  0.00     0.019 A 
ATOM      8  C   UNL d   1      13.059  13.013  -5.894  0.00  0.00     0.000 A 
ATOM      9  C   UNL d   1      12.769  12.246  -5.875  0.00  0.00     0.002 A 
ENDROOT
BRANCH   3  10
ATOM     10  S   UNL d   1      14.227  13.735  -3.604  0.00  0.00    -0.083 SA
BRANCH  10  11
ATOM     11  C   UNL d   1      13.761  14.417  -3.498  0.00  0.00     0.056 C 
BRANCH  11  12
ATOM     12  C   UNL d   1      14.074  15.064  -3.089  0.00  0.00     0.109 C 
BRANCH  12  13
ATOM     13  N   UNL d   1      14.390  15.686  -3.509  0.00  0.00    -0.206 NA
ATOM     14  C   UNL d   1      14.806  16.275  -3.114  0.00  0.00     0.279 C 
ATOM     15  O   UNL d   1      15.130  16.913  -3.546  0.00  0.00    -0.265 OA
BRANCH  14  16
ATOM     16  C   UNL d   1      14.903  16.238  -2.294  0.00  0.00     0.058 A 
ATOM     17  C   UNL d   1      15.525  15.788  -1.971  0.00  0.00     0.005 A 
ATOM     18  C   UNL d   1      15.622  15.751  -1.151  0.00  0.00     0.000 A 
ATOM     19  C   UNL d   1      15.100  16.161  -0.655  0.00  0.00     0.000 A 
ATOM     20  C   UNL d   1      14.485  16.606  -0.974  0.00  0.00     0.000 A 
ATOM     21  C   UNL d   1      14.388  16.644  -1.793  0.00  0.00     0.005 A 
ENDBRANCH  14  16
ENDBRANCH  12  13
ENDBRANCH  11  12
ENDBRANCH  10  11
ENDBRANCH   3  10
BRANCH   1  22
ATOM     22  C   UNL d   1      14.039  12.234  -2.585  0.00  0.00     0.018 A 
ATOM     23  C   UNL d   1      14.847  12.242  -2.407  0.00  0.00     0.004 A 
ATOM     24  C   UNL d   1      15.104  12.124  -1.636  0.00  0.00     0.024 A 
ATOM     25  C   UNL d   1      14.553  11.996  -1.038  0.00  0.00     0.094 A 
ATOM     26  C   UNL d   1      13.741  11.988  -1.213  0.00  0.00     0.024 A 
ATOM     27  C   UNL d   1      13.484  12.106  -1.983  0.00  0.00     0.004 A 
BRANCH  25  28
ATOM     28  O   UNL d   1      14.815  11.876  -0.254  0.00  0.00    -0.328 OA
ATOM     29  C   UNL d   1      15.555  12.163  -0.014  0.00  0.00     0.181 C 
ENDBRANCH  25  28
ENDBRANCH   1  22
TORSDOF 7
ENDMDL
