MODEL 1
REMARK VINA RESULT:      43.5      0.000      0.000
REMARK  3 active torsions:
REMARK  status: ('A' for Active; 'I' for Inactive)
REMARK       I    between atoms: N_2  and  C_1 
REMARK    1  A    between atoms: C_4  and  C_1 
REMARK    2  A    between atoms: C_3  and  N_2 
REMARK    3  A    between atoms: C_5  and  C_6 
ROOT
ATOM      1  C   UNL d   1     -55.978 -99.145 -44.883  0.00  0.00     0.058 A 
ATOM      2  C   UNL d   1     -57.434 -98.952 -44.213  0.00  0.00    -0.023 A 
ATOM      3  C   UNL d   1     -56.623 -99.298 -45.322  0.00  0.00     0.004 A 
ATOM      4  C   UNL d   1     -56.005 -98.890 -44.098  0.00  0.00     0.004 A 
ATOM      5  C   UNL d   1     -56.754 -98.796 -43.767  0.00  0.00    -0.004 A 
ATOM      6  C   UNL d   1     -57.366 -99.200 -44.980  0.00  0.00    -0.004 A 
ENDROOT
BRANCH   1   7
ATOM      7  C   UNL d   1     -55.228 -99.248 -45.242  0.00  0.00     0.279 C 
ATOM      8  N   UNL d   1     -54.711 -99.846 -44.994  0.00  0.00    -0.207 NA
ATOM      9  O   UNL d   1     -54.994 -98.756 -45.848  0.00  0.00    -0.265 OA
BRANCH   8  10
ATOM     10  C   UNL d   1     -54.944-100.342 -44.386  0.00  0.00     0.095 A 
ATOM     11  C   UNL d   1     -55.092-101.114 -44.523  0.00  0.00     0.075 A 
ATOM     12 CL   UNL d   1     -55.014-101.440 -45.292  0.00  0.00    -0.081 Cl
ATOM     13  C   UNL d   1     -55.330-101.628 -43.908  0.00  0.00     0.013 A 
ATOM     14  C   UNL d   1     -55.408-101.302 -43.139  0.00  0.00     0.001 A 
ATOM     15  C   UNL d   1     -55.253-100.510 -43.012  0.00  0.00     0.002 A 
ATOM     16  C   UNL d   1     -55.027-100.033 -43.611  0.00  0.00     0.020 A 
ENDBRANCH   8  10
ENDBRANCH   1   7
BRANCH   2  17
ATOM     17  C   UNL d   1     -58.176 -98.854 -43.871  0.00  0.00     0.019 C 
ATOM     18  C   UNL d   1     -58.522 -98.866 -44.620  0.00  0.00     0.004 C 
ATOM     19  C   UNL d   1     -57.830 -98.842 -43.125  0.00  0.00     0.004 C 
ATOM     20  C   UNL d   1     -58.920 -98.756 -43.529  0.00  0.00     0.004 C 
ENDBRANCH   2  17
TORSDOF 3
ENDMDL
MODEL 2
REMARK VINA RESULT:      46.2      1.011      1.448
REMARK  3 active torsions:
REMARK  status: ('A' for Active; 'I' for Inactive)
REMARK       I    between atoms: N_2  and  C_1 
REMARK    1  A    between atoms: C_4  and  C_1 
REMARK    2  A    between atoms: C_3  and  N_2 
REMARK    3  A    between atoms: C_5  and  C_6 
ROOT
ATOM      1  C   UNL d   1     -55.916 -99.218 -43.932  0.00  0.00     0.058 A 
ATOM      2  C   UNL d   1     -57.433 -99.006 -44.446  0.00  0.00    -0.023 A 
ATOM      3  C   UNL d   1     -56.514 -99.459 -43.466  0.00  0.00     0.004 A 
ATOM      4  C   UNL d   1     -56.022 -98.862 -44.670  0.00  0.00     0.004 A 
ATOM      5  C   UNL d   1     -56.800 -98.760 -44.922  0.00  0.00    -0.004 A 
ATOM      6  C   UNL d   1     -57.287 -99.351 -43.729  0.00  0.00    -0.004 A 
ENDROOT
BRANCH   1   7
ATOM      7  C   UNL d   1     -55.134 -99.333 -43.655  0.00  0.00     0.279 C 
ATOM      8  N   UNL d   1     -54.712-100.023 -43.832  0.00  0.00    -0.207 NA
ATOM      9  O   UNL d   1     -54.774 -98.760 -43.201  0.00  0.00    -0.265 OA
BRANCH   8  10
ATOM     10  C   UNL d   1     -55.072-100.600 -44.288  0.00  0.00     0.095 A 
ATOM     11  C   UNL d   1     -55.076-101.363 -44.053  0.00  0.00     0.075 A 
ATOM     12 CL   UNL d   1     -54.712-101.596 -43.334  0.00  0.00    -0.081 Cl
ATOM     13  C   UNL d   1     -55.441-101.959 -44.511  0.00  0.00     0.013 A 
ATOM     14  C   UNL d   1     -55.805-101.726 -45.230  0.00  0.00     0.001 A 
ATOM     15  C   UNL d   1     -55.794-100.942 -45.459  0.00  0.00     0.002 A 
ATOM     16  C   UNL d   1     -55.441-100.385 -45.009  0.00  0.00     0.020 A 
ENDBRANCH   8  10
ENDBRANCH   1   7
BRANCH   2  17
ATOM     17  C   UNL d   1     -58.204 -98.899 -44.708  0.00  0.00     0.019 C 
ATOM     18  C   UNL d   1     -57.928 -98.782 -45.476  0.00  0.00     0.004 C 
ATOM     19  C   UNL d   1     -58.480 -99.014 -43.942  0.00  0.00     0.004 C 
ATOM     20  C   UNL d   1     -58.979 -98.790 -44.971  0.00  0.00     0.004 C 
ENDBRANCH   2  17
TORSDOF 3
ENDMDL
