MODEL 1
REMARK VINA RESULT:      46.1      0.000      0.000
REMARK  5 active torsions:
REMARK  status: ('A' for Active; 'I' for Inactive)
REMARK    1  A    between atoms: N_19  and  C_6 
REMARK    2  A    between atoms: N_15  and  C_21 
REMARK    3  A    between atoms: C_25  and  N_19 
REMARK    4  A    between atoms: C_21  and  C_22 
REMARK    5  A    between atoms: C_22  and  C_25 
ROOT
ATOM      1  N   UNL d   1     -50.992  25.563  33.354  0.00  0.00    -0.183 N 
ATOM      2  C   UNL d   1     -51.216  24.769  33.340  0.00  0.00     0.169 A 
ATOM      3  C   UNL d   1     -52.001  24.558  33.342  0.00  0.00     0.073 A 
ATOM      4  C   UNL d   1     -52.563  25.147  33.357  0.00  0.00     0.185 A 
ATOM      5  N   UNL d   1     -52.339  25.941  33.371  0.00  0.00    -0.142 NA
ATOM      6  C   UNL d   1     -50.202  25.753  33.352  0.00  0.00     0.218 A 
ATOM      7  N   UNL d   1     -50.643  24.186  33.325  0.00  0.00    -0.226 NA
ATOM      8  C   UNL d   1     -52.222  23.773  33.328  0.00  0.00     0.007 A 
ATOM      9  N   UNL d   1     -53.363  24.950  33.359  0.00  0.00    -0.225 NA
ATOM     10  C   UNL d   1     -49.632  25.180  33.336  0.00  0.00     0.071 A 
ATOM     11  C   UNL d   1     -53.008  23.563  33.330  0.00  0.00     0.019 A 
ATOM     12  C   UNL d   1     -49.856  24.386  33.323  0.00  0.00     0.087 A 
ATOM     13  C   UNL d   1     -53.586  24.156  33.346  0.00  0.00     0.083 A 
ATOM     14  C   UNL d   1     -51.647  23.189  33.313  0.00  0.00     0.000 C 
ATOM     15  C   UNL d   1     -49.259  23.783  33.307  0.00  0.00     0.021 C 
ATOM     16  C   UNL d   1     -54.370  23.955  33.348  0.00  0.00     0.021 C 
ENDROOT
BRANCH   6  17
ATOM     17  N   UNL d   1     -49.980  26.575  33.366  0.00  0.00    -0.380 NA
BRANCH  17  18
ATOM     18  C   UNL d   1     -49.698  27.372  33.357  0.00  0.00     0.164 C 
BRANCH  18  19
ATOM     19  C   UNL d   1     -49.419  27.726  34.067  0.00  0.00     0.054 C 
BRANCH  19  20
ATOM     20  C   UNL d   1     -48.654  28.063  34.093  0.00  0.00     0.084 C 
BRANCH  20  21
ATOM     21  N   UNL d   1     -48.408  28.512  34.766  0.00  0.00    -0.285 N 
ATOM     22  C   UNL d   1     -48.309  28.225  35.548  0.00  0.00     0.183 A 
ATOM     23  N   UNL d   1     -48.056  28.878  36.036  0.00  0.00    -0.222 NA
ATOM     24  C   UNL d   1     -48.000  29.567  35.549  0.00  0.00     0.120 A 
ATOM     25  C   UNL d   1     -48.219  29.343  34.755  0.00  0.00     0.102 A 
ENDBRANCH  20  21
ENDBRANCH  19  20
ENDBRANCH  18  19
ENDBRANCH  17  18
ENDBRANCH   6  17
TORSDOF 5
ENDMDL
