MODEL 1
REMARK VINA RESULT:      -8.0      0.000      0.000
REMARK  3 active torsions:
REMARK  status: ('A' for Active; 'I' for Inactive)
REMARK    1  A    between atoms: N_3  and  C_1 
REMARK       I    between atoms: C_2  and  N_3 
REMARK       I    between atoms: N_14  and  C_2 
REMARK    2  A    between atoms: C_16  and  N_14 
REMARK    3  A    between atoms: C_17  and  C_16 
ROOT
ATOM      1  C   UNL d   1     -47.495  13.556  23.045  0.00  0.00     0.127 A 
ATOM      2  C   UNL d   1     -47.125  12.534  23.339  0.00  0.00    -0.006 A 
ATOM      3  C   UNL d   1     -46.189  13.817  22.746  0.00  0.00     0.046 A 
ATOM      4  C   UNL d   1     -46.554  12.617  23.219  0.00  0.00    -0.006 A 
ATOM      5  C   UNL d   1     -47.288  12.813  23.269  0.00  0.00    -0.001 A 
ATOM      6  C   UNL d   1     -48.088  13.233  23.251  0.00  0.00    -0.001 A 
ATOM      7  C   UNL d   1     -46.996  13.973  22.821  0.00  0.00     0.040 A 
ATOM      8  C   UNL d   1     -46.451  13.197  23.002  0.00  0.00    -0.022 A 
ATOM      9  C   UNL d   1     -46.014  13.110  22.963  0.00  0.00    -0.022 A 
ATOM     10  C   UNL d   1     -46.364  11.323  23.637  0.00  0.00    -0.001 A 
ENDROOT
BRANCH   1  11
ATOM     11  N   UNL d   1     -47.620  14.433  22.761  0.00  0.00    -0.213 NA
ATOM     12  C   UNL d   1     -48.443  14.696  22.488  0.00  0.00     0.365 C 
ATOM     13  O   UNL d   1     -48.566  15.549  22.212  0.00  0.00    -0.243 OA
ATOM     14  N   UNL d   1     -49.189  14.083  22.486  0.00  0.00    -0.186 NA
BRANCH  14  15
ATOM     15  C   UNL d   1     -50.011  14.374  22.205  0.00  0.00     0.149 C 
BRANCH  15  16
ATOM     16  C   UNL d   1     -50.725  13.805  22.203  0.00  0.00     0.255 C 
ATOM     17  O   UNL d   1     -51.064  13.437  21.405  0.00  0.00    -0.281 OA
ENDBRANCH  15  16
ENDBRANCH  14  15
ENDBRANCH   1  11
TORSDOF 3
ENDMDL
MODEL 2
REMARK VINA RESULT:      -8.0      1.623      3.427
REMARK  3 active torsions:
REMARK  status: ('A' for Active; 'I' for Inactive)
REMARK    1  A    between atoms: N_3  and  C_1 
REMARK       I    between atoms: C_2  and  N_3 
REMARK       I    between atoms: N_14  and  C_2 
REMARK    2  A    between atoms: C_16  and  N_14 
REMARK    3  A    between atoms: C_17  and  C_16 
ROOT
ATOM      1  C   UNL d   1     -48.518  14.139  22.301  0.00  0.00     0.127 A 
ATOM      2  C   UNL d   1     -49.585  13.874  22.056  0.00  0.00    -0.006 A 
ATOM      3  C   UNL d   1     -49.031  15.334  22.716  0.00  0.00     0.046 A 
ATOM      4  C   UNL d   1     -49.836  14.379  22.227  0.00  0.00    -0.006 A 
ATOM      5  C   UNL d   1     -49.259  13.897  22.107  0.00  0.00    -0.001 A 
ATOM      6  C   UNL d   1     -48.457  13.484  22.044  0.00  0.00    -0.001 A 
ATOM      7  C   UNL d   1     -48.449  14.771  22.564  0.00  0.00     0.040 A 
ATOM      8  C   UNL d   1     -49.406  14.782  22.445  0.00  0.00    -0.022 A 
ATOM      9  C   UNL d   1     -49.724  15.085  22.526  0.00  0.00    -0.022 A 
ATOM     10  C   UNL d   1     -51.030  13.820  21.847  0.00  0.00    -0.001 A 
ENDROOT
BRANCH   1  11
ATOM     11  N   UNL d   1     -47.711  14.522  22.559  0.00  0.00    -0.213 NA
ATOM     12  C   UNL d   1     -47.060  13.992  22.899  0.00  0.00     0.365 C 
ATOM     13  O   UNL d   1     -46.274  14.362  23.151  0.00  0.00    -0.243 OA
ATOM     14  N   UNL d   1     -47.189  13.040  22.996  0.00  0.00    -0.186 NA
BRANCH  14  15
ATOM     15  C   UNL d   1     -46.515  12.526  23.342  0.00  0.00     0.149 C 
BRANCH  15  16
ATOM     16  C   UNL d   1     -46.698  11.705  23.698  0.00  0.00     0.255 C 
ATOM     17  O   UNL d   1     -46.061  11.011  23.698  0.00  0.00    -0.281 OA
ENDBRANCH  15  16
ENDBRANCH  14  15
ENDBRANCH   1  11
TORSDOF 3
ENDMDL
MODEL 3
REMARK VINA RESULT:      -7.9      2.322      3.857
REMARK  3 active torsions:
REMARK  status: ('A' for Active; 'I' for Inactive)
REMARK    1  A    between atoms: N_3  and  C_1 
REMARK       I    between atoms: C_2  and  N_3 
REMARK       I    between atoms: N_14  and  C_2 
REMARK    2  A    between atoms: C_16  and  N_14 
REMARK    3  A    between atoms: C_17  and  C_16 
ROOT
ATOM      1  C   UNL d   1     -46.972  13.486  23.111  0.00  0.00     0.127 A 
ATOM      2  C   UNL d   1     -47.570  14.361  22.729  0.00  0.00    -0.006 A 
ATOM      3  C   UNL d   1     -48.178  12.853  23.210  0.00  0.00     0.046 A 
ATOM      4  C   UNL d   1     -48.104  14.114  22.760  0.00  0.00    -0.006 A 
ATOM      5  C   UNL d   1     -47.347  14.140  22.833  0.00  0.00    -0.001 A 
ATOM      6  C   UNL d   1     -46.473  13.970  22.990  0.00  0.00    -0.001 A 
ATOM      7  C   UNL d   1     -47.360  12.940  23.268  0.00  0.00     0.040 A 
ATOM      8  C   UNL d   1     -48.069  13.526  22.978  0.00  0.00    -0.022 A 
ATOM      9  C   UNL d   1     -48.512  13.482  22.946  0.00  0.00    -0.022 A 
ATOM     10  C   UNL d   1     -48.590  15.303  22.276  0.00  0.00    -0.001 A 
ENDROOT
BRANCH   1  11
ATOM     11  N   UNL d   1     -46.647  12.679  23.440  0.00  0.00    -0.213 NA
ATOM     12  C   UNL d   1     -45.843  12.377  23.152  0.00  0.00     0.365 C 
ATOM     13  O   UNL d   1     -45.524  11.593  23.470  0.00  0.00    -0.243 OA
ATOM     14  N   UNL d   1     -45.320  12.878  22.511  0.00  0.00    -0.186 NA
BRANCH  14  15
ATOM     15  C   UNL d   1     -44.511  12.550  22.237  0.00  0.00     0.149 C 
BRANCH  15  16
ATOM     16  C   UNL d   1     -44.082  12.924  21.521  0.00  0.00     0.255 C 
ATOM     17  O   UNL d   1     -43.275  12.572  21.188  0.00  0.00    -0.281 OA
ENDBRANCH  15  16
ENDBRANCH  14  15
ENDBRANCH   1  11
TORSDOF 3
ENDMDL
