MODEL 1
REMARK VINA RESULT:      -5.2      0.000      0.000
REMARK  3 active torsions:
REMARK  status: ('A' for Active; 'I' for Inactive)
REMARK    1  A    between atoms: C_12  and  C_4 
REMARK    2  A    between atoms: O_13  and  C_7 
REMARK    3  A    between atoms: O_14  and  C_10 
ROOT
ATOM      1  C   UNL d   1      58.575  -0.662  29.868  0.00  0.00     0.084 A 
ATOM      2  C   UNL d   1      58.497   0.039  30.295  0.00  0.00     0.201 A 
ATOM      3  C   UNL d   1      57.938   0.084  30.900  0.00  0.00     0.067 A 
ATOM      4  C   UNL d   1      57.459  -0.570  31.076  0.00  0.00     0.103 A 
ATOM      5  C   UNL d   1      58.097  -1.315  30.044  0.00  0.00     0.107 A 
ATOM      6  O   UNL d   1      57.540  -1.267  30.648  0.00  0.00    -0.307 OA
ATOM      7  C   UNL d   1      59.134  -0.706  29.263  0.00  0.00     0.101 A 
ATOM      8  C   UNL d   1      58.180  -2.009  29.614  0.00  0.00     0.049 A 
ATOM      9  C   UNL d   1      59.212  -1.407  28.835  0.00  0.00     0.049 A 
ATOM     10  C   UNL d   1      58.740  -2.053  29.009  0.00  0.00     0.098 A 
ATOM     11  O   UNL d   1      58.972   0.682  30.117  0.00  0.00    -0.286 OA
ENDROOT
BRANCH   4  12
ATOM     12  C   UNL d   1      56.906  -0.518  31.679  0.00  0.00     0.023 A 
ATOM     13  C   UNL d   1      56.646   0.216  31.929  0.00  0.00     0.002 A 
ATOM     14  C   UNL d   1      56.089   0.277  32.535  0.00  0.00     0.000 A 
ATOM     15  C   UNL d   1      55.791  -0.415  32.893  0.00  0.00     0.000 A 
ATOM     16  C   UNL d   1      56.057  -1.144  32.636  0.00  0.00     0.000 A 
ATOM     17  C   UNL d   1      56.614  -1.205  32.030  0.00  0.00     0.002 A 
ENDBRANCH   4  12
BRANCH   7  18
ATOM     18  O   UNL d   1      59.607  -0.061  29.089  0.00  0.00    -0.328 OA
ATOM     19  C   UNL d   1      60.210  -0.135  28.538  0.00  0.00     0.181 C 
ENDBRANCH   7  18
BRANCH  10  20
ATOM     20  O   UNL d   1      58.818  -2.755  28.581  0.00  0.00    -0.328 OA
ATOM     21  C   UNL d   1      59.142  -3.418  28.949  0.00  0.00     0.181 C 
ENDBRANCH  10  20
TORSDOF 3
ENDMDL
MODEL 2
REMARK VINA RESULT:      -4.6      1.197      1.810
REMARK  3 active torsions:
REMARK  status: ('A' for Active; 'I' for Inactive)
REMARK    1  A    between atoms: C_12  and  C_4 
REMARK    2  A    between atoms: O_13  and  C_7 
REMARK    3  A    between atoms: O_14  and  C_10 
ROOT
ATOM      1  C   UNL d   1      58.500   0.229  31.188  0.00  0.00     0.084 A 
ATOM      2  C   UNL d   1      58.505   0.402  31.994  0.00  0.00     0.201 A 
ATOM      3  C   UNL d   1      57.817   0.292  32.436  0.00  0.00     0.067 A 
ATOM      4  C   UNL d   1      57.128   0.009  32.074  0.00  0.00     0.103 A 
ATOM      5  C   UNL d   1      57.810  -0.054  30.825  0.00  0.00     0.107 A 
ATOM      6  O   UNL d   1      57.126  -0.163  31.269  0.00  0.00    -0.307 OA
ATOM      7  C   UNL d   1      59.187   0.340  30.746  0.00  0.00     0.101 A 
ATOM      8  C   UNL d   1      57.813  -0.224  30.023  0.00  0.00     0.049 A 
ATOM      9  C   UNL d   1      59.182   0.166  29.940  0.00  0.00     0.049 A 
ATOM     10  C   UNL d   1      58.501  -0.113  29.582  0.00  0.00     0.098 A 
ATOM     11  O   UNL d   1      59.188   0.682  32.348  0.00  0.00    -0.286 OA
ENDROOT
BRANCH   4  12
ATOM     12  C   UNL d   1      56.448  -0.099  32.520  0.00  0.00     0.023 A 
ATOM     13  C   UNL d   1      56.224  -0.853  32.742  0.00  0.00     0.002 A 
ATOM     14  C   UNL d   1      55.541  -0.970  33.191  0.00  0.00     0.000 A 
ATOM     15  C   UNL d   1      55.079  -0.314  33.417  0.00  0.00     0.000 A 
ATOM     16  C   UNL d   1      55.312   0.437  33.190  0.00  0.00     0.000 A 
ATOM     17  C   UNL d   1      55.994   0.553  32.742  0.00  0.00     0.002 A 
ENDBRANCH   4  12
BRANCH   7  18
ATOM     18  O   UNL d   1      59.868   0.619  31.105  0.00  0.00    -0.328 OA
ATOM     19  C   UNL d   1      60.573   0.634  30.685  0.00  0.00     0.181 C 
ENDBRANCH   7  18
BRANCH  10  20
ATOM     20  O   UNL d   1      58.496  -0.287  28.774  0.00  0.00    -0.328 OA
ATOM     21  C   UNL d   1      58.568  -1.072  28.529  0.00  0.00     0.181 C 
ENDBRANCH  10  20
TORSDOF 3
ENDMDL
MODEL 3
REMARK VINA RESULT:      -4.2      0.898      2.077
REMARK  3 active torsions:
REMARK  status: ('A' for Active; 'I' for Inactive)
REMARK    1  A    between atoms: C_12  and  C_4 
REMARK    2  A    between atoms: O_13  and  C_7 
REMARK    3  A    between atoms: O_14  and  C_10 
ROOT
ATOM      1  C   UNL d   1      58.130  -0.715  30.407  0.00  0.00     0.084 A 
ATOM      2  C   UNL d   1      57.532  -1.184  30.726  0.00  0.00     0.201 A 
ATOM      3  C   UNL d   1      57.094  -0.903  31.366  0.00  0.00     0.067 A 
ATOM      4  C   UNL d   1      57.255  -0.156  31.686  0.00  0.00     0.103 A 
ATOM      5  C   UNL d   1      58.291   0.032  30.728  0.00  0.00     0.107 A 
ATOM      6  O   UNL d   1      57.853   0.310  31.366  0.00  0.00    -0.307 OA
ATOM      7  C   UNL d   1      58.568  -0.996  29.767  0.00  0.00     0.101 A 
ATOM      8  C   UNL d   1      58.888   0.494  30.406  0.00  0.00     0.049 A 
ATOM      9  C   UNL d   1      59.167  -0.527  29.449  0.00  0.00     0.049 A 
ATOM     10  C   UNL d   1      59.325   0.212  29.766  0.00  0.00     0.098 A 
ATOM     11  O   UNL d   1      57.377  -1.922  30.406  0.00  0.00    -0.286 OA
ENDROOT
BRANCH   4  12
ATOM     12  C   UNL d   1      56.816   0.117  32.323  0.00  0.00     0.023 A 
ATOM     13  C   UNL d   1      57.136   0.098  33.075  0.00  0.00     0.002 A 
ATOM     14  C   UNL d   1      56.701   0.370  33.721  0.00  0.00     0.000 A 
ATOM     15  C   UNL d   1      55.930   0.667  33.603  0.00  0.00     0.000 A 
ATOM     16  C   UNL d   1      55.618   0.682  32.847  0.00  0.00     0.000 A 
ATOM     17  C   UNL d   1      56.054   0.409  32.202  0.00  0.00     0.002 A 
ENDBRANCH   4  12
BRANCH   7  18
ATOM     18  O   UNL d   1      58.409  -1.734  29.451  0.00  0.00    -0.328 OA
ATOM     19  C   UNL d   1      58.874  -2.024  28.841  0.00  0.00     0.181 C 
ENDBRANCH   7  18
BRANCH  10  20
ATOM     20  O   UNL d   1      59.925   0.682  29.447  0.00  0.00    -0.328 OA
ATOM     21  C   UNL d   1      60.702   0.575  29.704  0.00  0.00     0.181 C 
ENDBRANCH  10  20
TORSDOF 3
ENDMDL
MODEL 4
REMARK VINA RESULT:      -3.8      1.708      4.381
REMARK  3 active torsions:
REMARK  status: ('A' for Active; 'I' for Inactive)
REMARK    1  A    between atoms: C_12  and  C_4 
REMARK    2  A    between atoms: O_13  and  C_7 
REMARK    3  A    between atoms: O_14  and  C_10 
ROOT
ATOM      1  C   UNL d   1      56.930  -0.598  32.017  0.00  0.00     0.084 A 
ATOM      2  C   UNL d   1      57.020  -1.028  31.320  0.00  0.00     0.201 A 
ATOM      3  C   UNL d   1      57.557  -0.768  30.750  0.00  0.00     0.067 A 
ATOM      4  C   UNL d   1      58.002  -0.080  30.878  0.00  0.00     0.103 A 
ATOM      5  C   UNL d   1      57.375   0.089  32.145  0.00  0.00     0.107 A 
ATOM      6  O   UNL d   1      57.909   0.346  31.575  0.00  0.00    -0.307 OA
ATOM      7  C   UNL d   1      56.393  -0.859  32.587  0.00  0.00     0.101 A 
ATOM      8  C   UNL d   1      57.279   0.512  32.842  0.00  0.00     0.049 A 
ATOM      9  C   UNL d   1      56.303  -0.429  33.285  0.00  0.00     0.049 A 
ATOM     10  C   UNL d   1      56.742   0.251  33.411  0.00  0.00     0.098 A 
ATOM     11  O   UNL d   1      56.579  -1.707  31.198  0.00  0.00    -0.286 OA
ENDROOT
BRANCH   4  12
ATOM     12  C   UNL d   1      58.533   0.173  30.307  0.00  0.00     0.023 A 
ATOM     13  C   UNL d   1      59.315   0.303  30.510  0.00  0.00     0.002 A 
ATOM     14  C   UNL d   1      59.857   0.557  29.942  0.00  0.00     0.000 A 
ATOM     15  C   UNL d   1      59.603   0.682  29.157  0.00  0.00     0.000 A 
ATOM     16  C   UNL d   1      58.819   0.549  28.964  0.00  0.00     0.000 A 
ATOM     17  C   UNL d   1      58.278   0.294  29.532  0.00  0.00     0.002 A 
ENDBRANCH   4  12
BRANCH   7  18
ATOM     18  O   UNL d   1      55.954  -1.538  32.460  0.00  0.00    -0.328 OA
ATOM     19  C   UNL d   1      55.510  -1.856  33.073  0.00  0.00     0.181 C 
ENDBRANCH   7  18
BRANCH  10  20
ATOM     20  O   UNL d   1      56.652   0.682  34.110  0.00  0.00    -0.328 OA
ATOM     21  C   UNL d   1      57.259   0.678  34.668  0.00  0.00     0.181 C 
ENDBRANCH  10  20
TORSDOF 3
ENDMDL
MODEL 5
REMARK VINA RESULT:      -3.8      1.741      4.347
REMARK  3 active torsions:
REMARK  status: ('A' for Active; 'I' for Inactive)
REMARK    1  A    between atoms: C_12  and  C_4 
REMARK    2  A    between atoms: O_13  and  C_7 
REMARK    3  A    between atoms: O_14  and  C_10 
ROOT
ATOM      1  C   UNL d   1      57.252   0.286  32.695  0.00  0.00     0.084 A 
ATOM      2  C   UNL d   1      58.038   0.426  32.488  0.00  0.00     0.201 A 
ATOM      3  C   UNL d   1      58.279   0.306  31.709  0.00  0.00     0.067 A 
ATOM      4  C   UNL d   1      57.737   0.047  31.138  0.00  0.00     0.103 A 
ATOM      5  C   UNL d   1      56.709   0.027  32.124  0.00  0.00     0.107 A 
ATOM      6  O   UNL d   1      56.953  -0.092  31.347  0.00  0.00    -0.307 OA
ATOM      7  C   UNL d   1      57.010   0.406  33.474  0.00  0.00     0.101 A 
ATOM      8  C   UNL d   1      55.929  -0.110  32.336  0.00  0.00     0.049 A 
ATOM      9  C   UNL d   1      56.224   0.266  33.680  0.00  0.00     0.049 A 
ATOM     10  C   UNL d   1      55.688   0.011  33.116  0.00  0.00     0.098 A 
ATOM     11  O   UNL d   1      58.570   0.681  33.056  0.00  0.00    -0.286 OA
ENDROOT
BRANCH   4  12
ATOM     12  C   UNL d   1      57.984  -0.070  30.365  0.00  0.00     0.023 A 
ATOM     13  C   UNL d   1      57.953   0.548  29.831  0.00  0.00     0.002 A 
ATOM     14  C   UNL d   1      58.200   0.439  29.051  0.00  0.00     0.000 A 
ATOM     15  C   UNL d   1      58.483  -0.308  28.809  0.00  0.00     0.000 A 
ATOM     16  C   UNL d   1      58.510  -0.920  29.351  0.00  0.00     0.000 A 
ATOM     17  C   UNL d   1      58.263  -0.811  30.130  0.00  0.00     0.002 A 
ENDBRANCH   4  12
BRANCH   7  18
ATOM     18  O   UNL d   1      57.546   0.662  34.038  0.00  0.00    -0.328 OA
ATOM     19  C   UNL d   1      57.328   0.679  34.828  0.00  0.00     0.181 C 
ENDBRANCH   7  18
BRANCH  10  20
ATOM     20  O   UNL d   1      54.901  -0.129  33.323  0.00  0.00    -0.328 OA
ATOM     21  C   UNL d   1      54.513   0.402  33.820  0.00  0.00     0.181 C 
ENDBRANCH  10  20
TORSDOF 3
ENDMDL
MODEL 6
REMARK VINA RESULT:      -3.2      1.893      2.805
REMARK  3 active torsions:
REMARK  status: ('A' for Active; 'I' for Inactive)
REMARK    1  A    between atoms: C_12  and  C_4 
REMARK    2  A    between atoms: O_13  and  C_7 
REMARK    3  A    between atoms: O_14  and  C_10 
ROOT
ATOM      1  C   UNL d   1      57.926   0.656  32.023  0.00  0.00     0.084 A 
ATOM      2  C   UNL d   1      58.009   0.670  32.843  0.00  0.00     0.201 A 
ATOM      3  C   UNL d   1      57.335   0.672  33.318  0.00  0.00     0.067 A 
ATOM      4  C   UNL d   1      56.580   0.661  32.974  0.00  0.00     0.103 A 
ATOM      5  C   UNL d   1      57.172   0.645  31.679  0.00  0.00     0.107 A 
ATOM      6  O   UNL d   1      56.501   0.647  32.156  0.00  0.00    -0.307 OA
ATOM      7  C   UNL d   1      58.600   0.654  31.548  0.00  0.00     0.101 A 
ATOM      8  C   UNL d   1      57.097   0.631  30.862  0.00  0.00     0.049 A 
ATOM      9  C   UNL d   1      58.517   0.640  30.728  0.00  0.00     0.049 A 
ATOM     10  C   UNL d   1      57.772   0.629  30.388  0.00  0.00     0.098 A 
ATOM     11  O   UNL d   1      58.756   0.681  33.179  0.00  0.00    -0.286 OA
ENDROOT
BRANCH   4  12
ATOM     12  C   UNL d   1      55.915   0.663  33.453  0.00  0.00     0.023 A 
ATOM     13  C   UNL d   1      56.000   0.658  34.267  0.00  0.00     0.002 A 
ATOM     14  C   UNL d   1      55.335   0.660  34.755  0.00  0.00     0.000 A 
ATOM     15  C   UNL d   1      54.573   0.668  34.416  0.00  0.00     0.000 A 
ATOM     16  C   UNL d   1      54.498   0.674  33.601  0.00  0.00     0.000 A 
ATOM     17  C   UNL d   1      55.163   0.671  33.112  0.00  0.00     0.002 A 
ENDBRANCH   4  12
BRANCH   7  18
ATOM     18  O   UNL d   1      59.345   0.665  31.888  0.00  0.00    -0.328 OA
ATOM     19  C   UNL d   1      60.011   0.671  31.409  0.00  0.00     0.181 C 
ENDBRANCH   7  18
BRANCH  10  20
ATOM     20  O   UNL d   1      57.689   0.615  29.566  0.00  0.00    -0.328 OA
ATOM     21  C   UNL d   1      58.089   0.041  29.129  0.00  0.00     0.181 C 
ENDBRANCH  10  20
TORSDOF 3
ENDMDL
MODEL 7
REMARK VINA RESULT:      -2.4      9.010      9.334
REMARK  3 active torsions:
REMARK  status: ('A' for Active; 'I' for Inactive)
REMARK    1  A    between atoms: C_12  and  C_4 
REMARK    2  A    between atoms: O_13  and  C_7 
REMARK    3  A    between atoms: O_14  and  C_10 
ROOT
ATOM      1  C   UNL d   1      59.587  -9.628  32.242  0.00  0.00     0.084 A 
ATOM      2  C   UNL d   1      60.311  -9.567  32.632  0.00  0.00     0.201 A 
ATOM      3  C   UNL d   1      60.322  -9.441  33.447  0.00  0.00     0.067 A 
ATOM      4  C   UNL d   1      59.612  -9.377  33.870  0.00  0.00     0.103 A 
ATOM      5  C   UNL d   1      58.877  -9.564  32.665  0.00  0.00     0.107 A 
ATOM      6  O   UNL d   1      58.891  -9.438  33.477  0.00  0.00    -0.307 OA
ATOM      7  C   UNL d   1      59.575  -9.754  31.427  0.00  0.00     0.101 A 
ATOM      8  C   UNL d   1      58.161  -9.626  32.270  0.00  0.00     0.049 A 
ATOM      9  C   UNL d   1      58.852  -9.815  31.036  0.00  0.00     0.049 A 
ATOM     10  C   UNL d   1      58.150  -9.751  31.454  0.00  0.00     0.098 A 
ATOM     11  O   UNL d   1      61.009  -9.632  32.210  0.00  0.00    -0.286 OA
ENDROOT
BRANCH   4  12
ATOM     12  C   UNL d   1      59.631  -9.252  34.680  0.00  0.00     0.023 A 
ATOM     13  C   UNL d   1      59.227  -9.759  35.179  0.00  0.00     0.002 A 
ATOM     14  C   UNL d   1      59.241  -9.640  35.995  0.00  0.00     0.000 A 
ATOM     15  C   UNL d   1      59.670  -8.999  36.311  0.00  0.00     0.000 A 
ATOM     16  C   UNL d   1      60.071  -8.497  35.804  0.00  0.00     0.000 A 
ATOM     17  C   UNL d   1      60.057  -8.615  34.988  0.00  0.00     0.002 A 
ENDBRANCH   4  12
BRANCH   7  18
ATOM     18  O   UNL d   1      60.277  -9.818  31.009  0.00  0.00    -0.328 OA
ATOM     19  C   UNL d   1      60.269  -9.767  30.190  0.00  0.00     0.181 C 
ENDBRANCH   7  18
BRANCH  10  20
ATOM     20  O   UNL d   1      57.425  -9.813  31.064  0.00  0.00    -0.328 OA
ATOM     21  C   UNL d   1      56.735  -9.585  31.455  0.00  0.00     0.181 C 
ENDBRANCH  10  20
TORSDOF 3
ENDMDL
