MODEL 1
REMARK VINA RESULT:      17.4      0.000      0.000
REMARK  4 active torsions:
REMARK  status: ('A' for Active; 'I' for Inactive)
REMARK    1  A    between atoms: C_3  and  N_1 
REMARK    2  A    between atoms: C_2  and  C_7 
REMARK       I    between atoms: N_4  and  C_2 
REMARK    3  A    between atoms: C_15  and  N_4 
REMARK    4  A    between atoms: C_8  and  C_15 
ROOT
ATOM      1  C   UNL d   1      14.263  12.447  -1.980  0.00  0.00     0.127 A 
ATOM      2  C   UNL d   1      13.436  12.491  -3.401  0.00  0.00     0.058 A 
ATOM      3  C   UNL d   1      13.820  13.113  -2.194  0.00  0.00     0.024 A 
ATOM      4  C   UNL d   1      14.284  11.779  -2.514  0.00  0.00     0.024 A 
ATOM      5  C   UNL d   1      13.870  11.817  -3.210  0.00  0.00     0.006 A 
ATOM      6  C   UNL d   1      13.416  13.122  -2.897  0.00  0.00     0.006 A 
ENDROOT
BRANCH   2   7
ATOM      7  C   UNL d   1      13.023  12.493  -4.127  0.00  0.00     0.279 C 
ATOM      8  N   UNL d   1      12.860  13.201  -4.528  0.00  0.00    -0.200 NA
ATOM      9  O   UNL d   1      12.773  11.792  -4.456  0.00  0.00    -0.265 OA
BRANCH   8  10
ATOM     10  C   UNL d   1      13.118  13.930  -4.191  0.00  0.00     0.172 C 
BRANCH  10  11
ATOM     11  C   UNL d   1      13.234  14.583  -4.665  0.00  0.00     0.231 C 
ATOM     12  O   UNL d   1      13.820  14.562  -5.260  0.00  0.00    -0.643 OA
ATOM     13  O   UNL d   1      12.781  15.245  -4.555  0.00  0.00    -0.643 OA
ENDBRANCH  10  11
ENDBRANCH   8  10
ENDBRANCH   2   7
BRANCH   1  14
ATOM     14  N   UNL d   1      14.692  12.413  -1.253  0.00  0.00    -0.114 N 
ATOM     15  O   UNL d   1      15.405  12.843  -1.145  0.00  0.00    -0.532 OA
ATOM     16  O   UNL d   1      14.397  11.943  -0.635  0.00  0.00    -0.532 OA
ENDBRANCH   1  14
TORSDOF 4
ENDMDL
MODEL 2
REMARK VINA RESULT:      19.5      1.149      3.333
REMARK  4 active torsions:
REMARK  status: ('A' for Active; 'I' for Inactive)
REMARK    1  A    between atoms: C_3  and  N_1 
REMARK    2  A    between atoms: C_2  and  C_7 
REMARK       I    between atoms: N_4  and  C_2 
REMARK    3  A    between atoms: C_15  and  N_4 
REMARK    4  A    between atoms: C_8  and  C_15 
ROOT
ATOM      1  C   UNL d   1      13.601  14.627  -4.112  0.00  0.00     0.127 A 
ATOM      2  C   UNL d   1      13.327  13.034  -3.803  0.00  0.00     0.058 A 
ATOM      3  C   UNL d   1      14.146  14.177  -3.680  0.00  0.00     0.024 A 
ATOM      4  C   UNL d   1      12.889  14.247  -4.396  0.00  0.00     0.024 A 
ATOM      5  C   UNL d   1      12.770  13.461  -4.235  0.00  0.00     0.006 A 
ATOM      6  C   UNL d   1      14.000  13.393  -3.535  0.00  0.00     0.006 A 
ENDROOT
BRANCH   2   7
ATOM      7  C   UNL d   1      13.169  12.227  -3.658  0.00  0.00     0.279 C 
ATOM      8  N   UNL d   1      13.403  11.863  -2.950  0.00  0.00    -0.200 NA
ATOM      9  O   UNL d   1      12.778  11.781  -4.215  0.00  0.00    -0.265 OA
BRANCH   8  10
ATOM     10  C   UNL d   1      13.809  12.321  -2.370  0.00  0.00     0.172 C 
BRANCH  10  11
ATOM     11  C   UNL d   1      14.038  11.982  -1.665  0.00  0.00     0.231 C 
ATOM     12  O   UNL d   1      14.850  11.847  -1.517  0.00  0.00    -0.643 OA
ATOM     13  O   UNL d   1      13.480  11.780  -1.116  0.00  0.00    -0.643 OA
ENDBRANCH  10  11
ENDBRANCH   8  10
ENDBRANCH   2   7
BRANCH   1  14
ATOM     14  N   UNL d   1      13.731  15.445  -4.276  0.00  0.00    -0.114 N 
ATOM     15  O   UNL d   1      13.282  15.852  -4.858  0.00  0.00    -0.532 OA
ATOM     16  O   UNL d   1      14.316  15.851  -3.850  0.00  0.00    -0.532 OA
ENDBRANCH   1  14
TORSDOF 4
ENDMDL
