MODEL 1
REMARK VINA RESULT:      -5.3      0.000      0.000
REMARK  6 active torsions:
REMARK  status: ('A' for Active; 'I' for Inactive)
REMARK    1  A    between atoms: C_6  and  N_2 
REMARK    2  A    between atoms: C_7  and  C_6 
REMARK    3  A    between atoms: C_8  and  C_7 
REMARK       I    between atoms: N_13  and  C_8 
REMARK    4  A    between atoms: C_10  and  C_17 
REMARK    5  A    between atoms: C_14  and  N_13 
REMARK    6  A    between atoms: C_17  and  C_14 
ROOT
ATOM      1  C   UNL d   1     -41.767-122.900 -50.594  0.00  0.00     0.082 C 
ENDROOT
BRANCH   1   2
ATOM      2  C   UNL d   1     -41.991-123.527 -50.112  0.00  0.00     0.088 C 
BRANCH   2   3
ATOM      3  N   UNL d   1     -42.368-123.385 -49.394  0.00  0.00    -0.268 N 
ATOM      4  C   UNL d   1     -43.136-123.108 -49.296  0.00  0.00     0.296 A 
ATOM      5  S   UNL d   1     -43.269-123.052 -48.451  0.00  0.00    -0.025 SA
ATOM      6  O   UNL d   1     -43.664-122.923 -49.902  0.00  0.00    -0.259 OA
ATOM      7  C   UNL d   1     -42.605-123.287 -48.085  0.00  0.00     0.050 A 
ATOM      8  C   UNL d   1     -42.431-123.343 -47.277  0.00  0.00     0.008 A 
ATOM      9  C   UNL d   1     -42.037-123.497 -48.645  0.00  0.00     0.073 A 
ATOM     10  C   UNL d   1     -41.684-123.609 -47.030  0.00  0.00     0.001 A 
ATOM     11  C   UNL d   1     -41.123-123.816 -47.600  0.00  0.00     0.002 A 
ATOM     12  C   UNL d   1     -41.301-123.759 -48.405  0.00  0.00     0.018 A 
ENDBRANCH   2   3
ENDBRANCH   1   2
BRANCH   1  13
ATOM     13  C   UNL d   1     -41.530-123.035 -51.372  0.00  0.00     0.281 C 
ATOM     14  O   UNL d   1     -41.125-123.728 -51.563  0.00  0.00    -0.265 OA
ATOM     15  N   UNL d   1     -41.693-122.483 -51.959  0.00  0.00    -0.206 NA
BRANCH  15  16
ATOM     16  C   UNL d   1     -41.456-122.619 -52.732  0.00  0.00     0.102 C 
BRANCH  16  17
ATOM     17  C   UNL d   1     -41.462-122.008 -53.282  0.00  0.00     0.021 C 
BRANCH  17  18
ATOM     18  C   UNL d   1     -41.698-122.146 -54.060  0.00  0.00     0.002 A 
ATOM     19  C   UNL d   1     -42.257-121.639 -54.416  0.00  0.00     0.000 A 
ATOM     20  C   UNL d   1     -42.492-121.780 -55.199  0.00  0.00     0.000 A 
ATOM     21  C   UNL d   1     -42.179-122.412 -55.620  0.00  0.00     0.000 A 
ATOM     22  C   UNL d   1     -41.625-122.913 -55.261  0.00  0.00     0.000 A 
ATOM     23  C   UNL d   1     -41.377-122.792 -54.487  0.00  0.00     0.000 A 
ENDBRANCH  17  18
ENDBRANCH  16  17
ENDBRANCH  15  16
ENDBRANCH   1  13
TORSDOF 6
ENDMDL
MODEL 2
REMARK VINA RESULT:      -4.8      1.577      5.775
REMARK  6 active torsions:
REMARK  status: ('A' for Active; 'I' for Inactive)
REMARK    1  A    between atoms: C_6  and  N_2 
REMARK    2  A    between atoms: C_7  and  C_6 
REMARK    3  A    between atoms: C_8  and  C_7 
REMARK       I    between atoms: N_13  and  C_8 
REMARK    4  A    between atoms: C_10  and  C_17 
REMARK    5  A    between atoms: C_14  and  N_13 
REMARK    6  A    between atoms: C_17  and  C_14 
ROOT
ATOM      1  C   UNL d   1     -42.107-122.152 -52.073  0.00  0.00     0.082 C 
ENDROOT
BRANCH   1   2
ATOM      2  C   UNL d   1     -41.505-122.091 -52.629  0.00  0.00     0.088 C 
BRANCH   2   3
ATOM      3  N   UNL d   1     -41.563-122.486 -53.349  0.00  0.00    -0.268 N 
ATOM      4  C   UNL d   1     -41.388-123.279 -53.484  0.00  0.00     0.296 A 
ATOM      5  S   UNL d   1     -41.536-123.423 -54.316  0.00  0.00    -0.025 SA
ATOM      6  O   UNL d   1     -41.123-123.817 -52.918  0.00  0.00    -0.259 OA
ATOM      7  C   UNL d   1     -41.784-122.742 -54.639  0.00  0.00     0.050 A 
ATOM      8  C   UNL d   1     -42.003-122.569 -55.420  0.00  0.00     0.008 A 
ATOM      9  C   UNL d   1     -41.809-122.152 -54.063  0.00  0.00     0.073 A 
ATOM     10  C   UNL d   1     -42.247-121.802 -55.623  0.00  0.00     0.001 A 
ATOM     11  C   UNL d   1     -42.267-121.219 -55.038  0.00  0.00     0.002 A 
ATOM     12  C   UNL d   1     -42.049-121.396 -54.261  0.00  0.00     0.018 A 
ENDBRANCH   2   3
ENDBRANCH   1   2
BRANCH   1  13
ATOM     13  C   UNL d   1     -41.939-122.111 -51.267  0.00  0.00     0.281 C 
ATOM     14  O   UNL d   1     -41.409-121.543 -50.987  0.00  0.00    -0.265 OA
ATOM     15  N   UNL d   1     -42.293-122.632 -50.740  0.00  0.00    -0.206 NA
BRANCH  15  16
ATOM     16  C   UNL d   1     -42.124-122.591 -49.939  0.00  0.00     0.102 C 
BRANCH  16  17
ATOM     17  C   UNL d   1     -42.408-123.165 -49.424  0.00  0.00     0.021 C 
BRANCH  17  18
ATOM     18  C   UNL d   1     -42.150-123.191 -48.642  0.00  0.00     0.002 A 
ATOM     19  C   UNL d   1     -42.677-122.988 -48.027  0.00  0.00     0.000 A 
ATOM     20  C   UNL d   1     -42.414-123.016 -47.241  0.00  0.00     0.000 A 
ATOM     21  C   UNL d   1     -41.644-123.240 -47.068  0.00  0.00     0.000 A 
ATOM     22  C   UNL d   1     -41.124-123.441 -47.681  0.00  0.00     0.000 A 
ATOM     23  C   UNL d   1     -41.363-123.421 -48.468  0.00  0.00     0.000 A 
ENDBRANCH  17  18
ENDBRANCH  16  17
ENDBRANCH  15  16
ENDBRANCH   1  13
TORSDOF 6
ENDMDL
