MODEL 1
REMARK VINA RESULT:      -1.2      0.000      0.000
REMARK  9 active torsions:
REMARK  status: ('A' for Active; 'I' for Inactive)
REMARK    1  A    between atoms: C_17  and  N_4 
REMARK    2  A    between atoms: S_16  and  C_7 
REMARK    3  A    between atoms: S_15  and  C_8 
REMARK    4  A    between atoms: C_10  and  C_19 
REMARK    5  A    between atoms: C_22  and  S_15 
REMARK    6  A    between atoms: C_19  and  S_16 
REMARK    7  A    between atoms: C_20  and  C_22 
REMARK    8  A    between atoms: O_24  and  C_20 
REMARK    9  A    between atoms: C_28  and  O_24 
ROOT
ATOM      1  N   UNL d   1     -46.677  12.636  22.914  0.00  0.00    -0.269 N 
ATOM      2  C   UNL d   1     -47.189  12.124  23.286  0.00  0.00     0.201 A 
ATOM      3  C   UNL d   1     -45.928  12.276  22.802  0.00  0.00     0.177 A 
ATOM      4  N   UNL d   1     -46.779  11.427  23.420  0.00  0.00    -0.121 NA
ATOM      5  N   UNL d   1     -46.004  11.508  23.127  0.00  0.00    -0.127 NA
ENDROOT
BRANCH   3   6
ATOM      6  C   UNL d   1     -45.305  12.663  22.441  0.00  0.00     0.078 C 
BRANCH   6   7
ATOM      7  S   UNL d   1     -44.777  12.239  21.975  0.00  0.00    -0.045 SA
BRANCH   7   8
ATOM      8  C   UNL d   1     -44.006  12.524  21.853  0.00  0.00     0.198 A 
ATOM      9  N   UNL d   1     -43.318  12.141  22.205  0.00  0.00    -0.183 NA
ATOM     10  C   UNL d   1     -42.554  12.428  22.082  0.00  0.00     0.283 A 
ATOM     11  C   UNL d   1     -42.442  13.111  21.601  0.00  0.00     0.082 A 
ATOM     12  O   UNL d   1     -41.897  12.053  22.424  0.00  0.00    -0.265 OA
ATOM     13  C   UNL d   1     -43.110  13.487  21.257  0.00  0.00     0.117 A 
ATOM     14  C   UNL d   1     -41.755  13.523  21.379  0.00  0.00     0.013 A 
ATOM     15  N   UNL d   1     -43.879  13.199  21.381  0.00  0.00    -0.214 NA
ATOM     16  S   UNL d   1     -42.812  14.133  20.823  0.00  0.00    -0.068 SA
ATOM     17  C   UNL d   1     -41.975  14.149  20.903  0.00  0.00     0.031 A 
ATOM     18  C   UNL d   1     -41.437  14.682  20.577  0.00  0.00     0.006 A 
ATOM     19  C   UNL d   1     -40.619  14.570  20.747  0.00  0.00     0.001 A 
ATOM     20  C   UNL d   1     -40.393  13.930  21.234  0.00  0.00     0.000 A 
ATOM     21  C   UNL d   1     -40.961  13.406  21.550  0.00  0.00     0.001 A 
ENDBRANCH   7   8
ENDBRANCH   6   7
ENDBRANCH   3   6
BRANCH   1  22
ATOM     22  C   UNL d   1     -46.885  13.409  22.683  0.00  0.00     0.067 A 
ATOM     23  C   UNL d   1     -46.701  14.051  23.173  0.00  0.00     0.018 A 
ATOM     24  C   UNL d   1     -46.903  14.810  22.950  0.00  0.00     0.002 A 
ATOM     25  C   UNL d   1     -47.291  14.945  22.238  0.00  0.00     0.000 A 
ATOM     26  C   UNL d   1     -47.476  14.327  21.749  0.00  0.00     0.002 A 
ATOM     27  C   UNL d   1     -47.273  13.554  21.972  0.00  0.00     0.018 A 
ENDBRANCH   1  22
BRANCH   2  28
ATOM     28  S   UNL d   1     -47.978  12.266  23.497  0.00  0.00    -0.042 SA
BRANCH  28  29
ATOM     29  C   UNL d   1     -48.459  11.655  23.698  0.00  0.00     0.107 C 
BRANCH  29  30
ATOM     30  C   UNL d   1     -49.276  11.733  23.652  0.00  0.00     0.307 C 
ATOM     31  O   UNL d   1     -49.743  11.058  23.556  0.00  0.00    -0.258 OA
BRANCH  30  32
ATOM     32  O   UNL d   1     -49.646  12.460  23.698  0.00  0.00    -0.271 OA
BRANCH  32  33
ATOM     33  C   UNL d   1     -50.450  12.551  23.626  0.00  0.00     0.126 C 
ATOM     34  C   UNL d   1     -50.804  13.254  23.521  0.00  0.00     0.029 C 
ENDBRANCH  32  33
ENDBRANCH  30  32
ENDBRANCH  29  30
ENDBRANCH  28  29
ENDBRANCH   2  28
TORSDOF 9
ENDMDL
MODEL 2
REMARK VINA RESULT:      -1.0      1.031      1.374
REMARK  9 active torsions:
REMARK  status: ('A' for Active; 'I' for Inactive)
REMARK    1  A    between atoms: C_17  and  N_4 
REMARK    2  A    between atoms: S_16  and  C_7 
REMARK    3  A    between atoms: S_15  and  C_8 
REMARK    4  A    between atoms: C_10  and  C_19 
REMARK    5  A    between atoms: C_22  and  S_15 
REMARK    6  A    between atoms: C_19  and  S_16 
REMARK    7  A    between atoms: C_20  and  C_22 
REMARK    8  A    between atoms: O_24  and  C_20 
REMARK    9  A    between atoms: C_28  and  O_24 
ROOT
ATOM      1  N   UNL d   1     -45.891  12.721  22.780  0.00  0.00    -0.269 N 
ATOM      2  C   UNL d   1     -46.251  12.136  23.215  0.00  0.00     0.201 A 
ATOM      3  C   UNL d   1     -45.110  12.499  22.571  0.00  0.00     0.177 A 
ATOM      4  N   UNL d   1     -45.708  11.526  23.294  0.00  0.00    -0.121 NA
ATOM      5  N   UNL d   1     -45.005  11.738  22.903  0.00  0.00    -0.127 NA
ENDROOT
BRANCH   3   6
ATOM      6  C   UNL d   1     -44.618  12.982  22.132  0.00  0.00     0.078 C 
BRANCH   6   7
ATOM      7  S   UNL d   1     -43.904  12.689  21.851  0.00  0.00    -0.045 SA
BRANCH   7   8
ATOM      8  C   UNL d   1     -43.309  13.212  21.600  0.00  0.00     0.198 A 
ATOM      9  N   UNL d   1     -43.423  14.067  21.601  0.00  0.00    -0.183 NA
ATOM     10  C   UNL d   1     -42.829  14.583  21.350  0.00  0.00     0.283 A 
ATOM     11  C   UNL d   1     -42.092  14.268  21.087  0.00  0.00     0.082 A 
ATOM     12  O   UNL d   1     -42.947  15.405  21.354  0.00  0.00    -0.265 OA
ATOM     13  C   UNL d   1     -41.978  13.435  21.085  0.00  0.00     0.117 A 
ATOM     14  C   UNL d   1     -41.403  14.638  20.808  0.00  0.00     0.013 A 
ATOM     15  N   UNL d   1     -42.575  12.917  21.337  0.00  0.00    -0.214 NA
ATOM     16  S   UNL d   1     -41.205  13.311  20.799  0.00  0.00    -0.068 SA
ATOM     17  C   UNL d   1     -40.856  14.058  20.630  0.00  0.00     0.031 A 
ATOM     18  C   UNL d   1     -40.103  14.219  20.337  0.00  0.00     0.006 A 
ATOM     19  C   UNL d   1     -39.891  15.026  20.217  0.00  0.00     0.001 A 
ATOM     20  C   UNL d   1     -40.449  15.620  20.398  0.00  0.00     0.000 A 
ATOM     21  C   UNL d   1     -41.205  15.426  20.694  0.00  0.00     0.001 A 
ENDBRANCH   7   8
ENDBRANCH   6   7
ENDBRANCH   3   6
BRANCH   1  22
ATOM     22  C   UNL d   1     -46.263  13.439  22.578  0.00  0.00     0.067 A 
ATOM     23  C   UNL d   1     -46.221  14.086  23.093  0.00  0.00     0.018 A 
ATOM     24  C   UNL d   1     -46.584  14.791  22.899  0.00  0.00     0.002 A 
ATOM     25  C   UNL d   1     -46.994  14.867  22.190  0.00  0.00     0.000 A 
ATOM     26  C   UNL d   1     -47.043  14.242  21.677  0.00  0.00     0.002 A 
ATOM     27  C   UNL d   1     -46.676  13.524  21.870  0.00  0.00     0.018 A 
ENDBRANCH   1  22
BRANCH   2  28
ATOM     28  S   UNL d   1     -47.019  12.139  23.527  0.00  0.00    -0.042 SA
BRANCH  28  29
ATOM     29  C   UNL d   1     -47.390  11.447  23.695  0.00  0.00     0.107 C 
BRANCH  29  30
ATOM     30  C   UNL d   1     -48.173  11.328  23.476  0.00  0.00     0.307 C 
ATOM     31  O   UNL d   1     -48.371  10.670  23.016  0.00  0.00    -0.258 OA
BRANCH  30  32
ATOM     32  O   UNL d   1     -48.769  11.841  23.698  0.00  0.00    -0.271 OA
BRANCH  32  33
ATOM     33  C   UNL d   1     -49.558  11.664  23.616  0.00  0.00     0.126 C 
ATOM     34  C   UNL d   1     -50.133  12.210  23.626  0.00  0.00     0.029 C 
ENDBRANCH  32  33
ENDBRANCH  30  32
ENDBRANCH  29  30
ENDBRANCH  28  29
ENDBRANCH   2  28
TORSDOF 9
ENDMDL
MODEL 3
REMARK VINA RESULT:      -0.2      1.437      6.500
REMARK  9 active torsions:
REMARK  status: ('A' for Active; 'I' for Inactive)
REMARK    1  A    between atoms: C_17  and  N_4 
REMARK    2  A    between atoms: S_16  and  C_7 
REMARK    3  A    between atoms: S_15  and  C_8 
REMARK    4  A    between atoms: C_10  and  C_19 
REMARK    5  A    between atoms: C_22  and  S_15 
REMARK    6  A    between atoms: C_19  and  S_16 
REMARK    7  A    between atoms: C_20  and  C_22 
REMARK    8  A    between atoms: O_24  and  C_20 
REMARK    9  A    between atoms: C_28  and  O_24 
ROOT
ATOM      1  N   UNL d   1     -44.451  12.186  22.522  0.00  0.00    -0.269 N 
ATOM      2  C   UNL d   1     -43.967  12.630  22.041  0.00  0.00     0.201 A 
ATOM      3  C   UNL d   1     -45.191  12.566  22.631  0.00  0.00     0.177 A 
ATOM      4  N   UNL d   1     -44.387  13.303  21.832  0.00  0.00    -0.121 NA
ATOM      5  N   UNL d   1     -45.139  13.274  22.188  0.00  0.00    -0.127 NA
ENDROOT
BRANCH   3   6
ATOM      6  C   UNL d   1     -45.786  12.245  23.089  0.00  0.00     0.078 C 
BRANCH   6   7
ATOM      7  S   UNL d   1     -46.323  12.739  23.466  0.00  0.00    -0.045 SA
BRANCH   7   8
ATOM      8  C   UNL d   1     -47.136  12.667  23.312  0.00  0.00     0.198 A 
ATOM      9  N   UNL d   1     -47.577  11.954  23.518  0.00  0.00    -0.183 NA
ATOM     10  C   UNL d   1     -48.386  11.887  23.363  0.00  0.00     0.283 A 
ATOM     11  C   UNL d   1     -48.791  12.528  22.995  0.00  0.00     0.082 A 
ATOM     12  O   UNL d   1     -48.803  11.198  23.565  0.00  0.00    -0.265 OA
ATOM     13  C   UNL d   1     -48.364  13.223  22.793  0.00  0.00     0.117 A 
ATOM     14  C   UNL d   1     -49.586  12.623  22.773  0.00  0.00     0.013 A 
ATOM     15  N   UNL d   1     -47.551  13.291  22.949  0.00  0.00    -0.214 NA
ATOM     16  S   UNL d   1     -48.917  13.739  22.445  0.00  0.00    -0.068 SA
ATOM     17  C   UNL d   1     -49.670  13.362  22.436  0.00  0.00     0.031 A 
ATOM     18  C   UNL d   1     -50.387  13.651  22.148  0.00  0.00     0.006 A 
ATOM     19  C   UNL d   1     -51.064  13.153  22.208  0.00  0.00     0.001 A 
ATOM     20  C   UNL d   1     -50.979  12.397  22.553  0.00  0.00     0.000 A 
ATOM     21  C   UNL d   1     -50.240  12.132  22.836  0.00  0.00     0.001 A 
ENDBRANCH   7   8
ENDBRANCH   6   7
ENDBRANCH   3   6
BRANCH   1  22
ATOM     22  C   UNL d   1     -44.226  11.456  22.854  0.00  0.00     0.067 A 
ATOM     23  C   UNL d   1     -43.504  11.388  23.254  0.00  0.00     0.018 A 
ATOM     24  C   UNL d   1     -43.280  10.674  23.580  0.00  0.00     0.002 A 
ATOM     25  C   UNL d   1     -43.767  10.015  23.514  0.00  0.00     0.000 A 
ATOM     26  C   UNL d   1     -44.476  10.067  23.125  0.00  0.00     0.002 A 
ATOM     27  C   UNL d   1     -44.708  10.791  22.792  0.00  0.00     0.018 A 
ENDBRANCH   1  22
BRANCH   2  28
ATOM     28  S   UNL d   1     -43.196  12.451  21.800  0.00  0.00    -0.042 SA
BRANCH  28  29
ATOM     29  C   UNL d   1     -42.852  12.864  21.203  0.00  0.00     0.107 C 
BRANCH  29  30
ATOM     30  C   UNL d   1     -42.059  13.077  21.242  0.00  0.00     0.307 C 
ATOM     31  O   UNL d   1     -41.626  12.907  21.924  0.00  0.00    -0.258 OA
BRANCH  30  32
ATOM     32  O   UNL d   1     -41.681  13.456  20.625  0.00  0.00    -0.271 OA
BRANCH  32  33
ATOM     33  C   UNL d   1     -41.173  14.081  20.735  0.00  0.00     0.126 C 
ATOM     34  C   UNL d   1     -40.803  14.454  20.140  0.00  0.00     0.029 C 
ENDBRANCH  32  33
ENDBRANCH  30  32
ENDBRANCH  29  30
ENDBRANCH  28  29
ENDBRANCH   2  28
TORSDOF 9
ENDMDL
MODEL 4
REMARK VINA RESULT:       0.4      1.197      1.963
REMARK  9 active torsions:
REMARK  status: ('A' for Active; 'I' for Inactive)
REMARK    1  A    between atoms: C_17  and  N_4 
REMARK    2  A    between atoms: S_16  and  C_7 
REMARK    3  A    between atoms: S_15  and  C_8 
REMARK    4  A    between atoms: C_10  and  C_19 
REMARK    5  A    between atoms: C_22  and  S_15 
REMARK    6  A    between atoms: C_19  and  S_16 
REMARK    7  A    between atoms: C_20  and  C_22 
REMARK    8  A    between atoms: O_24  and  C_20 
REMARK    9  A    between atoms: C_28  and  O_24 
ROOT
ATOM      1  N   UNL d   1     -46.386  13.250  22.585  0.00  0.00    -0.269 N 
ATOM      2  C   UNL d   1     -46.905  13.869  22.689  0.00  0.00     0.201 A 
ATOM      3  C   UNL d   1     -45.662  13.522  22.261  0.00  0.00     0.177 A 
ATOM      4  N   UNL d   1     -46.524  14.549  22.434  0.00  0.00    -0.121 NA
ATOM      5  N   UNL d   1     -45.761  14.348  22.170  0.00  0.00    -0.127 NA
ENDROOT
BRANCH   3   6
ATOM      6  C   UNL d   1     -45.038  13.020  22.098  0.00  0.00     0.078 C 
BRANCH   6   7
ATOM      7  S   UNL d   1     -44.597  13.126  21.413  0.00  0.00    -0.045 SA
BRANCH   7   8
ATOM      8  C   UNL d   1     -43.772  13.208  21.456  0.00  0.00     0.198 A 
ATOM      9  N   UNL d   1     -43.276  12.616  21.841  0.00  0.00    -0.183 NA
ATOM     10  C   UNL d   1     -42.455  12.701  21.882  0.00  0.00     0.283 A 
ATOM     11  C   UNL d   1     -42.093  13.381  21.541  0.00  0.00     0.082 A 
ATOM     12  O   UNL d   1     -41.984  12.127  22.254  0.00  0.00    -0.265 OA
ATOM     13  C   UNL d   1     -42.574  13.960  21.165  0.00  0.00     0.117 A 
ATOM     14  C   UNL d   1     -41.297  13.618  21.495  0.00  0.00     0.013 A 
ATOM     15  N   UNL d   1     -43.398  13.874  21.124  0.00  0.00    -0.214 NA
ATOM     16  S   UNL d   1     -42.052  14.549  20.892  0.00  0.00    -0.068 SA
ATOM     17  C   UNL d   1     -41.266  14.331  21.099  0.00  0.00     0.031 A 
ATOM     18  C   UNL d   1     -40.563  14.736  20.948  0.00  0.00     0.006 A 
ATOM     19  C   UNL d   1     -39.844  14.391  21.219  0.00  0.00     0.001 A 
ATOM     20  C   UNL d   1     -39.875  13.661  21.624  0.00  0.00     0.000 A 
ATOM     21  C   UNL d   1     -40.602  13.274  21.762  0.00  0.00     0.001 A 
ENDBRANCH   7   8
ENDBRANCH   6   7
ENDBRANCH   3   6
BRANCH   1  22
ATOM     22  C   UNL d   1     -46.566  12.460  22.779  0.00  0.00     0.067 A 
ATOM     23  C   UNL d   1     -46.953  11.977  22.229  0.00  0.00     0.018 A 
ATOM     24  C   UNL d   1     -47.131  11.202  22.416  0.00  0.00     0.002 A 
ATOM     25  C   UNL d   1     -46.929  10.894  23.150  0.00  0.00     0.000 A 
ATOM     26  C   UNL d   1     -46.551  11.356  23.698  0.00  0.00     0.002 A 
ATOM     27  C   UNL d   1     -46.368  12.143  23.513  0.00  0.00     0.018 A 
ENDBRANCH   1  22
BRANCH   2  28
ATOM     28  S   UNL d   1     -47.675  13.834  22.994  0.00  0.00    -0.042 SA
BRANCH  28  29
ATOM     29  C   UNL d   1     -48.203  14.416  22.826  0.00  0.00     0.107 C 
BRANCH  29  30
ATOM     30  C   UNL d   1     -48.981  14.363  23.085  0.00  0.00     0.307 C 
ATOM     31  O   UNL d   1     -49.252  14.884  23.666  0.00  0.00    -0.258 OA
BRANCH  30  32
ATOM     32  O   UNL d   1     -49.501  13.809  22.785  0.00  0.00    -0.271 OA
BRANCH  32  33
ATOM     33  C   UNL d   1     -50.298  13.948  22.709  0.00  0.00     0.126 C 
ATOM     34  C   UNL d   1     -50.710  13.791  22.048  0.00  0.00     0.029 C 
ENDBRANCH  32  33
ENDBRANCH  30  32
ENDBRANCH  29  30
ENDBRANCH  28  29
ENDBRANCH   2  28
TORSDOF 9
ENDMDL
MODEL 5
REMARK VINA RESULT:       1.4      1.514      2.683
REMARK  9 active torsions:
REMARK  status: ('A' for Active; 'I' for Inactive)
REMARK    1  A    between atoms: C_17  and  N_4 
REMARK    2  A    between atoms: S_16  and  C_7 
REMARK    3  A    between atoms: S_15  and  C_8 
REMARK    4  A    between atoms: C_10  and  C_19 
REMARK    5  A    between atoms: C_22  and  S_15 
REMARK    6  A    between atoms: C_19  and  S_16 
REMARK    7  A    between atoms: C_20  and  C_22 
REMARK    8  A    between atoms: O_24  and  C_20 
REMARK    9  A    between atoms: C_28  and  O_24 
ROOT
ATOM      1  N   UNL d   1     -44.711  12.052  22.656  0.00  0.00    -0.269 N 
ATOM      2  C   UNL d   1     -45.472  12.302  22.803  0.00  0.00     0.201 A 
ATOM      3  C   UNL d   1     -44.316  12.586  22.145  0.00  0.00     0.177 A 
ATOM      4  N   UNL d   1     -45.580  13.002  22.389  0.00  0.00    -0.121 NA
ATOM      5  N   UNL d   1     -44.877  13.186  21.982  0.00  0.00    -0.127 NA
ENDROOT
BRANCH   3   6
ATOM      6  C   UNL d   1     -43.544  12.473  21.903  0.00  0.00     0.078 C 
BRANCH   6   7
ATOM      7  S   UNL d   1     -43.281  12.815  21.204  0.00  0.00    -0.045 SA
BRANCH   7   8
ATOM      8  C   UNL d   1     -42.518  13.141  21.160  0.00  0.00     0.198 A 
ATOM      9  N   UNL d   1     -41.947  13.052  21.801  0.00  0.00    -0.183 NA
ATOM     10  C   UNL d   1     -41.189  13.378  21.753  0.00  0.00     0.283 A 
ATOM     11  C   UNL d   1     -40.968  13.808  21.062  0.00  0.00     0.082 A 
ATOM     12  O   UNL d   1     -40.646  13.288  22.373  0.00  0.00    -0.265 OA
ATOM     13  C   UNL d   1     -41.522  13.896  20.436  0.00  0.00     0.117 A 
ATOM     14  C   UNL d   1     -40.261  14.192  20.855  0.00  0.00     0.013 A 
ATOM     15  N   UNL d   1     -42.283  13.569  20.485  0.00  0.00    -0.214 NA
ATOM     16  S   UNL d   1     -41.135  14.341  19.848  0.00  0.00    -0.068 SA
ATOM     17  C   UNL d   1     -40.356  14.520  20.114  0.00  0.00     0.031 A 
ATOM     18  C   UNL d   1     -39.766  14.947  19.726  0.00  0.00     0.006 A 
ATOM     19  C   UNL d   1     -39.028  15.046  20.121  0.00  0.00     0.001 A 
ATOM     20  C   UNL d   1     -38.929  14.710  20.880  0.00  0.00     0.000 A 
ATOM     21  C   UNL d   1     -39.546  14.283  21.247  0.00  0.00     0.001 A 
ENDBRANCH   7   8
ENDBRANCH   6   7
ENDBRANCH   3   6
BRANCH   1  22
ATOM     22  C   UNL d   1     -44.385  11.356  22.979  0.00  0.00     0.067 A 
ATOM     23  C   UNL d   1     -44.812  10.647  22.951  0.00  0.00     0.018 A 
ATOM     24  C   UNL d   1     -44.496   9.964  23.266  0.00  0.00     0.002 A 
ATOM     25  C   UNL d   1     -43.751   9.971  23.614  0.00  0.00     0.000 A 
ATOM     26  C   UNL d   1     -43.323  10.657  23.648  0.00  0.00     0.002 A 
ATOM     27  C   UNL d   1     -43.640  11.355  23.329  0.00  0.00     0.018 A 
ENDBRANCH   1  22
BRANCH   2  28
ATOM     28  S   UNL d   1     -46.041  11.932  23.278  0.00  0.00    -0.042 SA
BRANCH  28  29
ATOM     29  C   UNL d   1     -46.705  12.328  23.496  0.00  0.00     0.107 C 
BRANCH  29  30
ATOM     30  C   UNL d   1     -47.409  11.924  23.628  0.00  0.00     0.307 C 
ATOM     31  O   UNL d   1     -47.399  11.101  23.696  0.00  0.00    -0.258 OA
BRANCH  30  32
ATOM     32  O   UNL d   1     -48.125  12.312  23.694  0.00  0.00    -0.271 OA
BRANCH  32  33
ATOM     33  C   UNL d   1     -48.840  11.933  23.628  0.00  0.00     0.126 C 
ATOM     34  C   UNL d   1     -49.538  12.312  23.609  0.00  0.00     0.029 C 
ENDBRANCH  32  33
ENDBRANCH  30  32
ENDBRANCH  29  30
ENDBRANCH  28  29
ENDBRANCH   2  28
TORSDOF 9
ENDMDL
