MODEL 1
REMARK VINA RESULT:      71.1      0.000      0.000
REMARK  6 active torsions:
REMARK  status: ('A' for Active; 'I' for Inactive)
REMARK    1  A    between atoms: C_7  and  C_1 
REMARK    2  A    between atoms: C_10  and  C_2 
REMARK    3  A    between atoms: C_9  and  C_5 
REMARK    4  A    between atoms: O_15  and  C_7 
REMARK    5  A    between atoms: N_14  and  C_9 
REMARK    6  A    between atoms: C_21  and  O_15 
ROOT
ATOM      1  C   UNL d   1     -55.127-101.501 -42.591  0.00  0.00     0.088 A 
ATOM      2  C   UNL d   1     -55.288-102.256 -42.299  0.00  0.00     0.105 A 
ATOM      3  C   UNL d   1     -55.079-101.556 -43.400  0.00  0.00     0.034 A 
ATOM      4  O   UNL d   1     -55.333-102.753 -42.949  0.00  0.00    -0.307 OA
ATOM      5  C   UNL d   1     -54.932-100.987 -43.986  0.00  0.00     0.059 A 
ATOM      6  C   UNL d   1     -55.204-102.323 -43.638  0.00  0.00     0.100 A 
ATOM      7  C   UNL d   1     -54.911-101.183 -44.771  0.00  0.00     0.197 A 
ATOM      8  C   UNL d   1     -55.188-102.541 -44.420  0.00  0.00     0.028 A 
ATOM      9  C   UNL d   1     -55.041-101.973 -45.002  0.00  0.00     0.044 A 
ATOM     10  O   UNL d   1     -54.763-100.610 -45.356  0.00  0.00    -0.286 OA
ENDROOT
BRANCH   2  11
ATOM     11  C   UNL d   1     -55.382-102.458 -41.509  0.00  0.00     0.023 A 
ATOM     12  C   UNL d   1     -54.711-102.631 -41.047  0.00  0.00     0.002 A 
ATOM     13  C   UNL d   1     -54.794-102.838 -40.244  0.00  0.00     0.000 A 
ATOM     14  C   UNL d   1     -55.555-102.866 -39.920  0.00  0.00     0.000 A 
ATOM     15  C   UNL d   1     -56.215-102.695 -40.377  0.00  0.00     0.000 A 
ATOM     16  C   UNL d   1     -56.129-102.492 -41.168  0.00  0.00     0.002 A 
ENDBRANCH   2  11
BRANCH   1  17
ATOM     17  C   UNL d   1     -55.103-101.088 -41.874  0.00  0.00     0.302 C 
ATOM     18  O   UNL d   1     -55.068-101.504 -41.163  0.00  0.00    -0.259 OA
BRANCH  17  19
ATOM     19  O   UNL d   1     -55.112-100.269 -41.859  0.00  0.00    -0.271 OA
BRANCH  19  20
ATOM     20  C   UNL d   1     -54.727 -99.848 -41.270  0.00  0.00     0.126 C 
ATOM     21  C   UNL d   1     -54.812 -99.025 -41.202  0.00  0.00     0.029 C 
ENDBRANCH  19  20
ENDBRANCH  17  19
ENDBRANCH   1  17
BRANCH   5  22
ATOM     22  C   UNL d   1     -54.802-100.197 -43.769  0.00  0.00     0.084 C 
BRANCH  22  23
ATOM     23  N   UNL d   1     -54.933 -99.584 -44.305  0.00  0.00    -0.300 N 
ATOM     24  C   UNL d   1     -55.291 -99.751 -45.022  0.00  0.00     0.100 C 
ATOM     25  C   UNL d   1     -54.711 -98.822 -44.128  0.00  0.00     0.100 C 
ENDBRANCH  22  23
ENDBRANCH   5  22
TORSDOF 6
ENDMDL
