MODEL 1
REMARK VINA RESULT:     101.8      0.000      0.000
REMARK  3 active torsions:
REMARK  status: ('A' for Active; 'I' for Inactive)
REMARK    1  A    between atoms: N_6  and  C_1 
REMARK       I    between atoms: C_8  and  N_6 
REMARK       I    between atoms: C_11  and  N_7 
REMARK    2  A    between atoms: C_14  and  C_8 
REMARK    3  A    between atoms: O_20  and  C_19 
ROOT
ATOM      1  C   UNL d   1      60.059  48.366  50.470  0.00  0.00     0.124 A 
ATOM      2  C   UNL d   1      59.942  48.962  51.039  0.00  0.00     0.093 A 
ATOM      3  C   UNL d   1      58.738  48.609  50.570  0.00  0.00     0.049 A 
ATOM      4  C   UNL d   1      59.126  49.108  51.097  0.00  0.00     0.021 A 
ATOM      5  S   UNL d   1      59.303  48.148  50.178  0.00  0.00    -0.066 SA
ATOM      6  N   UNL d   1      57.476  49.155  50.972  0.00  0.00    -0.272 N 
ATOM      7  C   UNL d   1      57.904  48.632  50.506  0.00  0.00     0.089 A 
ATOM      8  C   UNL d   1      60.541  49.337  51.468  0.00  0.00     0.103 C 
ATOM      9  C   UNL d   1      56.647  49.185  50.915  0.00  0.00     0.265 C 
ATOM     10  N   UNL d   1      61.129  49.706  51.889  0.00  0.00    -0.191 NA
ATOM     11  C   UNL d   1      58.696  49.642  51.574  0.00  0.00     0.020 A 
ATOM     12  C   UNL d   1      57.872  49.660  51.506  0.00  0.00     0.083 A 
ATOM     13  O   UNL d   1      56.256  48.687  50.389  0.00  0.00    -0.267 OA
ATOM     14  C   UNL d   1      56.219  49.708  51.381  0.00  0.00     0.066 C 
ENDROOT
BRANCH   1  15
ATOM     15  N   UNL d   1      60.783  48.047  50.234  0.00  0.00    -0.201 NA
ATOM     16  C   UNL d   1      60.867  47.231  50.152  0.00  0.00     0.280 C 
ATOM     17  O   UNL d   1      60.234  46.726  50.303  0.00  0.00    -0.265 OA
BRANCH  16  18
ATOM     18  C   UNL d   1      61.577  46.918  49.920  0.00  0.00     0.060 A 
ATOM     19  C   UNL d   1      61.676  46.102  49.861  0.00  0.00     0.029 A 
ATOM     20  C   UNL d   1      62.398  45.784  49.626  0.00  0.00     0.094 A 
ATOM     21  C   UNL d   1      63.027  46.280  49.448  0.00  0.00     0.024 A 
ATOM     22  C   UNL d   1      62.937  47.098  49.504  0.00  0.00     0.002 A 
ATOM     23  C   UNL d   1      62.204  47.420  49.743  0.00  0.00     0.005 A 
BRANCH  20  24
ATOM     24  O   UNL d   1      62.507  44.949  49.563  0.00  0.00    -0.328 OA
ATOM     25  C   UNL d   1      62.536  44.579  48.830  0.00  0.00     0.181 C 
ENDBRANCH  20  24
ENDBRANCH  16  18
ENDBRANCH   1  15
TORSDOF 3
ENDMDL
