MODEL 1
REMARK VINA RESULT:      53.5      0.000      0.000
REMARK  4 active torsions:
REMARK  status: ('A' for Active; 'I' for Inactive)
REMARK    1  A    between atoms: C_9  and  C_2 
REMARK    2  A    between atoms: N_11  and  C_9 
REMARK    3  A    between atoms: C_14  and  N_11 
REMARK    4  A    between atoms: C_17  and  C_14 
ROOT
ATOM      1  C   UNL d   1     -51.153  25.086  33.307  0.00  0.00     0.106 A 
ATOM      2  C   UNL d   1     -50.672  26.430  33.309  0.00  0.00     0.025 A 
ATOM      3  C   UNL d   1     -50.525  25.620  33.309  0.00  0.00     0.025 A 
ATOM      4  O   UNL d   1     -51.928  25.361  33.306  0.00  0.00    -0.273 OA
ATOM      5  C   UNL d   1     -51.005  24.275  33.307  0.00  0.00     0.062 A 
ATOM      6  C   UNL d   1     -52.082  26.177  33.307  0.00  0.00     0.300 A 
ATOM      7  C   UNL d   1     -51.453  26.712  33.308  0.00  0.00     0.070 A 
ATOM      8  C   UNL d   1     -49.748  25.345  33.309  0.00  0.00     0.005 A 
ATOM      9  C   UNL d   1     -50.226  24.003  33.308  0.00  0.00     0.198 A 
ATOM     10  O   UNL d   1     -52.866  26.451  33.306  0.00  0.00    -0.259 OA
ATOM     11  C   UNL d   1     -49.601  24.535  33.309  0.00  0.00     0.042 A 
ATOM     12  O   UNL d   1     -50.076  23.190  33.307  0.00  0.00    -0.286 OA
ATOM     13  C   UNL d   1     -51.633  23.741  33.306  0.00  0.00     0.005 C 
ENDROOT
BRANCH   2  14
ATOM     14  C   UNL d   1     -50.049  26.959  33.310  0.00  0.00     0.081 C 
BRANCH  14  15
ATOM     15  N   UNL d   1     -49.900  27.418  33.986  0.00  0.00    -0.301 N 
ATOM     16  C   UNL d   1     -49.957  27.067  34.731  0.00  0.00     0.100 C 
BRANCH  15  17
ATOM     17  C   UNL d   1     -49.696  28.216  33.913  0.00  0.00     0.080 C 
BRANCH  17  18
ATOM     18  C   UNL d   1     -49.077  28.526  34.359  0.00  0.00     0.018 A 
ATOM     19  C   UNL d   1     -48.790  28.113  34.992  0.00  0.00     0.002 A 
ATOM     20  C   UNL d   1     -48.169  28.415  35.446  0.00  0.00     0.000 A 
ATOM     21  C   UNL d   1     -47.835  29.157  35.248  0.00  0.00     0.000 A 
ATOM     22  C   UNL d   1     -48.140  29.568  34.597  0.00  0.00     0.000 A 
ATOM     23  C   UNL d   1     -48.754  29.257  34.158  0.00  0.00     0.002 A 
ENDBRANCH  17  18
ENDBRANCH  15  17
ENDBRANCH  14  15
ENDBRANCH   2  14
TORSDOF 4
ENDMDL
