MODEL 1
REMARK VINA RESULT:     170.9      0.000      0.000
REMARK  5 active torsions:
REMARK  status: ('A' for Active; 'I' for Inactive)
REMARK    1  A    between atoms: N_9  and  C_3 
REMARK    2  A    between atoms: C_13  and  C_5 
REMARK    3  A    between atoms: C_12  and  N_10 
REMARK    4  A    between atoms: C_20  and  C_11 
REMARK    5  A    between atoms: C_25  and  C_20 
ROOT
ATOM      1  N   UNL d   1     -57.531 -99.292 -42.633  0.00  0.00    -0.196 N 
ATOM      2  C   UNL d   1     -57.828 -99.255 -43.401  0.00  0.00     0.167 A 
ATOM      3  C   UNL d   1     -56.737 -99.387 -42.534  0.00  0.00     0.152 A 
ATOM      4  N   UNL d   1     -58.827 -99.139 -42.123  0.00  0.00    -0.163 NA
ATOM      5  C   UNL d   1     -58.613 -99.161 -43.521  0.00  0.00     0.055 A 
ATOM      6  C   UNL d   1     -59.125 -99.101 -42.892  0.00  0.00     0.104 A 
ATOM      7  N   UNL d   1     -57.316 -99.315 -44.031  0.00  0.00    -0.227 NA
ATOM      8  C   UNL d   1     -56.227 -99.446 -43.145  0.00  0.00     0.057 A 
ATOM      9  C   UNL d   1     -56.525 -99.409 -43.913  0.00  0.00     0.086 A 
ATOM     10  C   UNL d   1     -59.915 -99.007 -43.005  0.00  0.00     0.023 C 
ENDROOT
BRANCH   3  11
ATOM     11  N   UNL d   1     -56.430 -99.425 -41.741  0.00  0.00    -0.286 N 
ATOM     12  C   UNL d   1     -55.604 -99.519 -41.609  0.00  0.00     0.101 A 
ATOM     13  C   UNL d   1     -55.297 -99.557 -40.816  0.00  0.00     0.101 A 
ATOM     14  N   UNL d   1     -55.816 -99.501 -40.156  0.00  0.00    -0.286 N 
ATOM     15  C   UNL d   1     -56.657 -99.405 -40.282  0.00  0.00     0.101 A 
ATOM     16  C   UNL d   1     -56.964 -99.367 -41.075  0.00  0.00     0.101 A 
BRANCH  14  17
ATOM     17  C   UNL d   1     -55.510 -99.539 -39.367  0.00  0.00     0.148 A 
ATOM     18  N   UNL d   1     -55.522 -98.839 -38.881  0.00  0.00    -0.227 NA
ATOM     19  C   UNL d   1     -55.217 -98.877 -38.093  0.00  0.00     0.101 A 
ATOM     20  C   UNL d   1     -54.901 -99.615 -37.795  0.00  0.00     0.021 A 
ATOM     21  C   UNL d   1     -54.895-100.298 -38.282  0.00  0.00     0.005 A 
ATOM     22  C   UNL d   1     -55.202-100.260 -39.074  0.00  0.00     0.037 A 
ENDBRANCH  14  17
ENDBRANCH   3  11
BRANCH   9  23
ATOM     23  C   UNL d   1     -55.997 -99.471 -44.573  0.00  0.00     0.019 C 
BRANCH  23  24
ATOM     24  C   UNL d   1     -55.787-100.234 -44.893  0.00  0.00     0.002 C 
ATOM     25  C   UNL d   1     -55.418-100.810 -44.407  0.00  0.00     0.000 C 
ENDBRANCH  23  24
ENDBRANCH   9  23
BRANCH   5  26
ATOM     26  C   UNL d   1     -58.905 -99.125 -44.278  0.00  0.00     0.004 A 
ATOM     27  C   UNL d   1     -58.443 -98.813 -44.871  0.00  0.00     0.000 A 
ATOM     28  C   UNL d   1     -58.741 -98.776 -45.640  0.00  0.00     0.000 A 
ATOM     29  C   UNL d   1     -59.491 -99.052 -45.791  0.00  0.00     0.000 A 
ATOM     30  C   UNL d   1     -59.946 -99.363 -45.187  0.00  0.00     0.000 A 
ATOM     31  C   UNL d   1     -59.653 -99.399 -44.431  0.00  0.00     0.000 A 
ENDBRANCH   5  26
TORSDOF 5
ENDMDL
