MODEL 1
REMARK VINA RESULT:      -5.6      0.000      0.000
REMARK  6 active torsions:
REMARK  status: ('A' for Active; 'I' for Inactive)
REMARK    1  A    between atoms: C_7  and  S_1 
REMARK    2  A    between atoms: N_11  and  S_1 
REMARK    3  A    between atoms: C_5  and  C_2 
REMARK    4  A    between atoms: C_6  and  C_15 
REMARK    5  A    between atoms: C_18  and  N_11 
REMARK    6  A    between atoms: C_15  and  C_18 
ROOT
ATOM      1  C   UNL d   1      58.510   0.201  29.920  0.00  0.00     0.041 C 
ENDROOT
BRANCH   1   2
ATOM      2  C   UNL d   1      58.880  -0.364  29.439  0.00  0.00     0.090 A 
ATOM      3  N   UNL d   1      58.839  -1.186  29.545  0.00  0.00    -0.238 NA
ATOM      4  C   UNL d   1      59.288  -1.537  28.941  0.00  0.00     0.112 A 
ATOM      5  S   UNL d   1      59.605  -0.937  28.466  0.00  0.00    -0.066 SA
ATOM      6  C   UNL d   1      59.350  -0.207  28.777  0.00  0.00     0.056 A 
BRANCH   4   7
ATOM      7  C   UNL d   1      59.406  -2.357  28.826  0.00  0.00     0.043 A 
ATOM      8  C   UNL d   1      58.761  -2.869  28.821  0.00  0.00     0.101 A 
ATOM      9  N   UNL d   1      58.876  -3.668  28.709  0.00  0.00    -0.242 NA
ATOM     10  C   UNL d   1      59.636  -3.960  28.600  0.00  0.00     0.099 A 
ATOM     11  C   UNL d   1      60.293  -3.434  28.606  0.00  0.00     0.021 A 
ATOM     12  C   UNL d   1      60.175  -2.633  28.719  0.00  0.00     0.005 A 
ENDBRANCH   4   7
ENDBRANCH   1   2
BRANCH   1  13
ATOM     13  C   UNL d   1      57.976  -0.030  30.504  0.00  0.00     0.114 C 
BRANCH  13  14
ATOM     14  N   UNL d   1      57.780   0.504  31.124  0.00  0.00    -0.157 NA
BRANCH  14  15
ATOM     15  S   UNL d   1      57.189   0.296  31.666  0.00  0.00     0.285 S 
ATOM     16  O   UNL d   1      57.735   0.392  32.289  0.00  0.00    -0.198 OA
ATOM     17  O   UNL d   1      56.643   0.199  31.046  0.00  0.00    -0.198 OA
BRANCH  15  18
ATOM     18  C   UNL d   1      56.605   0.089  32.212  0.00  0.00     0.105 A 
ATOM     19  C   UNL d   1      56.441  -0.707  32.341  0.00  0.00     0.015 A 
ATOM     20  C   UNL d   1      55.852  -0.919  32.893  0.00  0.00     0.030 A 
ATOM     21  C   UNL d   1      55.444  -0.339  33.300  0.00  0.00     0.140 A 
ATOM     22  C   UNL d   1      55.613   0.452  33.166  0.00  0.00     0.030 A 
ATOM     23  F   UNL d   1      54.860  -0.546  33.847  0.00  0.00    -0.204 F 
ATOM     24  C   UNL d   1      56.190   0.679  32.626  0.00  0.00     0.015 A 
ENDBRANCH  15  18
ENDBRANCH  14  15
ENDBRANCH  13  14
ENDBRANCH   1  13
TORSDOF 6
ENDMDL
MODEL 2
REMARK VINA RESULT:      -4.5      2.222      5.420
REMARK  6 active torsions:
REMARK  status: ('A' for Active; 'I' for Inactive)
REMARK    1  A    between atoms: C_7  and  S_1 
REMARK    2  A    between atoms: N_11  and  S_1 
REMARK    3  A    between atoms: C_5  and  C_2 
REMARK    4  A    between atoms: C_6  and  C_15 
REMARK    5  A    between atoms: C_18  and  N_11 
REMARK    6  A    between atoms: C_15  and  C_18 
ROOT
ATOM      1  C   UNL d   1      57.882   0.316  30.716  0.00  0.00     0.041 C 
ENDROOT
BRANCH   1   2
ATOM      2  C   UNL d   1      57.640   0.406  31.505  0.00  0.00     0.090 A 
ATOM      3  N   UNL d   1      56.884   0.231  31.799  0.00  0.00    -0.238 NA
ATOM      4  C   UNL d   1      56.887   0.403  32.611  0.00  0.00     0.112 A 
ATOM      5  S   UNL d   1      57.639   0.681  32.819  0.00  0.00    -0.066 SA
ATOM      6  C   UNL d   1      58.107   0.682  32.129  0.00  0.00     0.056 A 
BRANCH   4   7
ATOM      7  C   UNL d   1      56.244   0.312  33.137  0.00  0.00     0.043 A 
ATOM      8  C   UNL d   1      55.533  -0.007  32.870  0.00  0.00     0.101 A 
ATOM      9  N   UNL d   1      54.907  -0.095  33.383  0.00  0.00    -0.242 NA
ATOM     10  C   UNL d   1      54.986   0.136  34.168  0.00  0.00     0.099 A 
ATOM     11  C   UNL d   1      55.713   0.462  34.438  0.00  0.00     0.021 A 
ATOM     12  C   UNL d   1      56.340   0.549  33.921  0.00  0.00     0.005 A 
ENDBRANCH   4   7
ENDBRANCH   1   2
BRANCH   1  13
ATOM     13  C   UNL d   1      58.264  -0.371  30.471  0.00  0.00     0.114 C 
BRANCH  13  14
ATOM     14  N   UNL d   1      58.317  -0.548  29.649  0.00  0.00    -0.157 NA
BRANCH  14  15
ATOM     15  S   UNL d   1      58.688  -1.248  29.409  0.00  0.00     0.285 S 
ATOM     16  O   UNL d   1      57.974  -1.662  29.532  0.00  0.00    -0.198 OA
ATOM     17  O   UNL d   1      59.402  -0.839  29.286  0.00  0.00    -0.198 OA
BRANCH  15  18
ATOM     18  C   UNL d   1      59.051  -1.951  29.171  0.00  0.00     0.105 A 
ATOM     19  C   UNL d   1      59.850  -1.945  28.980  0.00  0.00     0.015 A 
ATOM     20  C   UNL d   1      60.219  -2.653  28.740  0.00  0.00     0.030 A 
ATOM     21  C   UNL d   1      59.787  -3.347  28.695  0.00  0.00     0.140 A 
ATOM     22  C   UNL d   1      58.989  -3.345  28.887  0.00  0.00     0.030 A 
ATOM     23  F   UNL d   1      60.149  -4.050  28.457  0.00  0.00    -0.204 F 
ATOM     24  C   UNL d   1      58.610  -2.656  29.126  0.00  0.00     0.015 A 
ENDBRANCH  15  18
ENDBRANCH  14  15
ENDBRANCH  13  14
ENDBRANCH   1  13
TORSDOF 6
ENDMDL
MODEL 3
REMARK VINA RESULT:      -4.4      2.348      5.723
REMARK  6 active torsions:
REMARK  status: ('A' for Active; 'I' for Inactive)
REMARK    1  A    between atoms: C_7  and  S_1 
REMARK    2  A    between atoms: N_11  and  S_1 
REMARK    3  A    between atoms: C_5  and  C_2 
REMARK    4  A    between atoms: C_6  and  C_15 
REMARK    5  A    between atoms: C_18  and  N_11 
REMARK    6  A    between atoms: C_15  and  C_18 
ROOT
ATOM      1  C   UNL d   1      56.795  -0.058  31.158  0.00  0.00     0.041 C 
ENDROOT
BRANCH   1   2
ATOM      2  C   UNL d   1      56.463  -0.273  31.887  0.00  0.00     0.090 A 
ATOM      3  N   UNL d   1      56.230   0.255  32.483  0.00  0.00    -0.238 NA
ATOM      4  C   UNL d   1      55.929  -0.196  33.112  0.00  0.00     0.112 A 
ATOM      5  S   UNL d   1      55.975  -0.997  32.907  0.00  0.00    -0.066 SA
ATOM      6  C   UNL d   1      56.308  -1.043  32.144  0.00  0.00     0.056 A 
BRANCH   4   7
ATOM      7  C   UNL d   1      55.628   0.101  33.833  0.00  0.00     0.043 A 
ATOM      8  C   UNL d   1      56.128   0.192  34.482  0.00  0.00     0.101 A 
ATOM      9  N   UNL d   1      55.835   0.481  35.185  0.00  0.00    -0.242 NA
ATOM     10  C   UNL d   1      55.040   0.681  35.245  0.00  0.00     0.099 A 
ATOM     11  C   UNL d   1      54.532   0.587  34.581  0.00  0.00     0.021 A 
ATOM     12  C   UNL d   1      54.829   0.297  33.876  0.00  0.00     0.005 A 
ENDBRANCH   4   7
ENDBRANCH   1   2
BRANCH   1  13
ATOM     13  C   UNL d   1      57.494  -0.406  30.897  0.00  0.00     0.114 C 
BRANCH  13  14
ATOM     14  N   UNL d   1      57.894  -0.088  30.227  0.00  0.00    -0.157 NA
BRANCH  14  15
ATOM     15  S   UNL d   1      58.504  -0.524  29.876  0.00  0.00     0.285 S 
ATOM     16  O   UNL d   1      59.063  -0.074  30.303  0.00  0.00    -0.198 OA
ATOM     17  O   UNL d   1      57.950  -0.974  29.449  0.00  0.00    -0.198 OA
BRANCH  15  18
ATOM     18  C   UNL d   1      59.120  -0.953  29.531  0.00  0.00     0.105 A 
ATOM     19  C   UNL d   1      59.868  -0.616  29.488  0.00  0.00     0.015 A 
ATOM     20  C   UNL d   1      60.492  -1.047  29.140  0.00  0.00     0.030 A 
ATOM     21  C   UNL d   1      60.357  -1.798  28.845  0.00  0.00     0.140 A 
ATOM     22  C   UNL d   1      59.608  -2.128  28.892  0.00  0.00     0.030 A 
ATOM     23  F   UNL d   1      60.973  -2.228  28.500  0.00  0.00    -0.204 F 
ATOM     24  C   UNL d   1      58.982  -1.717  29.231  0.00  0.00     0.015 A 
ENDBRANCH  15  18
ENDBRANCH  14  15
ENDBRANCH  13  14
ENDBRANCH   1  13
TORSDOF 6
ENDMDL
MODEL 4
REMARK VINA RESULT:      -4.2      1.034      1.312
REMARK  6 active torsions:
REMARK  status: ('A' for Active; 'I' for Inactive)
REMARK    1  A    between atoms: C_7  and  S_1 
REMARK    2  A    between atoms: N_11  and  S_1 
REMARK    3  A    between atoms: C_5  and  C_2 
REMARK    4  A    between atoms: C_6  and  C_15 
REMARK    5  A    between atoms: C_18  and  N_11 
REMARK    6  A    between atoms: C_15  and  C_18 
ROOT
ATOM      1  C   UNL d   1      57.844   0.194  30.186  0.00  0.00     0.041 C 
ENDROOT
BRANCH   1   2
ATOM      2  C   UNL d   1      58.551  -0.089  29.857  0.00  0.00     0.090 A 
ATOM      3  N   UNL d   1      58.708  -0.881  29.663  0.00  0.00    -0.238 NA
ATOM      4  C   UNL d   1      59.476  -0.913  29.351  0.00  0.00     0.112 A 
ATOM      5  S   UNL d   1      59.793  -0.147  29.352  0.00  0.00    -0.066 SA
ATOM      6  C   UNL d   1      59.216   0.364  29.668  0.00  0.00     0.056 A 
BRANCH   4   7
ATOM      7  C   UNL d   1      59.871  -1.597  29.079  0.00  0.00     0.043 A 
ATOM      8  C   UNL d   1      60.688  -1.587  28.970  0.00  0.00     0.101 A 
ATOM      9  N   UNL d   1      61.073  -2.254  28.705  0.00  0.00    -0.242 NA
ATOM     10  C   UNL d   1      60.644  -2.937  28.547  0.00  0.00     0.099 A 
ATOM     11  C   UNL d   1      59.811  -2.946  28.660  0.00  0.00     0.021 A 
ATOM     12  C   UNL d   1      59.427  -2.274  28.926  0.00  0.00     0.005 A 
ENDBRANCH   4   7
ENDBRANCH   1   2
BRANCH   1  13
ATOM     13  C   UNL d   1      57.669   0.063  30.980  0.00  0.00     0.114 C 
BRANCH  13  14
ATOM     14  N   UNL d   1      56.876  -0.099  31.212  0.00  0.00    -0.157 NA
BRANCH  14  15
ATOM     15  S   UNL d   1      56.643   0.053  31.992  0.00  0.00     0.285 S 
ATOM     16  O   UNL d   1      56.162   0.678  31.720  0.00  0.00    -0.198 OA
ATOM     17  O   UNL d   1      57.122  -0.571  32.265  0.00  0.00    -0.198 OA
BRANCH  15  18
ATOM     18  C   UNL d   1      56.406   0.211  32.767  0.00  0.00     0.105 A 
ATOM     19  C   UNL d   1      55.608   0.155  32.960  0.00  0.00     0.015 A 
ATOM     20  C   UNL d   1      55.365   0.315  33.742  0.00  0.00     0.030 A 
ATOM     21  C   UNL d   1      55.917   0.524  34.309  0.00  0.00     0.140 A 
ATOM     22  C   UNL d   1      56.711   0.577  34.108  0.00  0.00     0.030 A 
ATOM     23  F   UNL d   1      55.680   0.682  35.084  0.00  0.00    -0.204 F 
ATOM     24  C   UNL d   1      56.967   0.423  33.343  0.00  0.00     0.015 A 
ENDBRANCH  15  18
ENDBRANCH  14  15
ENDBRANCH  13  14
ENDBRANCH   1  13
TORSDOF 6
ENDMDL
