MODEL 1
REMARK VINA RESULT:      16.5      0.000      0.000
REMARK  0 active torsions:
REMARK  status: ('A' for Active; 'I' for Inactive)
ROOT
ATOM      1  C   UNL d   1      23.337  14.034  -0.030  0.00  0.00     0.094 A 
ATOM      2  C   UNL d   1      24.159  14.110  -0.033  0.00  0.00     0.143 A 
ATOM      3  S   UNL d   1      24.635  13.437  -0.032  0.00  0.00    -0.055 SA
ATOM      4  C   UNL d   1      22.992  13.285  -0.025  0.00  0.00     0.013 A 
ATOM      5  C   UNL d   1      24.290  12.687  -0.028  0.00  0.00     0.086 A 
ATOM      6  C   UNL d   1      23.468  12.611  -0.024  0.00  0.00     0.017 A 
ATOM      7  C   UNL d   1      22.861  14.708  -0.031  0.00  0.00     0.103 C 
ATOM      8  N   UNL d   1      22.387  15.376  -0.032  0.00  0.00    -0.191 NA
ATOM      9  S   UNL d   1      24.767  12.008  -0.026  0.00  0.00    -0.071 SA
ATOM     10  N   UNL d   1      24.505  14.854  -0.038  0.00  0.00    -0.140 N 
ATOM     11  C   UNL d   1      22.172  13.210  -0.022  0.00  0.00     0.001 A 
ATOM     12  C   UNL d   1      23.124  11.861  -0.019  0.00  0.00     0.001 A 
ATOM     13  C   UNL d   1      21.826  12.460  -0.017  0.00  0.00     0.000 A 
ATOM     14  C   UNL d   1      22.303  11.786  -0.016  0.00  0.00     0.000 A 
ENDROOT
TORSDOF 0
ENDMDL
