MODEL 1
REMARK VINA RESULT:       2.8      0.000      0.000
REMARK  4 active torsions:
REMARK  status: ('A' for Active; 'I' for Inactive)
REMARK    1  A    between atoms: N_10  and  C_3 
REMARK    2  A    between atoms: C_13  and  C_5 
REMARK    3  A    between atoms: C_19  and  C_9 
REMARK    4  A    between atoms: C_12  and  N_11 
ROOT
ATOM      1  N   UNL d   1      58.286  -0.834  30.846  0.00  0.00    -0.196 N 
ATOM      2  C   UNL d   1      58.939  -0.984  30.384  0.00  0.00     0.167 A 
ATOM      3  C   UNL d   1      58.327  -0.261  31.403  0.00  0.00     0.152 A 
ATOM      4  N   UNL d   1      57.582  -1.833  30.175  0.00  0.00    -0.163 NA
ATOM      5  C   UNL d   1      58.909  -1.549  29.830  0.00  0.00     0.055 A 
ATOM      6  N   UNL d   1      59.609  -0.556  30.497  0.00  0.00    -0.227 NA
ATOM      7  C   UNL d   1      59.022   0.176  31.512  0.00  0.00     0.057 A 
ATOM      8  C   UNL d   1      58.235  -1.983  29.713  0.00  0.00     0.104 A 
ATOM      9  C   UNL d   1      59.642   0.012  31.053  0.00  0.00     0.086 A 
ATOM     10  C   UNL d   1      58.207  -2.545  29.161  0.00  0.00     0.023 C 
ENDROOT
BRANCH   3  11
ATOM     11  N   UNL d   1      57.659  -0.104  31.879  0.00  0.00    -0.286 N 
ATOM     12  C   UNL d   1      57.605  -0.430  32.639  0.00  0.00     0.101 A 
ATOM     13  C   UNL d   1      56.934  -0.273  33.117  0.00  0.00     0.101 A 
ATOM     14  N   UNL d   1      56.322   0.210  32.830  0.00  0.00    -0.286 N 
ATOM     15  C   UNL d   1      56.375   0.539  32.067  0.00  0.00     0.101 A 
ATOM     16  C   UNL d   1      57.041   0.385  31.587  0.00  0.00     0.101 A 
BRANCH  14  17
ATOM     17  C   UNL d   1      55.655   0.366  33.306  0.00  0.00     0.148 A 
ATOM     18  N   UNL d   1      55.733   0.374  34.140  0.00  0.00    -0.227 NA
ATOM     19  C   UNL d   1      55.066   0.530  34.611  0.00  0.00     0.101 A 
ATOM     20  C   UNL d   1      54.321   0.679  34.260  0.00  0.00     0.021 A 
ATOM     21  C   UNL d   1      54.248   0.670  33.433  0.00  0.00     0.005 A 
ATOM     22  C   UNL d   1      54.919   0.513  32.954  0.00  0.00     0.037 A 
ENDBRANCH  14  17
ENDBRANCH   3  11
BRANCH   9  23
ATOM     23  C   UNL d   1      60.348   0.459  31.168  0.00  0.00     0.018 C 
ATOM     24  C   UNL d   1      60.589   0.680  31.943  0.00  0.00     0.002 C 
ATOM     25  C   UNL d   1      60.811   0.682  30.494  0.00  0.00     0.002 C 
ENDBRANCH   9  23
BRANCH   5  26
ATOM     26  C   UNL d   1      59.569  -1.700  29.364  0.00  0.00     0.004 A 
ATOM     27  C   UNL d   1      59.887  -1.118  28.921  0.00  0.00     0.000 A 
ATOM     28  C   UNL d   1      60.526  -1.257  28.467  0.00  0.00     0.000 A 
ATOM     29  C   UNL d   1      60.855  -1.996  28.455  0.00  0.00     0.000 A 
ATOM     30  C   UNL d   1      60.541  -2.583  28.897  0.00  0.00     0.000 A 
ATOM     31  C   UNL d   1      59.892  -2.434  29.356  0.00  0.00     0.000 A 
ENDBRANCH   5  26
TORSDOF 4
ENDMDL
