MODEL 1
REMARK VINA RESULT:       4.8      0.000      0.000
REMARK  1 active torsions:
REMARK  status: ('A' for Active; 'I' for Inactive)
REMARK       I    between atoms: N_2  and  C_1 
REMARK    1  A    between atoms: C_5  and  N_2 
ROOT
ATOM      1  C   UNL d   1     -51.428  24.626  33.319  0.00  0.00     0.100 A 
ATOM      2  C   UNL d   1     -50.615  26.066  33.333  0.00  0.00     0.058 A 
ATOM      3 CL   UNL d   1     -50.210  26.782  33.339  0.00  0.00    -0.082 Cl
ATOM      4  C   UNL d   1     -51.847  25.343  33.338  0.00  0.00     0.021 A 
ATOM      5  C   UNL d   1     -50.603  24.634  33.306  0.00  0.00     0.021 A 
ATOM      6  C   UNL d   1     -51.440  26.059  33.345  0.00  0.00     0.013 A 
ATOM      7  C   UNL d   1     -50.197  25.357  33.313  0.00  0.00     0.013 A 
ENDROOT
BRANCH   1   8
ATOM      8  N   UNL d   1     -51.839  23.910  33.312  0.00  0.00    -0.056 NA
ATOM      9  C   UNL d   1     -52.662  23.903  33.314  0.00  0.00     0.787 C 
ATOM     10  N   UNL d   1     -53.074  23.192  33.307  0.00  0.00     0.064 N 
ATOM     11  N   UNL d   1     -53.073  24.619  33.323  0.00  0.00     0.064 N 
ENDBRANCH   1   8
TORSDOF 1
ENDMDL
