MODEL 1
REMARK VINA RESULT:      -3.0      0.000      0.000
REMARK  3 active torsions:
REMARK  status: ('A' for Active; 'I' for Inactive)
REMARK    1  A    between atoms: N_2  and  S_1 
REMARK    2  A    between atoms: C_3  and  S_1 
REMARK    3  A    between atoms: C_10  and  C_9 
ROOT
ATOM      1  C   UNL d   1      32.605  16.913 -24.257  0.00  0.00     0.104 A 
ATOM      2  C   UNL d   1      32.812  18.340 -23.445  0.00  0.00     0.000 A 
ATOM      3  C   UNL d   1      33.040  16.931 -23.558  0.00  0.00     0.013 A 
ATOM      4  C   UNL d   1      32.271  17.609 -24.554  0.00  0.00     0.013 A 
ATOM      5  C   UNL d   1      32.375  18.324 -24.147  0.00  0.00     0.001 A 
ATOM      6  C   UNL d   1      33.143  17.646 -23.151  0.00  0.00     0.001 A 
ENDROOT
BRANCH   1   7
ATOM      7  S   UNL d   1      32.506  16.198 -24.655  0.00  0.00     0.271 S 
ATOM      8  O   UNL d   1      33.209  16.314 -25.053  0.00  0.00    -0.200 OA
ATOM      9  O   UNL d   1      32.401  15.485 -25.048  0.00  0.00    -0.200 OA
BRANCH   7  10
ATOM     10  N   UNL d   1      31.795  16.073 -24.257  0.00  0.00    -0.226 N 
ATOM     11  C   UNL d   1      31.087  16.343 -24.598  0.00  0.00     0.111 A 
ATOM     12  C   UNL d   1      30.375  16.219 -24.200  0.00  0.00     0.100 A 
ATOM     13  N   UNL d   1      30.375  15.832 -23.476  0.00  0.00    -0.299 N 
ATOM     14  C   UNL d   1      31.072  15.565 -23.138  0.00  0.00     0.100 A 
ATOM     15  C   UNL d   1      29.652  15.710 -23.081  0.00  0.00     0.100 C 
ATOM     16  C   UNL d   1      31.785  15.687 -23.532  0.00  0.00     0.111 A 
ENDBRANCH   7  10
ENDBRANCH   1   7
BRANCH   2  17
ATOM     17  C   UNL d   1      32.919  19.044 -23.037  0.00  0.00     0.000 A 
ATOM     18  C   UNL d   1      32.963  19.050 -22.215  0.00  0.00     0.001 A 
ATOM     19  C   UNL d   1      33.071  19.762 -21.812  0.00  0.00     0.011 A 
ATOM     20  C   UNL d   1      33.134  20.468 -22.231  0.00  0.00     0.058 A 
ATOM     21  C   UNL d   1      33.090  20.459 -23.064  0.00  0.00     0.011 A 
ATOM     22 CL   UNL d   1      33.241  21.172 -21.832  0.00  0.00    -0.082 Cl
ATOM     23  C   UNL d   1      32.983  19.750 -23.456  0.00  0.00     0.001 A 
ENDBRANCH   2  17
TORSDOF 3
ENDMDL
MODEL 2
REMARK VINA RESULT:      -0.4      0.975      1.383
REMARK  3 active torsions:
REMARK  status: ('A' for Active; 'I' for Inactive)
REMARK    1  A    between atoms: N_2  and  S_1 
REMARK    2  A    between atoms: C_3  and  S_1 
REMARK    3  A    between atoms: C_10  and  C_9 
ROOT
ATOM      1  C   UNL d   1      31.762  16.927 -24.487  0.00  0.00     0.104 A 
ATOM      2  C   UNL d   1      32.256  18.375 -23.857  0.00  0.00     0.000 A 
ATOM      3  C   UNL d   1      32.038  16.968 -23.712  0.00  0.00     0.013 A 
ATOM      4  C   UNL d   1      31.732  17.610 -24.951  0.00  0.00     0.013 A 
ATOM      5  C   UNL d   1      31.980  18.336 -24.636  0.00  0.00     0.001 A 
ATOM      6  C   UNL d   1      32.285  17.693 -23.397  0.00  0.00     0.001 A 
ENDROOT
BRANCH   1   7
ATOM      7  S   UNL d   1      31.517  16.202 -24.793  0.00  0.00     0.271 S 
ATOM      8  O   UNL d   1      32.294  15.984 -24.919  0.00  0.00    -0.200 OA
ATOM      9  O   UNL d   1      31.266  15.482 -25.097  0.00  0.00    -0.200 OA
BRANCH   7  10
ATOM     10  N   UNL d   1      30.730  16.414 -24.669  0.00  0.00    -0.226 N 
ATOM     11  C   UNL d   1      30.259  15.947 -24.168  0.00  0.00     0.111 A 
ATOM     12  C   UNL d   1      29.471  16.158 -24.043  0.00  0.00     0.100 A 
ATOM     13  N   UNL d   1      29.164  16.824 -24.413  0.00  0.00    -0.299 N 
ATOM     14  C   UNL d   1      29.627  17.285 -24.907  0.00  0.00     0.100 A 
ATOM     15  C   UNL d   1      28.368  17.031 -24.282  0.00  0.00     0.100 C 
ATOM     16  C   UNL d   1      30.414  17.078 -25.035  0.00  0.00     0.111 A 
ENDBRANCH   7  10
ENDBRANCH   1   7
BRANCH   2  17
ATOM     17  C   UNL d   1      32.504  19.090 -23.538  0.00  0.00     0.000 A 
ATOM     18  C   UNL d   1      32.770  19.697 -24.026  0.00  0.00     0.001 A 
ATOM     19  C   UNL d   1      33.017  20.412 -23.698  0.00  0.00     0.011 A 
ATOM     20  C   UNL d   1      32.997  20.521 -22.882  0.00  0.00     0.058 A 
ATOM     21  C   UNL d   1      32.726  19.904 -22.390  0.00  0.00     0.011 A 
ATOM     22 CL   UNL d   1      33.241  21.229 -22.558  0.00  0.00    -0.082 Cl
ATOM     23  C   UNL d   1      32.483  19.198 -22.722  0.00  0.00     0.001 A 
ENDBRANCH   2  17
TORSDOF 3
ENDMDL
