MODEL 1
REMARK VINA RESULT:       5.2      0.000      0.000
REMARK  6 active torsions:
REMARK  status: ('A' for Active; 'I' for Inactive)
REMARK    1  A    between atoms: C_7  and  C_1 
REMARK    2  A    between atoms: C_19  and  N_2 
REMARK    3  A    between atoms: C_18  and  N_3 
REMARK    4  A    between atoms: C_13  and  C_9 
REMARK    5  A    between atoms: O_20  and  C_13 
REMARK    6  A    between atoms: C_23  and  O_20 
ROOT
ATOM      1  C   UNL d   1     -42.093-122.507 -51.263  0.00  0.00     0.013 A 
ATOM      2  C   UNL d   1     -42.080-122.978 -51.946  0.00  0.00     0.030 A 
ATOM      3  C   UNL d   1     -41.755-122.695 -52.645  0.00  0.00     0.163 A 
ATOM      4  O   UNL d   1     -41.433-121.928 -52.675  0.00  0.00    -0.302 OA
ATOM      5  C   UNL d   1     -41.775-121.743 -51.284  0.00  0.00     0.023 A 
ATOM      6  C   UNL d   1     -41.444-121.454 -51.992  0.00  0.00     0.100 A 
ATOM      7  C   UNL d   1     -41.782-121.266 -50.610  0.00  0.00     0.002 A 
ATOM      8  C   UNL d   1     -41.124-120.686 -52.013  0.00  0.00     0.025 A 
ATOM      9  C   UNL d   1     -41.465-120.506 -50.631  0.00  0.00     0.000 A 
ATOM     10  C   UNL d   1     -41.133-120.213 -51.339  0.00  0.00     0.002 A 
ENDROOT
BRANCH   1  11
ATOM     11  C   UNL d   1     -42.420-122.794 -50.563  0.00  0.00     0.113 A 
ATOM     12  C   UNL d   1     -41.933-123.162 -50.003  0.00  0.00     0.271 A 
ATOM     13  N   UNL d   1     -42.255-123.449 -49.304  0.00  0.00    -0.250 N 
ATOM     14  O   UNL d   1     -41.125-123.240 -50.150  0.00  0.00    -0.266 OA
ATOM     15  C   UNL d   1     -43.060-123.371 -49.160  0.00  0.00     0.196 A 
ATOM     16  N   UNL d   1     -43.547-123.003 -49.720  0.00  0.00    -0.250 N 
ATOM     17  S   UNL d   1     -43.388-123.659 -48.456  0.00  0.00    -0.039 SA
ATOM     18  C   UNL d   1     -43.231-122.711 -50.426  0.00  0.00     0.271 A 
ATOM     19  O   UNL d   1     -43.715-122.345 -50.983  0.00  0.00    -0.266 OA
BRANCH  13  20
ATOM     20  C   UNL d   1     -41.770-123.816 -48.748  0.00  0.00     0.085 C 
ATOM     21  C   UNL d   1     -41.527-123.404 -48.079  0.00  0.00     0.021 C 
ENDBRANCH  13  20
BRANCH  16  22
ATOM     22  C   UNL d   1     -44.357-122.927 -49.569  0.00  0.00     0.085 C 
ATOM     23  C   UNL d   1     -44.865-123.560 -49.702  0.00  0.00     0.021 C 
ENDBRANCH  16  22
ENDBRANCH   1  11
BRANCH   3  24
ATOM     24  C   UNL d   1     -41.746-123.168 -53.316  0.00  0.00     0.323 C 
ATOM     25  O   UNL d   1     -41.230-123.809 -53.361  0.00  0.00    -0.257 OA
BRANCH  24  26
ATOM     26  O   UNL d   1     -42.252-123.003 -53.943  0.00  0.00    -0.270 OA
BRANCH  26  27
ATOM     27  C   UNL d   1     -41.964-123.005 -54.715  0.00  0.00     0.126 C 
ATOM     28  C   UNL d   1     -42.434-122.733 -55.333  0.00  0.00     0.029 C 
ENDBRANCH  26  27
ENDBRANCH  24  26
ENDBRANCH   3  24
TORSDOF 6
ENDMDL
