MODEL 1
REMARK VINA RESULT:       1.4      0.000      0.000
REMARK  3 active torsions:
REMARK  status: ('A' for Active; 'I' for Inactive)
REMARK    1  A    between atoms: N_2  and  C_1 
REMARK    2  A    between atoms: C_4  and  C_1 
REMARK       I    between atoms: C_3  and  N_2 
REMARK       I    between atoms: N_5  and  C_3 
REMARK       I    between atoms: C_6  and  N_5 
REMARK    3  A    between atoms: C_11  and  C_6 
ROOT
ATOM      1  N   UNL d   1     -42.017-122.193 -53.935  0.00  0.00    -0.159 NA
ATOM      2  C   UNL d   1     -41.831-121.379 -53.959  0.00  0.00     0.371 C 
ATOM      3  N   UNL d   1     -41.598-120.986 -53.270  0.00  0.00    -0.152 NA
ATOM      4  C   UNL d   1     -41.546-121.401 -52.548  0.00  0.00     0.283 C 
ATOM      5  O   UNL d   1     -41.887-120.999 -54.659  0.00  0.00    -0.243 OA
ATOM      6  O   UNL d   1     -41.317-121.016 -51.871  0.00  0.00    -0.265 OA
ENDROOT
BRANCH   1   7
ATOM      7  C   UNL d   1     -42.251-122.588 -54.622  0.00  0.00     0.386 A 
ATOM      8  O   UNL d   1     -42.643-121.943 -54.273  0.00  0.00    -0.281 OA
ATOM      9  C   UNL d   1     -43.302-121.770 -54.731  0.00  0.00     0.147 A 
ATOM     10  C   UNL d   1     -43.323-122.293 -55.351  0.00  0.00     0.147 A 
ATOM     11  O   UNL d   1     -42.657-122.797 -55.265  0.00  0.00    -0.281 OA
BRANCH   7  12
ATOM     12  C   UNL d   1     -41.700-123.191 -54.765  0.00  0.00     0.470 C 
ATOM     13  F   UNL d   1     -42.278-123.760 -54.587  0.00  0.00    -0.164 F 
ATOM     14  F   UNL d   1     -41.129-122.608 -54.941  0.00  0.00    -0.164 F 
ATOM     15  F   UNL d   1     -41.135-123.794 -54.912  0.00  0.00    -0.164 F 
ENDBRANCH   7  12
ENDBRANCH   1   7
BRANCH   4  16
ATOM     16  C   UNL d   1     -41.725-122.200 -52.512  0.00  0.00     0.058 A 
ATOM     17  C   UNL d   1     -41.128-122.763 -52.585  0.00  0.00     0.005 A 
ATOM     18  C   UNL d   1     -41.297-123.568 -52.550  0.00  0.00     0.000 A 
ATOM     19  C   UNL d   1     -42.086-123.804 -52.441  0.00  0.00     0.000 A 
ATOM     20  C   UNL d   1     -42.685-123.243 -52.368  0.00  0.00     0.000 A 
ATOM     21  C   UNL d   1     -42.506-122.452 -52.403  0.00  0.00     0.005 A 
ENDBRANCH   4  16
TORSDOF 3
ENDMDL
MODEL 2
REMARK VINA RESULT:       3.0      2.676      3.880
REMARK  3 active torsions:
REMARK  status: ('A' for Active; 'I' for Inactive)
REMARK    1  A    between atoms: N_2  and  C_1 
REMARK    2  A    between atoms: C_4  and  C_1 
REMARK       I    between atoms: C_3  and  N_2 
REMARK       I    between atoms: N_5  and  C_3 
REMARK       I    between atoms: C_6  and  N_5 
REMARK    3  A    between atoms: C_11  and  C_6 
ROOT
ATOM      1  N   UNL d   1     -42.146-122.412 -50.606  0.00  0.00    -0.159 NA
ATOM      2  C   UNL d   1     -41.998-121.606 -50.447  0.00  0.00     0.371 C 
ATOM      3  N   UNL d   1     -41.661-121.123 -51.029  0.00  0.00    -0.152 NA
ATOM      4  C   UNL d   1     -41.468-121.441 -51.776  0.00  0.00     0.283 C 
ATOM      5  O   UNL d   1     -42.190-121.320 -49.727  0.00  0.00    -0.243 OA
ATOM      6  O   UNL d   1     -41.138-120.968 -52.347  0.00  0.00    -0.265 OA
ENDROOT
BRANCH   1   7
ATOM      7  C   UNL d   1     -42.482-122.896 -50.027  0.00  0.00     0.386 A 
ATOM      8  O   UNL d   1     -41.678-122.688 -50.082  0.00  0.00    -0.281 OA
ATOM      9  C   UNL d   1     -41.280-123.048 -49.462  0.00  0.00     0.147 A 
ATOM     10  C   UNL d   1     -41.820-123.472 -49.027  0.00  0.00     0.147 A 
ATOM     11  O   UNL d   1     -42.565-123.364 -49.397  0.00  0.00    -0.281 OA
BRANCH   7  12
ATOM     12  C   UNL d   1     -43.293-122.953 -50.186  0.00  0.00     0.470 C 
ATOM     13  F   UNL d   1     -43.265-123.768 -50.032  0.00  0.00    -0.164 F 
ATOM     14  F   UNL d   1     -43.306-122.132 -50.337  0.00  0.00    -0.164 F 
ATOM     15  F   UNL d   1     -44.115-122.999 -50.349  0.00  0.00    -0.164 F 
ENDBRANCH   7  12
ENDBRANCH   1   7
BRANCH   4  16
ATOM     16  C   UNL d   1     -41.609-122.230 -51.943  0.00  0.00     0.058 A 
ATOM     17  C   UNL d   1     -42.238-122.447 -52.429  0.00  0.00     0.005 A 
ATOM     18  C   UNL d   1     -42.388-123.238 -52.603  0.00  0.00     0.000 A 
ATOM     19  C   UNL d   1     -41.890-123.817 -52.277  0.00  0.00     0.000 A 
ATOM     20  C   UNL d   1     -41.260-123.604 -51.790  0.00  0.00     0.000 A 
ATOM     21  C   UNL d   1     -41.123-122.821 -51.626  0.00  0.00     0.005 A 
ENDBRANCH   4  16
TORSDOF 3
ENDMDL
MODEL 3
REMARK VINA RESULT:       4.1      3.918      5.229
REMARK  3 active torsions:
REMARK  status: ('A' for Active; 'I' for Inactive)
REMARK    1  A    between atoms: N_2  and  C_1 
REMARK    2  A    between atoms: C_4  and  C_1 
REMARK       I    between atoms: C_3  and  N_2 
REMARK       I    between atoms: N_5  and  C_3 
REMARK       I    between atoms: C_6  and  N_5 
REMARK    3  A    between atoms: C_11  and  C_6 
ROOT
ATOM      1  N   UNL d   1     -42.129-123.055 -49.273  0.00  0.00    -0.159 NA
ATOM      2  C   UNL d   1     -41.457-123.548 -49.306  0.00  0.00     0.371 C 
ATOM      3  N   UNL d   1     -41.123-123.748 -50.036  0.00  0.00    -0.152 NA
ATOM      4  C   UNL d   1     -41.458-123.456 -50.742  0.00  0.00     0.283 C 
ATOM      5  O   UNL d   1     -41.151-123.817 -48.619  0.00  0.00    -0.243 OA
ATOM      6  O   UNL d   1     -41.132-123.650 -51.460  0.00  0.00    -0.265 OA
ENDROOT
BRANCH   1   7
ATOM      7  C   UNL d   1     -42.464-122.855 -48.544  0.00  0.00     0.386 A 
ATOM      8  O   UNL d   1     -41.651-122.883 -48.715  0.00  0.00    -0.281 OA
ATOM      9  C   UNL d   1     -41.242-122.677 -48.034  0.00  0.00     0.147 A 
ATOM     10  C   UNL d   1     -41.785-122.523 -47.450  0.00  0.00     0.147 A 
ATOM     11  O   UNL d   1     -42.543-122.640 -47.789  0.00  0.00    -0.281 OA
BRANCH   7  12
ATOM     12  C   UNL d   1     -43.288-122.899 -48.626  0.00  0.00     0.470 C 
ATOM     13  F   UNL d   1     -43.324-122.072 -48.696  0.00  0.00    -0.164 F 
ATOM     14  F   UNL d   1     -43.236-123.729 -48.554  0.00  0.00    -0.164 F 
ATOM     15  F   UNL d   1     -44.122-122.955 -48.707  0.00  0.00    -0.164 F 
ENDBRANCH   7  12
ENDBRANCH   1   7
BRANCH   4  16
ATOM     16  C   UNL d   1     -42.118-122.971 -50.722  0.00  0.00     0.058 A 
ATOM     17  C   UNL d   1     -42.037-122.155 -50.806  0.00  0.00     0.005 A 
ATOM     18  C   UNL d   1     -42.694-121.659 -50.787  0.00  0.00     0.000 A 
ATOM     19  C   UNL d   1     -43.445-121.997 -50.681  0.00  0.00     0.000 A 
ATOM     20  C   UNL d   1     -43.529-122.813 -50.598  0.00  0.00     0.000 A 
ATOM     21  C   UNL d   1     -42.874-123.292 -50.618  0.00  0.00     0.005 A 
ENDBRANCH   4  16
TORSDOF 3
ENDMDL
