MODEL 1
REMARK VINA RESULT:       5.2      0.000      0.000
REMARK  8 active torsions:
REMARK  status: ('A' for Active; 'I' for Inactive)
REMARK    1  A    between atoms: C_11  and  C_1 
REMARK    2  A    between atoms: C_10  and  C_2 
REMARK    3  A    between atoms: C_4  and  C_3 
REMARK    4  A    between atoms: C_14  and  C_9 
REMARK    5  A    between atoms: O_17  and  C_10 
REMARK    6  A    between atoms: O_18  and  C_11 
REMARK    7  A    between atoms: C_24  and  O_17 
REMARK    8  A    between atoms: C_23  and  O_18 
ROOT
ATOM      1  C   UNL d   1      29.949  17.579 -24.279  0.00  0.00     0.083 A 
ATOM      2  C   UNL d   1      30.820  16.588 -23.667  0.00  0.00     0.083 A 
ATOM      3  C   UNL d   1      30.697  17.277 -24.104  0.00  0.00     0.036 A 
ATOM      4  C   UNL d   1      30.162  16.184 -23.393  0.00  0.00     0.087 A 
ATOM      5  C   UNL d   1      29.261  17.141 -23.981  0.00  0.00     0.087 A 
ATOM      6  N   UNL d   1      29.390  16.441 -23.537  0.00  0.00    -0.245 NA
ATOM      7  C   UNL d   1      30.266  15.453 -22.928  0.00  0.00     0.021 C 
ATOM      8  C   UNL d   1      28.495  17.400 -24.127  0.00  0.00     0.021 C 
ENDROOT
BRANCH   3   9
ATOM      9  C   UNL d   1      31.349  17.704 -24.394  0.00  0.00     0.100 A 
ATOM     10  O   UNL d   1      31.592  18.469 -24.155  0.00  0.00    -0.307 OA
ATOM     11  C   UNL d   1      32.266  18.646 -24.605  0.00  0.00     0.100 A 
ATOM     12  C   UNL d   1      32.417  18.002 -25.097  0.00  0.00     0.027 A 
ATOM     13  C   UNL d   1      31.864  17.432 -24.970  0.00  0.00     0.027 A 
BRANCH  11  14
ATOM     14  C   UNL d   1      32.590  19.393 -24.444  0.00  0.00     0.023 A 
ATOM     15  C   UNL d   1      32.641  19.933 -25.058  0.00  0.00     0.002 A 
ATOM     16  C   UNL d   1      32.953  20.671 -24.931  0.00  0.00     0.000 A 
ATOM     17  C   UNL d   1      33.229  20.871 -24.132  0.00  0.00     0.000 A 
ATOM     18  C   UNL d   1      33.168  20.316 -23.532  0.00  0.00     0.000 A 
ATOM     19  C   UNL d   1      32.844  19.577 -23.710  0.00  0.00     0.002 A 
ENDBRANCH  11  14
ENDBRANCH   3   9
BRANCH   2  20
ATOM     20  C   UNL d   1      31.573  16.288 -23.495  0.00  0.00     0.302 C 
ATOM     21  O   UNL d   1      32.079  16.079 -24.092  0.00  0.00    -0.259 OA
BRANCH  20  22
ATOM     22  O   UNL d   1      31.826  16.196 -22.716  0.00  0.00    -0.271 OA
BRANCH  22  23
ATOM     23  C   UNL d   1      32.733  16.230 -22.371  0.00  0.00     0.126 C 
ATOM     24  C   UNL d   1      32.791  16.034 -21.575  0.00  0.00     0.029 C 
ENDBRANCH  22  23
ENDBRANCH  20  22
ENDBRANCH   2  20
BRANCH   1  25
ATOM     25  C   UNL d   1      29.814  18.293 -24.731  0.00  0.00     0.302 C 
ATOM     26  O   UNL d   1      30.425  18.674 -25.087  0.00  0.00    -0.259 OA
BRANCH  25  27
ATOM     27  O   UNL d   1      29.031  18.575 -24.788  0.00  0.00    -0.271 OA
BRANCH  27  28
ATOM     28  C   UNL d   1      28.843  19.342 -25.050  0.00  0.00     0.126 C 
ATOM     29  C   UNL d   1      27.983  19.307 -25.093  0.00  0.00     0.029 C 
ENDBRANCH  27  28
ENDBRANCH  25  27
ENDBRANCH   1  25
TORSDOF 8
ENDMDL
MODEL 2
REMARK VINA RESULT:       6.4      0.692      2.971
REMARK  8 active torsions:
REMARK  status: ('A' for Active; 'I' for Inactive)
REMARK    1  A    between atoms: C_11  and  C_1 
REMARK    2  A    between atoms: C_10  and  C_2 
REMARK    3  A    between atoms: C_4  and  C_3 
REMARK    4  A    between atoms: C_14  and  C_9 
REMARK    5  A    between atoms: O_17  and  C_10 
REMARK    6  A    between atoms: O_18  and  C_11 
REMARK    7  A    between atoms: C_24  and  O_17 
REMARK    8  A    between atoms: C_23  and  O_18 
ROOT
ATOM      1  C   UNL d   1      31.295  16.436 -23.091  0.00  0.00     0.083 A 
ATOM      2  C   UNL d   1      30.284  17.018 -23.959  0.00  0.00     0.083 A 
ATOM      3  C   UNL d   1      31.064  16.939 -23.703  0.00  0.00     0.036 A 
ATOM      4  C   UNL d   1      29.709  16.572 -23.583  0.00  0.00     0.087 A 
ATOM      5  C   UNL d   1      30.675  15.970 -22.702  0.00  0.00     0.087 A 
ATOM      6  N   UNL d   1      29.883  16.053 -22.964  0.00  0.00    -0.245 NA
ATOM      7  C   UNL d   1      28.876  16.637 -23.835  0.00  0.00     0.021 C 
ATOM      8  C   UNL d   1      30.853  15.454 -22.086  0.00  0.00     0.021 C 
ENDROOT
BRANCH   3   9
ATOM      9  C   UNL d   1      31.665  17.382 -24.070  0.00  0.00     0.100 A 
ATOM     10  O   UNL d   1      31.816  18.200 -23.971  0.00  0.00    -0.307 OA
ATOM     11  C   UNL d   1      32.469  18.372 -24.453  0.00  0.00     0.100 A 
ATOM     12  C   UNL d   1      32.698  17.674 -24.826  0.00  0.00     0.027 A 
ATOM     13  C   UNL d   1      32.213  17.075 -24.596  0.00  0.00     0.027 A 
BRANCH  11  14
ATOM     14  C   UNL d   1      32.703  19.168 -24.427  0.00  0.00     0.023 A 
ATOM     15  C   UNL d   1      32.737  19.537 -23.697  0.00  0.00     0.002 A 
ATOM     16  C   UNL d   1      32.962  20.314 -23.639  0.00  0.00     0.000 A 
ATOM     17  C   UNL d   1      33.164  20.741 -24.368  0.00  0.00     0.000 A 
ATOM     18  C   UNL d   1      33.124  20.352 -25.089  0.00  0.00     0.000 A 
ATOM     19  C   UNL d   1      32.889  19.560 -25.097  0.00  0.00     0.002 A 
ENDBRANCH  11  14
ENDBRANCH   3   9
BRANCH   2  20
ATOM     20  C   UNL d   1      30.057  17.524 -24.575  0.00  0.00     0.302 C 
ATOM     21  O   UNL d   1      30.598  18.015 -24.925  0.00  0.00    -0.259 OA
BRANCH  20  22
ATOM     22  O   UNL d   1      29.279  17.542 -24.846  0.00  0.00    -0.271 OA
BRANCH  22  23
ATOM     23  C   UNL d   1      28.560  18.135 -24.574  0.00  0.00     0.126 C 
ATOM     24  C   UNL d   1      28.485  18.801 -25.048  0.00  0.00     0.029 C 
ENDBRANCH  22  23
ENDBRANCH  20  22
ENDBRANCH   2  20
BRANCH   1  25
ATOM     25  C   UNL d   1      32.103  16.350 -22.820  0.00  0.00     0.302 C 
ATOM     26  O   UNL d   1      32.580  15.783 -23.130  0.00  0.00    -0.259 OA
BRANCH  25  27
ATOM     27  O   UNL d   1      32.372  16.871 -22.228  0.00  0.00    -0.271 OA
BRANCH  27  28
ATOM     28  C   UNL d   1      33.168  16.915 -21.991  0.00  0.00     0.126 C 
ATOM     29  C   UNL d   1      33.113  17.404 -21.283  0.00  0.00     0.029 C 
ENDBRANCH  27  28
ENDBRANCH  25  27
ENDBRANCH   1  25
TORSDOF 8
ENDMDL
