MODEL 1
REMARK VINA RESULT:      75.9      0.000      0.000
REMARK  6 active torsions:
REMARK  status: ('A' for Active; 'I' for Inactive)
REMARK    1  A    between atoms: C_9  and  N_1 
REMARK    2  A    between atoms: N_2  and  C_8 
REMARK       I    between atoms: C_3  and  N_5 
REMARK    3  A    between atoms: C_12  and  C_3 
REMARK    4  A    between atoms: C_4  and  C_11 
REMARK       I    between atoms: N_6  and  C_4 
REMARK    5  A    between atoms: N_5  and  C_7 
REMARK    6  A    between atoms: C_10  and  N_6 
ROOT
ATOM      1  C   UNL d   1     -50.384  25.418  33.713  0.00  0.00     0.121 A 
ATOM      2  C   UNL d   1     -51.125  25.169  33.452  0.00  0.00     0.105 A 
ATOM      3  N   UNL d   1     -49.869  24.089  33.689  0.00  0.00    -0.241 NA
ATOM      4  C   UNL d   1     -51.233  24.342  33.306  0.00  0.00     0.042 A 
ATOM      5  C   UNL d   1     -49.752  24.902  33.835  0.00  0.00     0.120 A 
ATOM      6  C   UNL d   1     -50.613  23.828  33.426  0.00  0.00     0.101 A 
ENDROOT
BRANCH   1   7
ATOM      7  N   UNL d   1     -50.279  26.248  33.858  0.00  0.00    -0.205 NA
ATOM      8  C   UNL d   1     -49.527  26.608  33.707  0.00  0.00     0.279 C 
ATOM      9  O   UNL d   1     -48.896  26.125  33.412  0.00  0.00    -0.265 OA
BRANCH   8  10
ATOM     10  C   UNL d   1     -49.417  27.417  33.846  0.00  0.00     0.059 A 
ATOM     11  C   UNL d   1     -48.906  27.665  34.446  0.00  0.00     0.028 A 
ATOM     12  C   UNL d   1     -48.802  28.456  34.577  0.00  0.00     0.127 A 
ATOM     13  C   UNL d   1     -49.192  29.007  34.130  0.00  0.00     0.024 A 
ATOM     14  C   UNL d   1     -49.704  28.778  33.528  0.00  0.00     0.002 A 
ATOM     15  C   UNL d   1     -49.819  27.966  33.383  0.00  0.00     0.005 A 
BRANCH  12  16
ATOM     16  N   UNL d   1     -48.308  28.720  35.159  0.00  0.00    -0.114 N 
ATOM     17  O   UNL d   1     -48.543  29.025  35.894  0.00  0.00    -0.532 OA
ATOM     18  O   UNL d   1     -47.494  28.721  35.096  0.00  0.00    -0.532 OA
ENDBRANCH  12  16
ENDBRANCH   8  10
ENDBRANCH   1   7
BRANCH   2  19
ATOM     19  N   UNL d   1     -51.757  25.691  33.330  0.00  0.00    -0.206 NA
ATOM     20  C   UNL d   1     -52.535  25.462  33.489  0.00  0.00     0.279 C 
ATOM     21  O   UNL d   1     -53.152  25.971  33.370  0.00  0.00    -0.265 OA
BRANCH  20  22
ATOM     22  C   UNL d   1     -52.685  24.678  33.782  0.00  0.00     0.059 A 
ATOM     23  C   UNL d   1     -53.003  24.581  34.536  0.00  0.00     0.028 A 
ATOM     24  C   UNL d   1     -53.148  23.827  34.819  0.00  0.00     0.127 A 
ATOM     25  C   UNL d   1     -52.983  23.192  34.369  0.00  0.00     0.024 A 
ATOM     26  C   UNL d   1     -52.659  23.271  33.598  0.00  0.00     0.002 A 
ATOM     27  C   UNL d   1     -52.510  24.036  33.306  0.00  0.00     0.005 A 
BRANCH  24  28
ATOM     28  N   UNL d   1     -53.461  23.708  35.561  0.00  0.00    -0.114 N 
ATOM     29  O   UNL d   1     -54.152  24.077  35.851  0.00  0.00    -0.532 OA
ATOM     30  O   UNL d   1     -53.138  23.211  36.119  0.00  0.00    -0.532 OA
ENDBRANCH  24  28
ENDBRANCH  20  22
ENDBRANCH   2  19
TORSDOF 6
ENDMDL
