MODEL 1
REMARK VINA RESULT:      -4.7      0.000      0.000
REMARK  4 active torsions:
REMARK  status: ('A' for Active; 'I' for Inactive)
REMARK    1  A    between atoms: C_5  and  C_1 
REMARK    2  A    between atoms: C_9  and  C_6 
REMARK    3  A    between atoms: C_10  and  C_9 
REMARK    4  A    between atoms: C_11  and  C_10 
ROOT
ATOM      1  C   UNL d   1      56.789  -0.816  31.783  0.00  0.00     0.169 A 
ATOM      2  N   UNL d   1      56.426  -1.457  32.146  0.00  0.00    -0.142 NA
ATOM      3  C   UNL d   1      56.616  -0.141  32.227  0.00  0.00     0.048 A 
ATOM      4  N   UNL d   1      56.026  -1.189  32.816  0.00  0.00    -0.148 NA
ATOM      5  C   UNL d   1      56.145  -0.371  32.865  0.00  0.00     0.105 A 
ENDROOT
BRANCH   5   6
ATOM      6  C   UNL d   1      55.838   0.127  33.459  0.00  0.00     0.021 C 
BRANCH   6   7
ATOM      7  C   UNL d   1      55.035   0.120  33.633  0.00  0.00     0.002 C 
BRANCH   7   8
ATOM      8  C   UNL d   1      54.732   0.623  34.209  0.00  0.00     0.000 C 
ATOM      9  C   UNL d   1      53.914   0.682  34.311  0.00  0.00     0.000 C 
ENDBRANCH   7   8
ENDBRANCH   6   7
ENDBRANCH   5   6
BRANCH   1  10
ATOM     10  C   UNL d   1      57.245  -0.840  31.097  0.00  0.00     0.231 C 
ATOM     11  O   UNL d   1      57.484  -1.567  30.790  0.00  0.00    -0.643 OA
ATOM     12  O   UNL d   1      57.462  -0.139  30.717  0.00  0.00    -0.643 OA
ENDBRANCH   1  10
TORSDOF 4
ENDMDL
MODEL 2
REMARK VINA RESULT:      -4.7      0.891      1.159
REMARK  4 active torsions:
REMARK  status: ('A' for Active; 'I' for Inactive)
REMARK    1  A    between atoms: C_5  and  C_1 
REMARK    2  A    between atoms: C_9  and  C_6 
REMARK    3  A    between atoms: C_10  and  C_9 
REMARK    4  A    between atoms: C_11  and  C_10 
ROOT
ATOM      1  C   UNL d   1      57.377  -0.296  31.104  0.00  0.00     0.169 A 
ATOM      2  N   UNL d   1      57.131  -1.079  31.056  0.00  0.00    -0.142 NA
ATOM      3  C   UNL d   1      57.090   0.018  31.812  0.00  0.00     0.048 A 
ATOM      4  N   UNL d   1      56.691  -1.257  31.730  0.00  0.00    -0.148 NA
ATOM      5  C   UNL d   1      56.666  -0.575  32.199  0.00  0.00     0.105 A 
ENDROOT
BRANCH   5   6
ATOM      6  C   UNL d   1      56.277  -0.508  32.934  0.00  0.00     0.021 C 
BRANCH   6   7
ATOM      7  C   UNL d   1      55.576  -0.084  32.995  0.00  0.00     0.002 C 
BRANCH   7   8
ATOM      8  C   UNL d   1      55.170  -0.059  33.710  0.00  0.00     0.000 C 
ATOM      9  C   UNL d   1      54.748   0.621  33.917  0.00  0.00     0.000 C 
ENDBRANCH   7   8
ENDBRANCH   6   7
ENDBRANCH   5   6
BRANCH   1  10
ATOM     10  C   UNL d   1      57.830   0.106  30.546  0.00  0.00     0.231 C 
ATOM     11  O   UNL d   1      58.642   0.196  30.666  0.00  0.00    -0.643 OA
ATOM     12  O   UNL d   1      57.475   0.418  29.868  0.00  0.00    -0.643 OA
ENDBRANCH   1  10
TORSDOF 4
ENDMDL
MODEL 3
REMARK VINA RESULT:      -4.1      1.864      3.442
REMARK  4 active torsions:
REMARK  status: ('A' for Active; 'I' for Inactive)
REMARK    1  A    between atoms: C_5  and  C_1 
REMARK    2  A    between atoms: C_9  and  C_6 
REMARK    3  A    between atoms: C_10  and  C_9 
REMARK    4  A    between atoms: C_11  and  C_10 
ROOT
ATOM      1  C   UNL d   1      56.353  -0.912  32.356  0.00  0.00     0.169 A 
ATOM      2  N   UNL d   1      56.635  -1.476  31.828  0.00  0.00    -0.142 NA
ATOM      3  C   UNL d   1      56.631  -0.173  32.110  0.00  0.00     0.048 A 
ATOM      4  N   UNL d   1      57.087  -1.095  31.253  0.00  0.00    -0.148 NA
ATOM      5  C   UNL d   1      57.084  -0.286  31.430  0.00  0.00     0.105 A 
ENDROOT
BRANCH   5   6
ATOM      6  C   UNL d   1      57.474   0.306  30.990  0.00  0.00     0.021 C 
BRANCH   6   7
ATOM      7  C   UNL d   1      58.013   0.101  30.405  0.00  0.00     0.002 C 
BRANCH   7   8
ATOM      8  C   UNL d   1      58.346   0.682  29.927  0.00  0.00     0.000 C 
ATOM      9  C   UNL d   1      58.879   0.467  29.333  0.00  0.00     0.000 C 
ENDBRANCH   7   8
ENDBRANCH   6   7
ENDBRANCH   5   6
BRANCH   1  10
ATOM     10  C   UNL d   1      55.879  -1.056  33.013  0.00  0.00     0.231 C 
ATOM     11  O   UNL d   1      55.884  -1.802  33.366  0.00  0.00    -0.643 OA
ATOM     12  O   UNL d   1      55.399  -0.457  33.319  0.00  0.00    -0.643 OA
ENDBRANCH   1  10
TORSDOF 4
ENDMDL
MODEL 4
REMARK VINA RESULT:      -4.1      2.012      3.365
REMARK  4 active torsions:
REMARK  status: ('A' for Active; 'I' for Inactive)
REMARK    1  A    between atoms: C_5  and  C_1 
REMARK    2  A    between atoms: C_9  and  C_6 
REMARK    3  A    between atoms: C_10  and  C_9 
REMARK    4  A    between atoms: C_11  and  C_10 
ROOT
ATOM      1  C   UNL d   1      55.585  -0.002  33.377  0.00  0.00     0.169 A 
ATOM      2  N   UNL d   1      55.510  -0.751  33.047  0.00  0.00    -0.142 NA
ATOM      3  C   UNL d   1      56.246   0.360  33.036  0.00  0.00     0.048 A 
ATOM      4  N   UNL d   1      56.118  -0.861  32.502  0.00  0.00    -0.148 NA
ATOM      5  C   UNL d   1      56.575  -0.169  32.496  0.00  0.00     0.105 A 
ENDROOT
BRANCH   5   6
ATOM      6  C   UNL d   1      57.250  -0.040  32.023  0.00  0.00     0.021 C 
BRANCH   6   7
ATOM      7  C   UNL d   1      57.168   0.163  31.231  0.00  0.00     0.002 C 
BRANCH   7   8
ATOM      8  C   UNL d   1      57.835   0.299  30.768  0.00  0.00     0.000 C 
ATOM      9  C   UNL d   1      57.755   0.679  30.038  0.00  0.00     0.000 C 
ENDBRANCH   7   8
ENDBRANCH   6   7
ENDBRANCH   5   6
BRANCH   1  10
ATOM     10  C   UNL d   1      55.091   0.330  33.946  0.00  0.00     0.231 C 
ATOM     11  O   UNL d   1      54.381   0.682  33.716  0.00  0.00    -0.643 OA
ATOM     12  O   UNL d   1      55.305   0.312  34.744  0.00  0.00    -0.643 OA
ENDBRANCH   1  10
TORSDOF 4
ENDMDL
MODEL 5
REMARK VINA RESULT:      -3.3      8.552      9.330
REMARK  4 active torsions:
REMARK  status: ('A' for Active; 'I' for Inactive)
REMARK    1  A    between atoms: C_5  and  C_1 
REMARK    2  A    between atoms: C_9  and  C_6 
REMARK    3  A    between atoms: C_10  and  C_9 
REMARK    4  A    between atoms: C_11  and  C_10 
ROOT
ATOM      1  C   UNL d   1      59.840  -7.104  35.955  0.00  0.00     0.169 A 
ATOM      2  N   UNL d   1      59.171  -7.398  36.330  0.00  0.00    -0.142 NA
ATOM      3  C   UNL d   1      60.132  -7.697  35.457  0.00  0.00     0.048 A 
ATOM      4  N   UNL d   1      59.041  -8.170  36.071  0.00  0.00    -0.148 NA
ATOM      5  C   UNL d   1      59.639  -8.354  35.529  0.00  0.00     0.105 A 
ENDROOT
BRANCH   5   6
ATOM      6  C   UNL d   1      59.721  -9.082  35.129  0.00  0.00     0.021 C 
BRANCH   6   7
ATOM      7  C   UNL d   1      59.962  -9.099  34.343  0.00  0.00     0.002 C 
BRANCH   7   8
ATOM      8  C   UNL d   1      59.925  -9.800  33.915  0.00  0.00     0.000 C 
ATOM      9  C   UNL d   1      59.984  -9.778  33.090  0.00  0.00     0.000 C 
ENDBRANCH   7   8
ENDBRANCH   6   7
ENDBRANCH   5   6
BRANCH   1  10
ATOM     10  C   UNL d   1      60.164  -6.354  36.055  0.00  0.00     0.231 C 
ATOM     11  O   UNL d   1      60.942  -6.277  36.320  0.00  0.00    -0.643 OA
ATOM     12  O   UNL d   1      59.714  -5.681  35.890  0.00  0.00    -0.643 OA
ENDBRANCH   1  10
TORSDOF 4
ENDMDL
MODEL 6
REMARK VINA RESULT:      -2.8      8.843      9.426
REMARK  4 active torsions:
REMARK  status: ('A' for Active; 'I' for Inactive)
REMARK    1  A    between atoms: C_5  and  C_1 
REMARK    2  A    between atoms: C_9  and  C_6 
REMARK    3  A    between atoms: C_10  and  C_9 
REMARK    4  A    between atoms: C_11  and  C_10 
ROOT
ATOM      1  C   UNL d   1      60.015  -9.414  33.469  0.00  0.00     0.169 A 
ATOM      2  N   UNL d   1      59.264  -9.581  33.760  0.00  0.00    -0.142 NA
ATOM      3  C   UNL d   1      60.414  -8.968  34.040  0.00  0.00     0.048 A 
ATOM      4  N   UNL d   1      59.191  -9.243  34.508  0.00  0.00    -0.148 NA
ATOM      5  C   UNL d   1      59.906  -8.862  34.681  0.00  0.00     0.105 A 
ENDROOT
BRANCH   5   6
ATOM      6  C   UNL d   1      60.074  -8.446  35.384  0.00  0.00     0.021 C 
BRANCH   6   7
ATOM      7  C   UNL d   1      59.691  -7.738  35.549  0.00  0.00     0.002 C 
BRANCH   7   8
ATOM      8  C   UNL d   1      59.864  -7.326  36.240  0.00  0.00     0.000 C 
ATOM      9  C   UNL d   1      59.747  -6.508  36.268  0.00  0.00     0.000 C 
ENDBRANCH   7   8
ENDBRANCH   6   7
ENDBRANCH   5   6
BRANCH   1  10
ATOM     10  C   UNL d   1      60.317  -9.648  32.740  0.00  0.00     0.231 C 
ATOM     11  O   UNL d   1      61.133  -9.713  32.637  0.00  0.00    -0.643 OA
ATOM     12  O   UNL d   1      59.807  -9.817  32.113  0.00  0.00    -0.643 OA
ENDBRANCH   1  10
TORSDOF 4
ENDMDL
MODEL 7
REMARK VINA RESULT:      -2.4      4.085      5.480
REMARK  4 active torsions:
REMARK  status: ('A' for Active; 'I' for Inactive)
REMARK    1  A    between atoms: C_5  and  C_1 
REMARK    2  A    between atoms: C_9  and  C_6 
REMARK    3  A    between atoms: C_10  and  C_9 
REMARK    4  A    between atoms: C_11  and  C_10 
ROOT
ATOM      1  C   UNL d   1      58.527  -0.767  29.499  0.00  0.00     0.169 A 
ATOM      2  N   UNL d   1      58.094  -1.305  29.946  0.00  0.00    -0.142 NA
ATOM      3  C   UNL d   1      59.037  -1.196  29.010  0.00  0.00     0.048 A 
ATOM      4  N   UNL d   1      58.330  -2.067  29.740  0.00  0.00    -0.148 NA
ATOM      5  C   UNL d   1      58.915  -1.999  29.159  0.00  0.00     0.105 A 
ENDROOT
BRANCH   5   6
ATOM      6  C   UNL d   1      59.309  -2.636  28.792  0.00  0.00     0.021 C 
BRANCH   6   7
ATOM      7  C   UNL d   1      59.948  -2.997  29.162  0.00  0.00     0.002 C 
BRANCH   7   8
ATOM      8  C   UNL d   1      60.330  -3.631  28.802  0.00  0.00     0.000 C 
ATOM      9  C   UNL d   1      61.022  -3.935  29.137  0.00  0.00     0.000 C 
ENDBRANCH   7   8
ENDBRANCH   6   7
ENDBRANCH   5   6
BRANCH   1  10
ATOM     10  C   UNL d   1      58.464   0.053  29.531  0.00  0.00     0.231 C 
ATOM     11  O   UNL d   1      57.797   0.426  29.219  0.00  0.00    -0.643 OA
ATOM     12  O   UNL d   1      59.067   0.504  29.874  0.00  0.00    -0.643 OA
ENDBRANCH   1  10
TORSDOF 4
ENDMDL
MODEL 8
REMARK VINA RESULT:      -2.2      2.479      4.421
REMARK  4 active torsions:
REMARK  status: ('A' for Active; 'I' for Inactive)
REMARK    1  A    between atoms: C_5  and  C_1 
REMARK    2  A    between atoms: C_9  and  C_6 
REMARK    3  A    between atoms: C_10  and  C_9 
REMARK    4  A    between atoms: C_11  and  C_10 
ROOT
ATOM      1  C   UNL d   1      57.487   0.493  31.510  0.00  0.00     0.169 A 
ATOM      2  N   UNL d   1      57.006   0.566  30.847  0.00  0.00    -0.142 NA
ATOM      3  C   UNL d   1      58.274   0.521  31.257  0.00  0.00     0.048 A 
ATOM      4  N   UNL d   1      57.486   0.640  30.181  0.00  0.00    -0.148 NA
ATOM      5  C   UNL d   1      58.273   0.612  30.437  0.00  0.00     0.105 A 
ENDROOT
BRANCH   5   6
ATOM      6  C   UNL d   1      58.944   0.668  29.943  0.00  0.00     0.021 C 
BRANCH   6   7
ATOM      7  C   UNL d   1      59.317  -0.012  29.672  0.00  0.00     0.002 C 
BRANCH   7   8
ATOM      8  C   UNL d   1      59.961   0.044  29.164  0.00  0.00     0.000 C 
ATOM      9  C   UNL d   1      60.383  -0.637  28.962  0.00  0.00     0.000 C 
ENDBRANCH   7   8
ENDBRANCH   6   7
ENDBRANCH   5   6
BRANCH   1  10
ATOM     10  C   UNL d   1      57.233   0.406  32.288  0.00  0.00     0.231 C 
ATOM     11  O   UNL d   1      57.707   0.678  32.906  0.00  0.00    -0.643 OA
ATOM     12  O   UNL d   1      56.506   0.048  32.451  0.00  0.00    -0.643 OA
ENDBRANCH   1  10
TORSDOF 4
ENDMDL
MODEL 9
REMARK VINA RESULT:      -1.7      9.535      9.706
REMARK  4 active torsions:
REMARK  status: ('A' for Active; 'I' for Inactive)
REMARK    1  A    between atoms: C_5  and  C_1 
REMARK    2  A    between atoms: C_9  and  C_6 
REMARK    3  A    between atoms: C_10  and  C_9 
REMARK    4  A    between atoms: C_11  and  C_10 
ROOT
ATOM      1  C   UNL d   1      58.278  -9.706  32.039  0.00  0.00     0.169 A 
ATOM      2  N   UNL d   1      57.720  -9.513  32.611  0.00  0.00    -0.142 NA
ATOM      3  C   UNL d   1      59.004  -9.816  32.421  0.00  0.00     0.048 A 
ATOM      4  N   UNL d   1      58.090  -9.501  33.347  0.00  0.00    -0.148 NA
ATOM      5  C   UNL d   1      58.887  -9.689  33.228  0.00  0.00     0.105 A 
ENDROOT
BRANCH   5   6
ATOM      6  C   UNL d   1      59.466  -9.740  33.826  0.00  0.00     0.021 C 
BRANCH   6   7
ATOM      7  C   UNL d   1      59.691  -9.069  34.244  0.00  0.00     0.002 C 
BRANCH   7   8
ATOM      8  C   UNL d   1      60.411  -9.052  34.642  0.00  0.00     0.000 C 
ATOM      9  C   UNL d   1      60.631  -8.373  35.059  0.00  0.00     0.000 C 
ENDBRANCH   7   8
ENDBRANCH   6   7
ENDBRANCH   5   6
BRANCH   1  10
ATOM     10  C   UNL d   1      58.142  -9.778  31.230  0.00  0.00     0.231 C 
ATOM     11  O   UNL d   1      57.368  -9.818  30.948  0.00  0.00    -0.643 OA
ATOM     12  O   UNL d   1      58.777  -9.810  30.702  0.00  0.00    -0.643 OA
ENDBRANCH   1  10
TORSDOF 4
ENDMDL
