MODEL 1
REMARK VINA RESULT:      -4.4      0.000      0.000
REMARK  4 active torsions:
REMARK  status: ('A' for Active; 'I' for Inactive)
REMARK    1  A    between atoms: N_2  and  S_1 
REMARK    2  A    between atoms: C_3  and  S_1 
REMARK    3  A    between atoms: C_5  and  N_4 
REMARK    4  A    between atoms: O_17  and  C_14 
ROOT
ATOM      1  N   UNL d   1      58.057   0.019  29.914  0.00  0.00    -0.226 N 
ATOM      2  N   UNL d   1      57.328  -0.181  31.366  0.00  0.00    -0.299 N 
ATOM      3  C   UNL d   1      57.822   0.682  30.352  0.00  0.00     0.111 A 
ATOM      4  C   UNL d   1      57.926  -0.740  30.204  0.00  0.00     0.111 A 
ATOM      5  C   UNL d   1      57.455   0.577  31.083  0.00  0.00     0.100 A 
ATOM      6  C   UNL d   1      57.558  -0.837  30.936  0.00  0.00     0.100 A 
ENDROOT
BRANCH   1   7
ATOM      7  S   UNL d   1      58.424   0.120  29.182  0.00  0.00     0.272 S 
ATOM      8  O   UNL d   1      58.784   0.221  28.455  0.00  0.00    -0.200 OA
ATOM      9  O   UNL d   1      57.684   0.205  28.827  0.00  0.00    -0.200 OA
BRANCH   7  10
ATOM     10  C   UNL d   1      59.160   0.035  29.544  0.00  0.00     0.106 A 
ATOM     11  C   UNL d   1      59.565  -0.685  29.505  0.00  0.00     0.037 A 
ATOM     12  C   UNL d   1      60.301  -0.763  29.869  0.00  0.00     0.095 A 
ATOM     13  C   UNL d   1      60.632  -0.121  30.273  0.00  0.00     0.024 A 
ATOM     14  C   UNL d   1      60.226   0.595  30.311  0.00  0.00     0.003 A 
ATOM     15  C   UNL d   1      59.490   0.673  29.946  0.00  0.00     0.013 A 
BRANCH  12  16
ATOM     16  O   UNL d   1      60.707  -1.478  29.832  0.00  0.00    -0.328 OA
ATOM     17  C   UNL d   1      61.133  -1.677  29.154  0.00  0.00     0.181 C 
ENDBRANCH  12  16
ENDBRANCH   7  10
ENDBRANCH   1   7
BRANCH   2  18
ATOM     18  C   UNL d   1      56.961  -0.286  32.097  0.00  0.00     0.092 A 
ATOM     19  C   UNL d   1      56.529  -0.969  32.243  0.00  0.00     0.156 A 
ATOM     20  F   UNL d   1      56.490  -1.523  31.626  0.00  0.00    -0.203 F 
ATOM     21  C   UNL d   1      56.157  -1.086  32.971  0.00  0.00     0.031 A 
ATOM     22  C   UNL d   1      56.226  -0.500  33.559  0.00  0.00     0.002 A 
ATOM     23  C   UNL d   1      56.661   0.187  33.411  0.00  0.00     0.002 A 
ATOM     24  C   UNL d   1      57.028   0.292  32.680  0.00  0.00     0.020 A 
ENDBRANCH   2  18
TORSDOF 4
ENDMDL
MODEL 2
REMARK VINA RESULT:      -4.2      1.134      1.598
REMARK  4 active torsions:
REMARK  status: ('A' for Active; 'I' for Inactive)
REMARK    1  A    between atoms: N_2  and  S_1 
REMARK    2  A    between atoms: C_3  and  S_1 
REMARK    3  A    between atoms: C_5  and  N_4 
REMARK    4  A    between atoms: O_17  and  C_14 
ROOT
ATOM      1  N   UNL d   1      59.166  -0.118  29.681  0.00  0.00    -0.226 N 
ATOM      2  N   UNL d   1      58.077  -0.073  30.902  0.00  0.00    -0.299 N 
ATOM      3  C   UNL d   1      58.359  -0.047  29.510  0.00  0.00     0.111 A 
ATOM      4  C   UNL d   1      59.425  -0.165  30.460  0.00  0.00     0.111 A 
ATOM      5  C   UNL d   1      57.813  -0.025  30.128  0.00  0.00     0.100 A 
ATOM      6  C   UNL d   1      58.873  -0.142  31.073  0.00  0.00     0.100 A 
ENDROOT
BRANCH   1   7
ATOM      7  S   UNL d   1      59.715  -0.140  29.065  0.00  0.00     0.272 S 
ATOM      8  O   UNL d   1      60.258  -0.159  28.455  0.00  0.00    -0.200 OA
ATOM      9  O   UNL d   1      59.774   0.682  29.093  0.00  0.00    -0.200 OA
BRANCH   7  10
ATOM     10  C   UNL d   1      59.651  -0.963  29.043  0.00  0.00     0.106 A 
ATOM     11  C   UNL d   1      60.263  -1.438  29.330  0.00  0.00     0.037 A 
ATOM     12  C   UNL d   1      60.192  -2.260  29.305  0.00  0.00     0.095 A 
ATOM     13  C   UNL d   1      59.508  -2.606  28.994  0.00  0.00     0.024 A 
ATOM     14  C   UNL d   1      58.899  -2.129  28.709  0.00  0.00     0.003 A 
ATOM     15  C   UNL d   1      58.970  -1.308  28.734  0.00  0.00     0.013 A 
BRANCH  12  16
ATOM     16  O   UNL d   1      60.800  -2.736  29.589  0.00  0.00    -0.328 OA
ATOM     17  C   UNL d   1      60.690  -3.551  29.659  0.00  0.00     0.181 C 
ENDBRANCH  12  16
ENDBRANCH   7  10
ENDBRANCH   1   7
BRANCH   2  18
ATOM     18  C   UNL d   1      57.531  -0.050  31.520  0.00  0.00     0.092 A 
ATOM     19  C   UNL d   1      57.007  -0.673  31.624  0.00  0.00     0.156 A 
ATOM     20  F   UNL d   1      57.063  -1.302  31.085  0.00  0.00    -0.203 F 
ATOM     21  C   UNL d   1      56.456  -0.662  32.240  0.00  0.00     0.031 A 
ATOM     22  C   UNL d   1      56.438  -0.009  32.755  0.00  0.00     0.002 A 
ATOM     23  C   UNL d   1      56.966   0.618  32.649  0.00  0.00     0.002 A 
ATOM     24  C   UNL d   1      57.512   0.596  32.031  0.00  0.00     0.020 A 
ENDBRANCH   2  18
TORSDOF 4
ENDMDL
MODEL 3
REMARK VINA RESULT:      -2.1      1.482      3.917
REMARK  4 active torsions:
REMARK  status: ('A' for Active; 'I' for Inactive)
REMARK    1  A    between atoms: N_2  and  S_1 
REMARK    2  A    between atoms: C_3  and  S_1 
REMARK    3  A    between atoms: C_5  and  N_4 
REMARK    4  A    between atoms: O_17  and  C_14 
ROOT
ATOM      1  N   UNL d   1      58.174  -0.439  29.565  0.00  0.00    -0.226 N 
ATOM      2  N   UNL d   1      59.348  -1.546  29.288  0.00  0.00    -0.299 N 
ATOM      3  C   UNL d   1      58.970  -0.223  29.639  0.00  0.00     0.111 A 
ATOM      4  C   UNL d   1      57.969  -1.207  29.353  0.00  0.00     0.111 A 
ATOM      5  C   UNL d   1      59.559  -0.784  29.499  0.00  0.00     0.100 A 
ATOM      6  C   UNL d   1      58.563  -1.763  29.214  0.00  0.00     0.100 A 
ENDROOT
BRANCH   1   7
ATOM      7  S   UNL d   1      57.583   0.119  29.705  0.00  0.00     0.272 S 
ATOM      8  O   UNL d   1      56.997   0.673  29.839  0.00  0.00    -0.200 OA
ATOM      9  O   UNL d   1      57.553   0.283  28.897  0.00  0.00    -0.200 OA
BRANCH   7  10
ATOM     10  C   UNL d   1      57.619  -0.051  30.511  0.00  0.00     0.106 A 
ATOM     11  C   UNL d   1      57.126  -0.627  30.841  0.00  0.00     0.037 A 
ATOM     12  C   UNL d   1      57.167  -0.791  31.648  0.00  0.00     0.095 A 
ATOM     13  C   UNL d   1      57.702  -0.379  32.126  0.00  0.00     0.024 A 
ATOM     14  C   UNL d   1      58.192   0.195  31.795  0.00  0.00     0.003 A 
ATOM     15  C   UNL d   1      58.151   0.359  30.988  0.00  0.00     0.013 A 
BRANCH  12  16
ATOM     16  O   UNL d   1      56.678  -1.364  31.979  0.00  0.00    -0.328 OA
ATOM     17  C   UNL d   1      56.227  -1.188  32.647  0.00  0.00     0.181 C 
ENDBRANCH  12  16
ENDBRANCH   7  10
ENDBRANCH   1   7
BRANCH   2  18
ATOM     18  C   UNL d   1      59.936  -2.107  29.148  0.00  0.00     0.092 A 
ATOM     19  C   UNL d   1      59.913  -2.829  29.538  0.00  0.00     0.156 A 
ATOM     20  F   UNL d   1      59.281  -2.949  30.062  0.00  0.00    -0.203 F 
ATOM     21  C   UNL d   1      60.496  -3.399  29.406  0.00  0.00     0.031 A 
ATOM     22  C   UNL d   1      61.111  -3.232  28.870  0.00  0.00     0.002 A 
ATOM     23  C   UNL d   1      61.133  -2.505  28.477  0.00  0.00     0.002 A 
ATOM     24  C   UNL d   1      60.545  -1.944  28.617  0.00  0.00     0.020 A 
ENDBRANCH   2  18
TORSDOF 4
ENDMDL
