MODEL 1
REMARK VINA RESULT:      49.5      0.000      0.000
REMARK  3 active torsions:
REMARK  status: ('A' for Active; 'I' for Inactive)
REMARK    1  A    between atoms: C_8  and  C_6 
REMARK    2  A    between atoms: C_9  and  C_8 
REMARK       I    between atoms: N_10  and  C_9 
REMARK    3  A    between atoms: C_14  and  N_10 
ROOT
ATOM      1  N   UNL d   1      14.205  15.005  -2.600  0.00  0.00    -0.207 NA
ATOM      2  N   UNL d   1      14.312  13.464  -1.949  0.00  0.00    -0.240 NA
ATOM      3  C   UNL d   1      13.955  14.278  -2.871  0.00  0.00     0.297 A 
ATOM      4  C   UNL d   1      14.600  15.197  -1.897  0.00  0.00     0.086 A 
ATOM      5  C   UNL d   1      14.687  13.879  -1.350  0.00  0.00     0.083 A 
ATOM      6  C   UNL d   1      13.993  13.758  -2.647  0.00  0.00     0.144 A 
ATOM      7  C   UNL d   1      14.838  14.687  -1.294  0.00  0.00     0.035 A 
ATOM      8  O   UNL d   1      13.576  14.290  -3.602  0.00  0.00    -0.264 OA
ATOM      9  C   UNL d   1      15.229  14.988  -0.630  0.00  0.00     0.003 A 
ATOM     10  C   UNL d   1      14.923  13.368  -0.749  0.00  0.00     0.019 A 
ATOM     11  C   UNL d   1      14.755  16.012  -1.836  0.00  0.00     0.019 A 
ATOM     12  C   UNL d   1      15.317  13.671  -0.079  0.00  0.00     0.002 A 
ATOM     13  C   UNL d   1      15.146  16.309  -1.172  0.00  0.00     0.002 A 
ATOM     14  C   UNL d   1      15.470  14.481  -0.021  0.00  0.00     0.000 A 
ATOM     15  C   UNL d   1      15.381  15.801  -0.573  0.00  0.00     0.000 A 
ENDROOT
BRANCH   6  16
ATOM     16  C   UNL d   1      13.657  13.179  -3.126  0.00  0.00     0.086 C 
BRANCH  16  17
ATOM     17  C   UNL d   1      13.542  12.420  -2.820  0.00  0.00     0.281 C 
ATOM     18  N   UNL d   1      13.441  11.785  -3.337  0.00  0.00    -0.208 NA
ATOM     19  O   UNL d   1      13.527  12.290  -2.002  0.00  0.00    -0.265 OA
BRANCH  18  20
ATOM     20  C   UNL d   1      13.453  11.900  -4.156  0.00  0.00     0.085 A 
ATOM     21  C   UNL d   1      12.770  12.094  -4.559  0.00  0.00     0.019 A 
ATOM     22  C   UNL d   1      12.786  12.208  -5.371  0.00  0.00     0.002 A 
ATOM     23  C   UNL d   1      13.496  12.125  -5.789  0.00  0.00     0.000 A 
ATOM     24  C   UNL d   1      14.190  11.926  -5.372  0.00  0.00     0.002 A 
ATOM     25  C   UNL d   1      14.162  11.816  -4.561  0.00  0.00     0.019 A 
ENDBRANCH  18  20
ENDBRANCH  16  17
ENDBRANCH   6  16
TORSDOF 3
ENDMDL
MODEL 2
REMARK VINA RESULT:      51.4      1.713      3.363
REMARK  3 active torsions:
REMARK  status: ('A' for Active; 'I' for Inactive)
REMARK    1  A    between atoms: C_8  and  C_6 
REMARK    2  A    between atoms: C_9  and  C_8 
REMARK       I    between atoms: N_10  and  C_9 
REMARK    3  A    between atoms: C_14  and  N_10 
ROOT
ATOM      1  N   UNL d   1      13.039  14.011  -4.379  0.00  0.00    -0.207 NA
ATOM      2  N   UNL d   1      14.007  14.185  -3.021  0.00  0.00    -0.240 NA
ATOM      3  C   UNL d   1      13.185  13.521  -3.744  0.00  0.00     0.297 A 
ATOM      4  C   UNL d   1      13.340  14.766  -4.539  0.00  0.00     0.086 A 
ATOM      5  C   UNL d   1      14.163  14.906  -3.378  0.00  0.00     0.083 A 
ATOM      6  C   UNL d   1      13.513  13.583  -3.286  0.00  0.00     0.144 A 
ATOM      7  C   UNL d   1      13.869  15.209  -4.086  0.00  0.00     0.035 A 
ATOM      8  O   UNL d   1      12.787  12.800  -3.763  0.00  0.00    -0.264 OA
ATOM      9  C   UNL d   1      14.105  15.958  -4.343  0.00  0.00     0.003 A 
ATOM     10  C   UNL d   1      14.691  15.344  -2.924  0.00  0.00     0.019 A 
ATOM     11  C   UNL d   1      13.047  15.077  -5.253  0.00  0.00     0.019 A 
ATOM     12  C   UNL d   1      14.929  16.101  -3.182  0.00  0.00     0.002 A 
ATOM     13  C   UNL d   1      13.285  15.825  -5.506  0.00  0.00     0.002 A 
ATOM     14  C   UNL d   1      14.636  16.407  -3.892  0.00  0.00     0.000 A 
ATOM     15  C   UNL d   1      13.811  16.263  -5.055  0.00  0.00     0.000 A 
ENDROOT
BRANCH   6  16
ATOM     16  C   UNL d   1      13.488  12.931  -2.784  0.00  0.00     0.086 C 
BRANCH  16  17
ATOM     17  C   UNL d   1      13.893  12.242  -2.997  0.00  0.00     0.281 C 
ATOM     18  N   UNL d   1      14.241  11.779  -2.409  0.00  0.00    -0.208 NA
ATOM     19  O   UNL d   1      13.954  12.015  -3.790  0.00  0.00    -0.265 OA
BRANCH  18  20
ATOM     20  C   UNL d   1      14.188  11.995  -1.612  0.00  0.00     0.085 A 
ATOM     21  C   UNL d   1      14.790  12.417  -1.255  0.00  0.00     0.019 A 
ATOM     22  C   UNL d   1      14.734  12.629  -0.465  0.00  0.00     0.002 A 
ATOM     23  C   UNL d   1      14.066  12.417  -0.023  0.00  0.00     0.000 A 
ATOM     24  C   UNL d   1      13.456  11.986  -0.394  0.00  0.00     0.002 A 
ATOM     25  C   UNL d   1      13.523  11.780  -1.183  0.00  0.00     0.019 A 
ENDBRANCH  18  20
ENDBRANCH  16  17
ENDBRANCH   6  16
TORSDOF 3
ENDMDL
MODEL 3
REMARK VINA RESULT:      51.5      2.248      3.293
REMARK  3 active torsions:
REMARK  status: ('A' for Active; 'I' for Inactive)
REMARK    1  A    between atoms: C_8  and  C_6 
REMARK    2  A    between atoms: C_9  and  C_8 
REMARK       I    between atoms: N_10  and  C_9 
REMARK    3  A    between atoms: C_14  and  N_10 
ROOT
ATOM      1  N   UNL d   1      15.109  16.032  -1.013  0.00  0.00    -0.207 NA
ATOM      2  N   UNL d   1      14.671  14.679  -1.900  0.00  0.00    -0.240 NA
ATOM      3  C   UNL d   1      15.017  15.249  -0.807  0.00  0.00     0.297 A 
ATOM      4  C   UNL d   1      15.008  16.398  -1.750  0.00  0.00     0.086 A 
ATOM      5  C   UNL d   1      14.636  15.238  -2.499  0.00  0.00     0.083 A 
ATOM      6  C   UNL d   1      14.868  14.794  -1.111  0.00  0.00     0.144 A 
ATOM      7  C   UNL d   1      14.787  16.047  -2.463  0.00  0.00     0.035 A 
ATOM      8  O   UNL d   1      15.163  15.077  -0.015  0.00  0.00    -0.264 OA
ATOM      9  C   UNL d   1      14.716  16.510  -3.144  0.00  0.00     0.003 A 
ATOM     10  C   UNL d   1      14.415  14.886  -3.209  0.00  0.00     0.019 A 
ATOM     11  C   UNL d   1      15.159  17.215  -1.719  0.00  0.00     0.019 A 
ATOM     12  C   UNL d   1      14.343  15.352  -3.898  0.00  0.00     0.002 A 
ATOM     13  C   UNL d   1      15.088  17.674  -2.402  0.00  0.00     0.002 A 
ATOM     14  C   UNL d   1      14.494  16.164  -3.864  0.00  0.00     0.000 A 
ATOM     15  C   UNL d   1      14.868  17.324  -3.110  0.00  0.00     0.000 A 
ENDROOT
BRANCH   6  16
ATOM     16  C   UNL d   1      14.847  14.104  -0.662  0.00  0.00     0.086 C 
BRANCH  16  17
ATOM     17  C   UNL d   1      15.514  13.614  -0.644  0.00  0.00     0.281 C 
ATOM     18  N   UNL d   1      15.415  12.795  -0.655  0.00  0.00    -0.208 NA
ATOM     19  O   UNL d   1      16.276  13.938  -0.614  0.00  0.00    -0.265 OA
BRANCH  18  20
ATOM     20  C   UNL d   1      14.660  12.459  -0.685  0.00  0.00     0.085 A 
ATOM     21  C   UNL d   1      14.386  12.112  -1.372  0.00  0.00     0.019 A 
ATOM     22  C   UNL d   1      13.637  11.780  -1.397  0.00  0.00     0.002 A 
ATOM     23  C   UNL d   1      13.152  11.794  -0.726  0.00  0.00     0.000 A 
ATOM     24  C   UNL d   1      13.438  12.151  -0.028  0.00  0.00     0.002 A 
ATOM     25  C   UNL d   1      14.187  12.479  -0.015  0.00  0.00     0.019 A 
ENDBRANCH  18  20
ENDBRANCH  16  17
ENDBRANCH   6  16
TORSDOF 3
ENDMDL
MODEL 4
REMARK VINA RESULT:      52.3      1.454      2.387
REMARK  3 active torsions:
REMARK  status: ('A' for Active; 'I' for Inactive)
REMARK    1  A    between atoms: C_8  and  C_6 
REMARK    2  A    between atoms: C_9  and  C_8 
REMARK       I    between atoms: N_10  and  C_9 
REMARK    3  A    between atoms: C_14  and  N_10 
ROOT
ATOM      1  N   UNL d   1      14.141  12.058  -2.041  0.00  0.00    -0.207 NA
ATOM      2  N   UNL d   1      13.953  13.684  -2.402  0.00  0.00    -0.240 NA
ATOM      3  C   UNL d   1      13.775  12.443  -2.659  0.00  0.00     0.297 A 
ATOM      4  C   UNL d   1      14.542  12.375  -1.388  0.00  0.00     0.086 A 
ATOM      5  C   UNL d   1      14.377  13.759  -1.704  0.00  0.00     0.083 A 
ATOM      6  C   UNL d   1      13.713  12.994  -2.778  0.00  0.00     0.144 A 
ATOM      7  C   UNL d   1      14.666  13.170  -1.206  0.00  0.00     0.035 A 
ATOM      8  O   UNL d   1      13.427  11.949  -3.220  0.00  0.00    -0.264 OA
ATOM      9  C   UNL d   1      15.083  13.375  -0.523  0.00  0.00     0.003 A 
ATOM     10  C   UNL d   1      14.499  14.553  -1.525  0.00  0.00     0.019 A 
ATOM     11  C   UNL d   1      14.837  11.783  -0.883  0.00  0.00     0.019 A 
ATOM     12  C   UNL d   1      14.920  14.762  -0.835  0.00  0.00     0.002 A 
ATOM     13  C   UNL d   1      15.253  11.993  -0.201  0.00  0.00     0.002 A 
ATOM     14  C   UNL d   1      15.212  14.172  -0.335  0.00  0.00     0.000 A 
ATOM     15  C   UNL d   1      15.375  12.783  -0.022  0.00  0.00     0.000 A 
ENDROOT
BRANCH   6  16
ATOM     16  C   UNL d   1      13.295  13.126  -3.474  0.00  0.00     0.086 C 
BRANCH  16  17
ATOM     17  C   UNL d   1      13.383  12.596  -4.104  0.00  0.00     0.281 C 
ATOM     18  N   UNL d   1      13.457  12.889  -4.872  0.00  0.00    -0.208 NA
ATOM     19  O   UNL d   1      13.398  11.779  -3.971  0.00  0.00    -0.265 OA
BRANCH  18  20
ATOM     20  C   UNL d   1      13.444  13.702  -5.019  0.00  0.00     0.085 A 
ATOM     21  C   UNL d   1      14.027  14.052  -5.473  0.00  0.00     0.019 A 
ATOM     22  C   UNL d   1      14.010  14.860  -5.616  0.00  0.00     0.002 A 
ATOM     23  C   UNL d   1      13.403  15.326  -5.301  0.00  0.00     0.000 A 
ATOM     24  C   UNL d   1      12.812  14.963  -4.839  0.00  0.00     0.002 A 
ATOM     25  C   UNL d   1      12.838  14.156  -4.702  0.00  0.00     0.019 A 
ENDBRANCH  18  20
ENDBRANCH  16  17
ENDBRANCH   6  16
TORSDOF 3
ENDMDL
