MODEL 1
REMARK VINA RESULT:      -2.3      0.000      0.000
REMARK  1 active torsions:
REMARK  status: ('A' for Active; 'I' for Inactive)
REMARK    1  A    between atoms: C_2  and  N_1 
ROOT
ATOM      1  C   UNL d   1      59.836   0.278  29.242  0.00  0.00     0.153 A 
ATOM      2  C   UNL d   1      59.732  -0.528  29.159  0.00  0.00     0.059 A 
ATOM      3  C   UNL d   1      60.336  -0.990  28.754  0.00  0.00     0.115 A 
ATOM      4  S   UNL d   1      60.068  -1.773  28.763  0.00  0.00    -0.068 SA
ATOM      5  C   UNL d   1      59.136  -1.043  29.389  0.00  0.00     0.011 A 
ATOM      6  C   UNL d   1      59.340  -1.805  29.148  0.00  0.00     0.031 A 
ATOM      7  N   UNL d   1      60.517   0.682  28.947  0.00  0.00    -0.206 NA
ATOM      8  N   UNL d   1      61.007  -0.627  28.457  0.00  0.00    -0.217 NA
ATOM      9  C   UNL d   1      61.130   0.207  28.536  0.00  0.00     0.201 A 
ATOM     10  C   UNL d   1      58.422  -0.925  29.793  0.00  0.00     0.001 A 
ATOM     11  C   UNL d   1      58.835  -2.457  29.306  0.00  0.00     0.006 A 
ATOM     12  C   UNL d   1      57.887  -1.571  29.968  0.00  0.00     0.000 A 
ATOM     13  C   UNL d   1      58.122  -2.313  29.714  0.00  0.00     0.001 A 
ENDROOT
BRANCH   1  14
ATOM     14  N   UNL d   1      59.117   0.338  29.639  0.00  0.00    -0.273 N 
ATOM     15  C   UNL d   1      58.565   0.361  28.990  0.00  0.00     0.184 A 
ATOM     16  N   UNL d   1      57.809   0.421  29.292  0.00  0.00    -0.224 NA
ATOM     17  C   UNL d   1      57.866   0.437  30.105  0.00  0.00     0.099 A 
ATOM     18  C   UNL d   1      58.680   0.385  30.354  0.00  0.00     0.085 A 
ATOM     19  C   UNL d   1      57.290   0.491  30.687  0.00  0.00     0.021 A 
ATOM     20  C   UNL d   1      58.881   0.390  31.137  0.00  0.00     0.019 A 
ATOM     21  C   UNL d   1      58.286   0.445  31.708  0.00  0.00     0.002 A 
ATOM     22  C   UNL d   1      57.506   0.495  31.473  0.00  0.00     0.002 A 
ENDBRANCH   1  14
TORSDOF 1
ENDMDL
MODEL 2
REMARK VINA RESULT:      -2.1      2.463      4.069
REMARK  1 active torsions:
REMARK  status: ('A' for Active; 'I' for Inactive)
REMARK    1  A    between atoms: C_2  and  N_1 
ROOT
ATOM      1  C   UNL d   1      56.892  -0.105  31.355  0.00  0.00     0.153 A 
ATOM      2  C   UNL d   1      57.476   0.165  31.859  0.00  0.00     0.059 A 
ATOM      3  C   UNL d   1      58.217   0.452  31.527  0.00  0.00     0.115 A 
ATOM      4  S   UNL d   1      58.682   0.682  32.173  0.00  0.00    -0.068 SA
ATOM      5  C   UNL d   1      57.525   0.231  32.675  0.00  0.00     0.011 A 
ATOM      6  C   UNL d   1      58.262   0.547  32.869  0.00  0.00     0.031 A 
ATOM      7  N   UNL d   1      56.985  -0.115  30.515  0.00  0.00    -0.206 NA
ATOM      8  N   UNL d   1      58.336   0.456  30.717  0.00  0.00    -0.217 NA
ATOM      9  C   UNL d   1      57.741   0.179  30.181  0.00  0.00     0.201 A 
ATOM     10  C   UNL d   1      56.992   0.046  33.282  0.00  0.00     0.001 A 
ATOM     11  C   UNL d   1      58.476   0.682  33.669  0.00  0.00     0.006 A 
ATOM     12  C   UNL d   1      57.184   0.172  34.108  0.00  0.00     0.000 A 
ATOM     13  C   UNL d   1      57.924   0.487  34.263  0.00  0.00     0.001 A 
ENDROOT
BRANCH   1  14
ATOM     14  N   UNL d   1      56.404  -0.271  31.997  0.00  0.00    -0.273 N 
ATOM     15  C   UNL d   1      56.623  -1.075  32.176  0.00  0.00     0.184 A 
ATOM     16  N   UNL d   1      56.181  -1.330  32.813  0.00  0.00    -0.224 NA
ATOM     17  C   UNL d   1      55.693  -0.718  33.040  0.00  0.00     0.099 A 
ATOM     18  C   UNL d   1      55.811  -0.034  32.542  0.00  0.00     0.085 A 
ATOM     19  C   UNL d   1      55.137  -0.662  33.641  0.00  0.00     0.021 A 
ATOM     20  C   UNL d   1      55.390   0.647  32.657  0.00  0.00     0.019 A 
ATOM     21  C   UNL d   1      54.835   0.682  33.268  0.00  0.00     0.002 A 
ATOM     22  C   UNL d   1      54.719   0.031  33.745  0.00  0.00     0.002 A 
ENDBRANCH   1  14
TORSDOF 1
ENDMDL
MODEL 3
REMARK VINA RESULT:      -1.9      3.403      5.458
REMARK  1 active torsions:
REMARK  status: ('A' for Active; 'I' for Inactive)
REMARK    1  A    between atoms: C_2  and  N_1 
ROOT
ATOM      1  C   UNL d   1      55.221  -0.052  33.190  0.00  0.00     0.153 A 
ATOM      2  C   UNL d   1      55.764   0.195  33.748  0.00  0.00     0.059 A 
ATOM      3  C   UNL d   1      55.482   0.477  34.511  0.00  0.00     0.115 A 
ATOM      4  S   UNL d   1      56.159   0.682  34.942  0.00  0.00    -0.068 SA
ATOM      5  C   UNL d   1      56.583   0.240  33.751  0.00  0.00     0.011 A 
ATOM      6  C   UNL d   1      56.827   0.538  34.481  0.00  0.00     0.031 A 
ATOM      7  N   UNL d   1      54.387  -0.042  33.330  0.00  0.00    -0.206 NA
ATOM      8  N   UNL d   1      54.681   0.499  34.677  0.00  0.00    -0.217 NA
ATOM      9  C   UNL d   1      54.105   0.246  34.109  0.00  0.00     0.201 A 
ATOM     10  C   UNL d   1      57.154   0.049  33.182  0.00  0.00     0.001 A 
ATOM     11  C   UNL d   1      57.641   0.648  34.652  0.00  0.00     0.006 A 
ATOM     12  C   UNL d   1      57.992   0.151  33.328  0.00  0.00     0.000 A 
ATOM     13  C   UNL d   1      58.197   0.449  34.063  0.00  0.00     0.001 A 
ENDROOT
BRANCH   1  14
ATOM     14  N   UNL d   1      55.829  -0.225  32.663  0.00  0.00    -0.273 N 
ATOM     15  C   UNL d   1      56.048  -1.012  32.905  0.00  0.00     0.184 A 
ATOM     16  N   UNL d   1      56.658  -1.273  32.429  0.00  0.00    -0.224 NA
ATOM     17  C   UNL d   1      56.830  -0.679  31.897  0.00  0.00     0.099 A 
ATOM     18  C   UNL d   1      56.322  -0.004  32.020  0.00  0.00     0.085 A 
ATOM     19  C   UNL d   1      57.386  -0.636  31.296  0.00  0.00     0.021 A 
ATOM     20  C   UNL d   1      56.385   0.658  31.561  0.00  0.00     0.019 A 
ATOM     21  C   UNL d   1      56.952   0.682  30.960  0.00  0.00     0.002 A 
ATOM     22  C   UNL d   1      57.439   0.038  30.839  0.00  0.00     0.002 A 
ENDBRANCH   1  14
TORSDOF 1
ENDMDL
MODEL 4
REMARK VINA RESULT:      -1.5      1.521      3.341
REMARK  1 active torsions:
REMARK  status: ('A' for Active; 'I' for Inactive)
REMARK    1  A    between atoms: C_2  and  N_1 
ROOT
ATOM      1  C   UNL d   1      57.491   0.015  31.040  0.00  0.00     0.153 A 
ATOM      2  C   UNL d   1      58.207   0.244  31.360  0.00  0.00     0.059 A 
ATOM      3  C   UNL d   1      58.240   0.488  32.185  0.00  0.00     0.115 A 
ATOM      4  S   UNL d   1      59.031   0.682  32.334  0.00  0.00    -0.068 SA
ATOM      5  C   UNL d   1      58.965   0.300  31.052  0.00  0.00     0.011 A 
ATOM      6  C   UNL d   1      59.471   0.568  31.647  0.00  0.00     0.031 A 
ATOM      7  N   UNL d   1      56.774   0.007  31.488  0.00  0.00    -0.206 NA
ATOM      8  N   UNL d   1      57.563   0.491  32.645  0.00  0.00    -0.217 NA
ATOM      9  C   UNL d   1      56.812   0.257  32.328  0.00  0.00     0.201 A 
ATOM     10  C   UNL d   1      59.275   0.142  30.300  0.00  0.00     0.001 A 
ATOM     11  C   UNL d   1      60.290   0.681  31.499  0.00  0.00     0.006 A 
ATOM     12  C   UNL d   1      60.106   0.249  30.119  0.00  0.00     0.000 A 
ATOM     13  C   UNL d   1      60.578   0.516  30.734  0.00  0.00     0.001 A 
ENDROOT
BRANCH   1  14
ATOM     14  N   UNL d   1      57.851  -0.126  30.313  0.00  0.00    -0.273 N 
ATOM     15  C   UNL d   1      57.864   0.656  29.974  0.00  0.00     0.184 A 
ATOM     16  N   UNL d   1      58.212   0.615  29.236  0.00  0.00    -0.224 NA
ATOM     17  C   UNL d   1      58.416  -0.162  29.100  0.00  0.00     0.099 A 
ATOM     18  C   UNL d   1      58.201  -0.654  29.763  0.00  0.00     0.085 A 
ATOM     19  C   UNL d   1      58.778  -0.522  28.457  0.00  0.00     0.021 A 
ATOM     20  C   UNL d   1      58.347  -1.450  29.761  0.00  0.00     0.019 A 
ATOM     21  C   UNL d   1      58.713  -1.792  29.103  0.00  0.00     0.002 A 
ATOM     22  C   UNL d   1      58.920  -1.325  28.468  0.00  0.00     0.002 A 
ENDBRANCH   1  14
TORSDOF 1
ENDMDL
MODEL 5
REMARK VINA RESULT:      -1.2      1.912      3.360
REMARK  1 active torsions:
REMARK  status: ('A' for Active; 'I' for Inactive)
REMARK    1  A    between atoms: C_2  and  N_1 
ROOT
ATOM      1  C   UNL d   1      57.366  -0.206  30.718  0.00  0.00     0.153 A 
ATOM      2  C   UNL d   1      57.977   0.055  31.194  0.00  0.00     0.059 A 
ATOM      3  C   UNL d   1      58.748   0.205  30.842  0.00  0.00     0.115 A 
ATOM      4  S   UNL d   1      59.235   0.459  31.462  0.00  0.00    -0.068 SA
ATOM      5  C   UNL d   1      58.030   0.223  31.995  0.00  0.00     0.011 A 
ATOM      6  C   UNL d   1      58.799   0.470  32.161  0.00  0.00     0.031 A 
ATOM      7  N   UNL d   1      57.461  -0.338  29.888  0.00  0.00    -0.206 NA
ATOM      8  N   UNL d   1      58.871   0.087  30.042  0.00  0.00    -0.217 NA
ATOM      9  C   UNL d   1      58.249  -0.184  29.535  0.00  0.00     0.201 A 
ATOM     10  C   UNL d   1      57.476   0.185  32.611  0.00  0.00     0.001 A 
ATOM     11  C   UNL d   1      59.025   0.682  32.942  0.00  0.00     0.006 A 
ATOM     12  C   UNL d   1      57.678   0.394  33.416  0.00  0.00     0.000 A 
ATOM     13  C   UNL d   1      58.450   0.635  33.544  0.00  0.00     0.001 A 
ENDROOT
BRANCH   1  14
ATOM     14  N   UNL d   1      56.858  -0.225  31.365  0.00  0.00    -0.273 N 
ATOM     15  C   UNL d   1      56.630   0.593  31.428  0.00  0.00     0.184 A 
ATOM     16  N   UNL d   1      56.115   0.674  32.057  0.00  0.00    -0.224 NA
ATOM     17  C   UNL d   1      56.013  -0.063  32.390  0.00  0.00     0.099 A 
ATOM     18  C   UNL d   1      56.470  -0.652  31.975  0.00  0.00     0.085 A 
ATOM     19  C   UNL d   1      55.561  -0.310  33.030  0.00  0.00     0.021 A 
ATOM     20  C   UNL d   1      56.460  -1.428  32.201  0.00  0.00     0.019 A 
ATOM     21  C   UNL d   1      55.999  -1.656  32.848  0.00  0.00     0.002 A 
ATOM     22  C   UNL d   1      55.561  -1.096  33.247  0.00  0.00     0.002 A 
ENDBRANCH   1  14
TORSDOF 1
ENDMDL
MODEL 6
REMARK VINA RESULT:      -1.0      1.467      3.325
REMARK  1 active torsions:
REMARK  status: ('A' for Active; 'I' for Inactive)
REMARK    1  A    between atoms: C_2  and  N_1 
ROOT
ATOM      1  C   UNL d   1      58.134  -1.404  30.254  0.00  0.00     0.153 A 
ATOM      2  C   UNL d   1      58.450  -0.695  29.999  0.00  0.00     0.059 A 
ATOM      3  C   UNL d   1      58.144   0.042  30.323  0.00  0.00     0.115 A 
ATOM      4  S   UNL d   1      58.573   0.648  29.957  0.00  0.00    -0.068 SA
ATOM      5  C   UNL d   1      59.039  -0.505  29.461  0.00  0.00     0.011 A 
ATOM      6  C   UNL d   1      59.117   0.316  29.433  0.00  0.00     0.031 A 
ATOM      7  N   UNL d   1      57.515  -1.446  30.828  0.00  0.00    -0.206 NA
ATOM      8  N   UNL d   1      57.545   0.034  30.881  0.00  0.00    -0.217 NA
ATOM      9  C   UNL d   1      57.207  -0.693  31.156  0.00  0.00     0.201 A 
ATOM     10  C   UNL d   1      59.528  -0.973  28.981  0.00  0.00     0.001 A 
ATOM     11  C   UNL d   1      59.680   0.680  28.928  0.00  0.00     0.006 A 
ATOM     12  C   UNL d   1      60.111  -0.629  28.456  0.00  0.00     0.000 A 
ATOM     13  C   UNL d   1      60.160   0.188  28.455  0.00  0.00     0.001 A 
ENDROOT
BRANCH   1  14
ATOM     14  N   UNL d   1      58.644  -1.819  29.758  0.00  0.00    -0.273 N 
ATOM     15  C   UNL d   1      58.217  -1.800  29.020  0.00  0.00     0.184 A 
ATOM     16  N   UNL d   1      58.654  -2.196  28.455  0.00  0.00    -0.224 NA
ATOM     17  C   UNL d   1      59.338  -2.461  28.810  0.00  0.00     0.099 A 
ATOM     18  C   UNL d   1      59.360  -2.238  29.634  0.00  0.00     0.085 A 
ATOM     19  C   UNL d   1      59.973  -2.887  28.511  0.00  0.00     0.021 A 
ATOM     20  C   UNL d   1      59.985  -2.438  30.106  0.00  0.00     0.019 A 
ATOM     21  C   UNL d   1      60.614  -2.867  29.786  0.00  0.00     0.002 A 
ATOM     22  C   UNL d   1      60.597  -3.082  28.999  0.00  0.00     0.002 A 
ENDBRANCH   1  14
TORSDOF 1
ENDMDL
