MODEL 1
REMARK VINA RESULT:      -1.1      0.000      0.000
REMARK  9 active torsions:
REMARK  status: ('A' for Active; 'I' for Inactive)
REMARK    1  A    between atoms: N_4  and  C_1 
REMARK    2  A    between atoms: C_12  and  C_3 
REMARK       I    between atoms: C_11  and  N_4 
REMARK       I    between atoms: C_6  and  N_5 
REMARK    3  A    between atoms: O_27  and  C_6 
REMARK       I    between atoms: N_7  and  C_10 
REMARK    4  A    between atoms: C_10  and  C_28 
REMARK    5  A    between atoms: C_29  and  C_11 
REMARK    6  A    between atoms: C_25  and  C_18 
REMARK    7  A    between atoms: S_26  and  C_29 
REMARK    8  A    between atoms: C_28  and  S_26 
REMARK    9  A    between atoms: C_32  and  O_27 
ROOT
ATOM      1  N   UNL d   1      33.213  21.754 -24.148  0.00  0.00    -0.182 NA
ATOM      2  C   UNL d   1      32.726  21.108 -24.197  0.00  0.00     0.288 C 
ATOM      3  O   UNL d   1      32.134  20.999 -23.651  0.00  0.00    -0.265 OA
ENDROOT
BRANCH   1   4
ATOM      4  C   UNL d   1      33.106  22.296 -23.546  0.00  0.00     0.197 A 
ATOM      5  N   UNL d   1      33.065  22.126 -22.747  0.00  0.00    -0.221 NA
ATOM      6  C   UNL d   1      32.956  22.823 -22.346  0.00  0.00     0.090 A 
ATOM      7  C   UNL d   1      32.930  23.419 -22.900  0.00  0.00     0.058 A 
ATOM      8  S   UNL d   1      33.022  23.098 -23.635  0.00  0.00    -0.046 SA
BRANCH   6   9
ATOM      9  C   UNL d   1      32.886  22.906 -21.547  0.00  0.00     0.018 A 
ATOM     10  C   UNL d   1      32.556  22.314 -21.108  0.00  0.00     0.002 A 
ATOM     11  C   UNL d   1      32.484  22.394 -20.305  0.00  0.00     0.000 A 
ATOM     12  C   UNL d   1      32.747  23.071 -19.946  0.00  0.00     0.000 A 
ATOM     13  C   UNL d   1      33.080  23.669 -20.390  0.00  0.00     0.000 A 
ATOM     14  C   UNL d   1      33.146  23.578 -21.189  0.00  0.00     0.002 A 
BRANCH  12  15
ATOM     15  C   UNL d   1      32.676  23.159 -19.122  0.00  0.00     0.000 A 
ATOM     16  C   UNL d   1      33.240  22.804 -18.623  0.00  0.00     0.000 A 
ATOM     17  C   UNL d   1      33.174  22.887 -17.806  0.00  0.00     0.000 A 
ATOM     18  C   UNL d   1      32.543  23.326 -17.486  0.00  0.00     0.000 A 
ATOM     19  C   UNL d   1      31.983  23.677 -17.991  0.00  0.00     0.000 A 
ATOM     20  C   UNL d   1      32.056  23.589 -18.812  0.00  0.00     0.000 A 
ENDBRANCH  12  15
ENDBRANCH   6   9
ENDBRANCH   1   4
BRANCH   2  21
ATOM     21  C   UNL d   1      32.833  20.572 -24.793  0.00  0.00     0.098 C 
BRANCH  21  22
ATOM     22  S   UNL d   1      33.054  19.785 -24.522  0.00  0.00    -0.076 SA
BRANCH  22  23
ATOM     23  C   UNL d   1      32.488  19.141 -24.559  0.00  0.00     0.097 C 
BRANCH  23  24
ATOM     24  C   UNL d   1      32.562  18.473 -24.035  0.00  0.00     0.271 C 
ATOM     25  N   UNL d   1      31.949  17.873 -24.018  0.00  0.00    -0.269 N 
ATOM     26  C   UNL d   1      32.016  17.200 -23.495  0.00  0.00     0.102 A 
ATOM     27  C   UNL d   1      31.259  17.953 -24.535  0.00  0.00     0.102 A 
ATOM     28  C   UNL d   1      31.402  16.602 -23.481  0.00  0.00     0.104 A 
ATOM     29  N   UNL d   1      30.712  16.682 -23.998  0.00  0.00    -0.249 N 
ATOM     30  C   UNL d   1      30.647  17.354 -24.518  0.00  0.00     0.104 A 
ATOM     31  C   UNL d   1      30.121  16.104 -23.982  0.00  0.00     0.378 C 
ATOM     32  O   UNL d   1      30.187  15.453 -23.475  0.00  0.00    -0.237 OA
ATOM     33  O   UNL d   1      33.241  18.398 -23.529  0.00  0.00    -0.266 OA
BRANCH  31  34
ATOM     34  O   UNL d   1      29.461  16.181 -24.476  0.00  0.00    -0.257 OA
BRANCH  34  35
ATOM     35  C   UNL d   1      28.951  15.542 -24.593  0.00  0.00     0.128 C 
ATOM     36  C   UNL d   1      28.181  15.661 -24.882  0.00  0.00     0.029 C 
ENDBRANCH  34  35
ENDBRANCH  31  34
ENDBRANCH  23  24
ENDBRANCH  22  23
ENDBRANCH  21  22
ENDBRANCH   2  21
TORSDOF 9
ENDMDL
MODEL 2
REMARK VINA RESULT:      -0.8      1.323      2.119
REMARK  9 active torsions:
REMARK  status: ('A' for Active; 'I' for Inactive)
REMARK    1  A    between atoms: N_4  and  C_1 
REMARK    2  A    between atoms: C_12  and  C_3 
REMARK       I    between atoms: C_11  and  N_4 
REMARK       I    between atoms: C_6  and  N_5 
REMARK    3  A    between atoms: O_27  and  C_6 
REMARK       I    between atoms: N_7  and  C_10 
REMARK    4  A    between atoms: C_10  and  C_28 
REMARK    5  A    between atoms: C_29  and  C_11 
REMARK    6  A    between atoms: C_25  and  C_18 
REMARK    7  A    between atoms: S_26  and  C_29 
REMARK    8  A    between atoms: C_28  and  S_26 
REMARK    9  A    between atoms: C_32  and  O_27 
ROOT
ATOM      1  N   UNL d   1      33.163  19.552 -24.990  0.00  0.00    -0.182 NA
ATOM      2  C   UNL d   1      33.200  18.836 -24.612  0.00  0.00     0.288 C 
ATOM      3  O   UNL d   1      33.239  18.803 -23.802  0.00  0.00    -0.265 OA
ENDROOT
BRANCH   1   4
ATOM      4  C   UNL d   1      33.165  20.241 -24.552  0.00  0.00     0.197 A 
ATOM      5  N   UNL d   1      33.097  20.295 -23.739  0.00  0.00    -0.221 NA
ATOM      6  C   UNL d   1      33.125  21.079 -23.534  0.00  0.00     0.090 A 
ATOM      7  C   UNL d   1      33.211  21.506 -24.221  0.00  0.00     0.058 A 
ATOM      8  S   UNL d   1      33.236  20.994 -24.846  0.00  0.00    -0.046 SA
BRANCH   6   9
ATOM      9  C   UNL d   1      33.077  21.377 -22.785  0.00  0.00     0.018 A 
ATOM     10  C   UNL d   1      32.963  22.168 -22.674  0.00  0.00     0.002 A 
ATOM     11  C   UNL d   1      32.914  22.471 -21.925  0.00  0.00     0.000 A 
ATOM     12  C   UNL d   1      32.981  21.974 -21.288  0.00  0.00     0.000 A 
ATOM     13  C   UNL d   1      33.096  21.175 -21.401  0.00  0.00     0.000 A 
ATOM     14  C   UNL d   1      33.143  20.885 -22.152  0.00  0.00     0.002 A 
BRANCH  12  15
ATOM     15  C   UNL d   1      32.931  22.280 -20.516  0.00  0.00     0.000 A 
ATOM     16  C   UNL d   1      32.567  23.018 -20.391  0.00  0.00     0.000 A 
ATOM     17  C   UNL d   1      32.516  23.325 -19.627  0.00  0.00     0.000 A 
ATOM     18  C   UNL d   1      32.829  22.894 -18.988  0.00  0.00     0.000 A 
ATOM     19  C   UNL d   1      33.191  22.157 -19.121  0.00  0.00     0.000 A 
ATOM     20  C   UNL d   1      33.239  21.854 -19.891  0.00  0.00     0.000 A 
ENDBRANCH  12  15
ENDBRANCH   6   9
ENDBRANCH   1   4
BRANCH   2  21
ATOM     21  C   UNL d   1      33.197  18.155 -25.048  0.00  0.00     0.098 C 
BRANCH  21  22
ATOM     22  S   UNL d   1      32.878  17.473 -24.631  0.00  0.00    -0.076 SA
BRANCH  22  23
ATOM     23  C   UNL d   1      32.207  17.045 -24.953  0.00  0.00     0.097 C 
BRANCH  23  24
ATOM     24  C   UNL d   1      31.929  16.334 -24.575  0.00  0.00     0.271 C 
ATOM     25  N   UNL d   1      31.116  16.281 -24.308  0.00  0.00    -0.269 N 
ATOM     26  C   UNL d   1      30.829  15.571 -23.929  0.00  0.00     0.102 A 
ATOM     27  C   UNL d   1      30.583  16.954 -24.426  0.00  0.00     0.102 A 
ATOM     28  C   UNL d   1      30.015  15.522 -23.663  0.00  0.00     0.104 A 
ATOM     29  N   UNL d   1      29.483  16.194 -23.781  0.00  0.00    -0.249 N 
ATOM     30  C   UNL d   1      29.771  16.902 -24.160  0.00  0.00     0.104 A 
ATOM     31  C   UNL d   1      28.699  16.145 -23.524  0.00  0.00     0.378 C 
ATOM     32  O   UNL d   1      28.422  15.456 -23.157  0.00  0.00    -0.237 OA
ATOM     33  O   UNL d   1      32.454  15.675 -24.461  0.00  0.00    -0.266 OA
BRANCH  31  34
ATOM     34  O   UNL d   1      28.190  16.788 -23.637  0.00  0.00    -0.257 OA
BRANCH  34  35
ATOM     35  C   UNL d   1      27.475  16.831 -23.226  0.00  0.00     0.128 C 
ATOM     36  C   UNL d   1      27.239  17.538 -22.859  0.00  0.00     0.029 C 
ENDBRANCH  34  35
ENDBRANCH  31  34
ENDBRANCH  23  24
ENDBRANCH  22  23
ENDBRANCH  21  22
ENDBRANCH   2  21
TORSDOF 9
ENDMDL
