MODEL 1
REMARK VINA RESULT:      68.8      0.000      0.000
REMARK  8 active torsions:
REMARK  status: ('A' for Active; 'I' for Inactive)
REMARK    1  A    between atoms: N_5  and  C_1 
REMARK    2  A    between atoms: N_8  and  C_3 
REMARK    3  A    between atoms: C_17  and  N_8 
REMARK    4  A    between atoms: C_28  and  N_9 
REMARK    5  A    between atoms: C_10  and  C_17 
REMARK    6  A    between atoms: C_20  and  O_27 
REMARK    7  A    between atoms: O_27  and  C_29 
REMARK    8  A    between atoms: C_29  and  C_28 
ROOT
ATOM      1  C   UNL d   1      14.265  14.076  -2.344  0.00  0.00     0.737 A 
ATOM      2  N   UNL d   1      14.378  14.518  -1.679  0.00  0.00    -0.041 NA
ATOM      3  C   UNL d   1      14.579  14.166  -0.989  0.00  0.00     0.182 A 
ATOM      4  N   UNL d   1      14.354  13.274  -2.314  0.00  0.00    -0.060 NA
ATOM      5  C   UNL d   1      14.669  13.367  -0.955  0.00  0.00     0.055 A 
ATOM      6  C   UNL d   1      14.558  12.919  -1.611  0.00  0.00     0.103 A 
ATOM      7  C   UNL d   1      14.870  13.017  -0.261  0.00  0.00     0.005 A 
ATOM      8  C   UNL d   1      14.648  12.120  -1.576  0.00  0.00     0.020 A 
ATOM      9  C   UNL d   1      14.959  12.229  -0.228  0.00  0.00     0.000 A 
ATOM     10  C   UNL d   1      14.848  11.781  -0.884  0.00  0.00     0.002 A 
ENDROOT
BRANCH   1  11
ATOM     11  N   UNL d   1      14.059  14.432  -3.053  0.00  0.00    -0.134 N 
ATOM     12  C   UNL d   1      13.452  14.103  -3.526  0.00  0.00     0.117 A 
ATOM     13  C   UNL d   1      13.247  14.463  -4.238  0.00  0.00     0.100 A 
ATOM     14  N   UNL d   1      13.638  15.148  -4.490  0.00  0.00    -0.298 N 
ATOM     15  C   UNL d   1      14.244  15.476  -4.018  0.00  0.00     0.100 A 
ATOM     16  C   UNL d   1      14.449  15.114  -3.303  0.00  0.00     0.117 A 
BRANCH  14  17
ATOM     17  C   UNL d   1      13.433  15.508  -5.203  0.00  0.00     0.107 C 
BRANCH  17  18
ATOM     18  C   UNL d   1      13.646  16.293  -5.353  0.00  0.00     0.142 C 
BRANCH  18  19
ATOM     19  O   UNL d   1      13.415  16.671  -6.059  0.00  0.00    -0.304 OA
BRANCH  19  20
ATOM     20  C   UNL d   1      13.475  17.487  -6.141  0.00  0.00     0.100 A 
ATOM     21  C   UNL d   1      12.795  17.941  -6.303  0.00  0.00     0.025 A 
ATOM     22  C   UNL d   1      12.860  18.759  -6.384  0.00  0.00     0.002 A 
ATOM     23  C   UNL d   1      13.601  19.136  -6.306  0.00  0.00     0.000 A 
ATOM     24  C   UNL d   1      14.279  18.681  -6.144  0.00  0.00     0.002 A 
ATOM     25  C   UNL d   1      13.661  19.963  -6.389  0.00  0.00     0.000 C 
ATOM     26  C   UNL d   1      14.211  17.851  -6.062  0.00  0.00     0.025 A 
ENDBRANCH  19  20
ENDBRANCH  18  19
ENDBRANCH  17  18
ENDBRANCH  14  17
ENDBRANCH   1  11
BRANCH   3  27
ATOM     27  N   UNL d   1      14.688  14.608  -0.341  0.00  0.00    -0.223 NA
BRANCH  27  28
ATOM     28  C   UNL d   1      14.736  15.373  -0.393  0.00  0.00     0.125 C 
BRANCH  28  29
ATOM     29  C   UNL d   1      15.214  16.110  -0.602  0.00  0.00     0.119 A 
ATOM     30  O   UNL d   1      16.159  16.537  -0.564  0.00  0.00    -0.304 OA
ATOM     31  C   UNL d   1      16.095  17.517  -1.010  0.00  0.00     0.123 A 
ATOM     32  C   UNL d   1      15.257  17.351  -1.137  0.00  0.00     0.029 A 
ATOM     33  C   UNL d   1      14.881  16.771  -0.972  0.00  0.00     0.028 A 
ENDBRANCH  28  29
ENDBRANCH  27  28
ENDBRANCH   3  27
TORSDOF 8
ENDMDL
