MODEL 1
REMARK VINA RESULT:      -5.0      0.000      0.000
REMARK  3 active torsions:
REMARK  status: ('A' for Active; 'I' for Inactive)
REMARK    1  A    between atoms: C_6  and  C_1 
REMARK    2  A    between atoms: O_9  and  C_6 
REMARK    3  A    between atoms: C_12  and  O_9 
ROOT
ATOM      1  C   UNL d   1     -41.751-122.182 -52.567  0.00  0.00     0.182 A 
ATOM      2  C   UNL d   1     -41.488-122.823 -53.038  0.00  0.00     0.133 A 
ATOM      3  O   UNL d   1     -42.082-121.612 -53.076  0.00  0.00    -0.300 OA
ATOM      4  C   UNL d   1     -41.658-122.645 -53.830  0.00  0.00     0.044 A 
ATOM      5  C   UNL d   1     -42.025-121.897 -53.858  0.00  0.00     0.102 A 
ATOM      6  N   UNL d   1     -41.124-123.512 -52.762  0.00  0.00    -0.146 N 
ATOM      7  C   UNL d   1     -41.531-123.054 -54.525  0.00  0.00     0.004 A 
ATOM      8  C   UNL d   1     -42.252-121.586 -54.581  0.00  0.00     0.025 A 
ATOM      9  C   UNL d   1     -41.760-122.739 -55.248  0.00  0.00     0.000 A 
ATOM     10  C   UNL d   1     -42.125-121.996 -55.276  0.00  0.00     0.002 A 
ENDROOT
BRANCH   1  11
ATOM     11  C   UNL d   1     -41.694-122.123 -51.747  0.00  0.00     0.325 C 
ATOM     12  O   UNL d   1     -41.123-121.639 -51.416  0.00  0.00    -0.257 OA
BRANCH  11  13
ATOM     13  O   UNL d   1     -42.209-122.548 -51.266  0.00  0.00    -0.269 OA
BRANCH  13  14
ATOM     14  C   UNL d   1     -42.257-122.372 -50.461  0.00  0.00     0.126 C 
ATOM     15  C   UNL d   1     -42.898-122.643 -50.018  0.00  0.00     0.029 C 
ENDBRANCH  13  14
ENDBRANCH  11  13
ENDBRANCH   1  11
TORSDOF 3
ENDMDL
MODEL 2
REMARK VINA RESULT:      -4.6      1.216      1.582
REMARK  3 active torsions:
REMARK  status: ('A' for Active; 'I' for Inactive)
REMARK    1  A    between atoms: C_6  and  C_1 
REMARK    2  A    between atoms: O_9  and  C_6 
REMARK    3  A    between atoms: C_12  and  O_9 
ROOT
ATOM      1  C   UNL d   1     -41.558-122.860 -51.634  0.00  0.00     0.182 A 
ATOM      2  C   UNL d   1     -41.445-122.221 -52.163  0.00  0.00     0.133 A 
ATOM      3  O   UNL d   1     -41.525-123.566 -52.076  0.00  0.00    -0.300 OA
ATOM      4  C   UNL d   1     -41.343-122.535 -52.924  0.00  0.00     0.044 A 
ATOM      5  C   UNL d   1     -41.391-123.366 -52.875  0.00  0.00     0.102 A 
ATOM      6  N   UNL d   1     -41.437-121.420 -51.963  0.00  0.00    -0.146 N 
ATOM      7  C   UNL d   1     -41.213-122.185 -53.651  0.00  0.00     0.004 A 
ATOM      8  C   UNL d   1     -41.308-123.817 -53.555  0.00  0.00     0.025 A 
ATOM      9  C   UNL d   1     -41.131-122.640 -54.330  0.00  0.00     0.000 A 
ATOM     10  C   UNL d   1     -41.179-123.466 -54.281  0.00  0.00     0.002 A 
ENDROOT
BRANCH   1  11
ATOM     11  C   UNL d   1     -41.681-122.805 -50.821  0.00  0.00     0.325 C 
ATOM     12  O   UNL d   1     -41.123-122.432 -50.353  0.00  0.00    -0.257 OA
BRANCH  11  13
ATOM     13  O   UNL d   1     -42.361-123.123 -50.484  0.00  0.00    -0.269 OA
BRANCH  13  14
ATOM     14  C   UNL d   1     -42.469-123.089 -49.667  0.00  0.00     0.126 C 
ATOM     15  C   UNL d   1     -43.083-123.511 -49.313  0.00  0.00     0.029 C 
ENDBRANCH  13  14
ENDBRANCH  11  13
ENDBRANCH   1  11
TORSDOF 3
ENDMDL
MODEL 3
REMARK VINA RESULT:      -4.5      1.379      4.049
REMARK  3 active torsions:
REMARK  status: ('A' for Active; 'I' for Inactive)
REMARK    1  A    between atoms: C_6  and  C_1 
REMARK    2  A    between atoms: O_9  and  C_6 
REMARK    3  A    between atoms: C_12  and  O_9 
ROOT
ATOM      1  C   UNL d   1     -41.605-122.491 -51.067  0.00  0.00     0.182 A 
ATOM      2  C   UNL d   1     -42.299-122.304 -50.635  0.00  0.00     0.133 A 
ATOM      3  O   UNL d   1     -41.123-122.966 -50.582  0.00  0.00    -0.300 OA
ATOM      4  C   UNL d   1     -42.240-122.664 -49.890  0.00  0.00     0.044 A 
ATOM      5  C   UNL d   1     -41.515-123.075 -49.852  0.00  0.00     0.102 A 
ATOM      6  N   UNL d   1     -42.929-121.844 -50.904  0.00  0.00    -0.146 N 
ATOM      7  C   UNL d   1     -42.739-122.677 -49.244  0.00  0.00     0.004 A 
ATOM      8  C   UNL d   1     -41.316-123.483 -49.170  0.00  0.00     0.025 A 
ATOM      9  C   UNL d   1     -42.538-123.087 -48.562  0.00  0.00     0.000 A 
ATOM     10  C   UNL d   1     -41.817-123.495 -48.525  0.00  0.00     0.002 A 
ENDROOT
BRANCH   1  11
ATOM     11  C   UNL d   1     -41.429-122.249 -51.834  0.00  0.00     0.325 C 
ATOM     12  O   UNL d   1     -41.123-121.501 -51.962  0.00  0.00    -0.257 OA
BRANCH  11  13
ATOM     13  O   UNL d   1     -41.560-122.758 -52.468  0.00  0.00    -0.269 OA
BRANCH  13  14
ATOM     14  C   UNL d   1     -41.179-122.624 -53.187  0.00  0.00     0.126 C 
ATOM     15  C   UNL d   1     -41.266-123.162 -53.807  0.00  0.00     0.029 C 
ENDBRANCH  13  14
ENDBRANCH  11  13
ENDBRANCH   1  11
TORSDOF 3
ENDMDL
MODEL 4
REMARK VINA RESULT:      -4.1      1.259      3.728
REMARK  3 active torsions:
REMARK  status: ('A' for Active; 'I' for Inactive)
REMARK    1  A    between atoms: C_6  and  C_1 
REMARK    2  A    between atoms: O_9  and  C_6 
REMARK    3  A    between atoms: C_12  and  O_9 
ROOT
ATOM      1  C   UNL d   1     -41.559-122.672 -51.831  0.00  0.00     0.182 A 
ATOM      2  C   UNL d   1     -41.447-122.164 -51.175  0.00  0.00     0.133 A 
ATOM      3  O   UNL d   1     -41.900-123.379 -51.552  0.00  0.00    -0.300 OA
ATOM      4  C   UNL d   1     -41.719-122.559 -50.498  0.00  0.00     0.044 A 
ATOM      5  C   UNL d   1     -42.000-123.310 -50.726  0.00  0.00     0.102 A 
ATOM      6  N   UNL d   1     -41.123-121.405 -51.197  0.00  0.00    -0.146 N 
ATOM      7  C   UNL d   1     -41.751-122.343 -49.710  0.00  0.00     0.004 A 
ATOM      8  C   UNL d   1     -42.303-123.818 -50.158  0.00  0.00     0.025 A 
ATOM      9  C   UNL d   1     -42.055-122.854 -49.145  0.00  0.00     0.000 A 
ATOM     10  C   UNL d   1     -42.334-123.601 -49.371  0.00  0.00     0.002 A 
ENDROOT
BRANCH   1  11
ATOM     11  C   UNL d   1     -41.366-122.506 -52.615  0.00  0.00     0.325 C 
ATOM     12  O   UNL d   1     -41.134-121.749 -52.822  0.00  0.00    -0.257 OA
BRANCH  11  13
ATOM     13  O   UNL d   1     -41.408-123.099 -53.185  0.00  0.00    -0.269 OA
BRANCH  13  14
ATOM     14  C   UNL d   1     -41.231-122.925 -53.972  0.00  0.00     0.126 C 
ATOM     15  C   UNL d   1     -41.201-123.530 -54.531  0.00  0.00     0.029 C 
ENDBRANCH  13  14
ENDBRANCH  11  13
ENDBRANCH   1  11
TORSDOF 3
ENDMDL
MODEL 5
REMARK VINA RESULT:      -4.1      1.791      2.630
REMARK  3 active torsions:
REMARK  status: ('A' for Active; 'I' for Inactive)
REMARK    1  A    between atoms: C_6  and  C_1 
REMARK    2  A    between atoms: O_9  and  C_6 
REMARK    3  A    between atoms: C_12  and  O_9 
ROOT
ATOM      1  C   UNL d   1     -41.894-122.926 -50.413  0.00  0.00     0.182 A 
ATOM      2  C   UNL d   1     -41.756-122.268 -50.912  0.00  0.00     0.133 A 
ATOM      3  O   UNL d   1     -41.753-123.616 -50.856  0.00  0.00    -0.300 OA
ATOM      4  C   UNL d   1     -41.532-122.556 -51.657  0.00  0.00     0.044 A 
ATOM      5  C   UNL d   1     -41.528-123.389 -51.627  0.00  0.00     0.102 A 
ATOM      6  N   UNL d   1     -41.831-121.473 -50.701  0.00  0.00    -0.146 N 
ATOM      7  C   UNL d   1     -41.331-122.181 -52.354  0.00  0.00     0.004 A 
ATOM      8  C   UNL d   1     -41.323-123.817 -52.295  0.00  0.00     0.025 A 
ATOM      9  C   UNL d   1     -41.127-122.612 -53.022  0.00  0.00     0.000 A 
ATOM     10  C   UNL d   1     -41.123-123.440 -52.992  0.00  0.00     0.002 A 
ENDROOT
BRANCH   1  11
ATOM     11  C   UNL d   1     -42.129-122.898 -49.623  0.00  0.00     0.325 C 
ATOM     12  O   UNL d   1     -42.881-122.638 -49.434  0.00  0.00    -0.257 OA
BRANCH  11  13
ATOM     13  O   UNL d   1     -41.608-123.131 -49.030  0.00  0.00    -0.269 OA
BRANCH  13  14
ATOM     14  C   UNL d   1     -41.834-123.071 -48.238  0.00  0.00     0.126 C 
ATOM     15  C   UNL d   1     -41.309-123.289 -47.641  0.00  0.00     0.029 C 
ENDBRANCH  13  14
ENDBRANCH  11  13
ENDBRANCH   1  11
TORSDOF 3
ENDMDL
MODEL 6
REMARK VINA RESULT:      -4.0      1.049      3.197
REMARK  3 active torsions:
REMARK  status: ('A' for Active; 'I' for Inactive)
REMARK    1  A    between atoms: C_6  and  C_1 
REMARK    2  A    between atoms: O_9  and  C_6 
REMARK    3  A    between atoms: C_12  and  O_9 
ROOT
ATOM      1  C   UNL d   1     -41.726-122.352 -53.319  0.00  0.00     0.182 A 
ATOM      2  C   UNL d   1     -41.400-123.101 -53.135  0.00  0.00     0.133 A 
ATOM      3  O   UNL d   1     -41.903-121.968 -52.602  0.00  0.00    -0.300 OA
ATOM      4  C   UNL d   1     -41.379-123.174 -52.309  0.00  0.00     0.044 A 
ATOM      5  C   UNL d   1     -41.689-122.476 -51.975  0.00  0.00     0.102 A 
ATOM      6  N   UNL d   1     -41.146-123.668 -53.680  0.00  0.00    -0.146 N 
ATOM      7  C   UNL d   1     -41.123-123.773 -51.816  0.00  0.00     0.004 A 
ATOM      8  C   UNL d   1     -41.731-122.402 -51.160  0.00  0.00     0.025 A 
ATOM      9  C   UNL d   1     -41.166-123.695 -51.000  0.00  0.00     0.000 A 
ATOM     10  C   UNL d   1     -41.475-123.001 -50.668  0.00  0.00     0.002 A 
ENDROOT
BRANCH   1  11
ATOM     11  C   UNL d   1     -41.851-122.046 -54.074  0.00  0.00     0.325 C 
ATOM     12  O   UNL d   1     -41.339-121.481 -54.371  0.00  0.00    -0.257 OA
BRANCH  11  13
ATOM     13  O   UNL d   1     -42.487-122.308 -54.526  0.00  0.00    -0.269 OA
BRANCH  13  14
ATOM     14  C   UNL d   1     -42.639-121.963 -55.260  0.00  0.00     0.126 C 
ATOM     15  C   UNL d   1     -43.104-122.359 -55.814  0.00  0.00     0.029 C 
ENDBRANCH  13  14
ENDBRANCH  11  13
ENDBRANCH   1  11
TORSDOF 3
ENDMDL
