MODEL 1
REMARK VINA RESULT:      -8.6      0.000      0.000
REMARK  4 active torsions:
REMARK  status: ('A' for Active; 'I' for Inactive)
REMARK    1  A    between atoms: C_5  and  N_1 
REMARK    2  A    between atoms: C_7  and  C_5 
REMARK    3  A    between atoms: O_11  and  C_8 
REMARK    4  A    between atoms: C_16  and  O_11 
ROOT
ATOM      1  N   UNL d   1      52.949  31.750  53.432  0.00  0.00    -0.251 N 
ATOM      2  C   UNL d   1      52.731  31.862  52.633  0.00  0.00     0.378 A 
ATOM      3  C   UNL d   1      53.002  30.942  53.576  0.00  0.00     0.092 A 
ATOM      4  O   UNL d   1      52.668  31.089  52.353  0.00  0.00    -0.258 OA
ATOM      5  C   UNL d   1      52.817  30.545  52.869  0.00  0.00     0.121 A 
ATOM      6  O   UNL d   1      52.616  32.591  52.254  0.00  0.00    -0.237 OA
ATOM      7  C   UNL d   1      53.192  30.515  54.252  0.00  0.00     0.020 A 
ATOM      8  C   UNL d   1      52.825  29.711  52.846  0.00  0.00     0.026 A 
ATOM      9  C   UNL d   1      53.200  29.680  54.228  0.00  0.00     0.002 A 
ATOM     10  C   UNL d   1      53.017  29.273  53.528  0.00  0.00     0.002 A 
ATOM     11  C   UNL d   1      53.395  29.248  54.922  0.00  0.00     0.000 C 
ENDROOT
BRANCH   1  12
ATOM     12  C   UNL d   1      53.085  32.353  53.971  0.00  0.00     0.087 C 
BRANCH  12  13
ATOM     13  C   UNL d   1      53.805  32.756  53.977  0.00  0.00     0.041 A 
ATOM     14  C   UNL d   1      53.852  33.496  54.334  0.00  0.00     0.101 A 
ATOM     15  C   UNL d   1      54.573  33.895  54.338  0.00  0.00     0.025 A 
ATOM     16  C   UNL d   1      55.240  33.561  53.988  0.00  0.00     0.002 A 
ATOM     17  C   UNL d   1      55.186  32.814  53.629  0.00  0.00     0.000 A 
ATOM     18  C   UNL d   1      54.466  32.415  53.625  0.00  0.00     0.004 A 
BRANCH  14  19
ATOM     19  O   UNL d   1      53.170  33.803  54.675  0.00  0.00    -0.307 OA
BRANCH  19  20
ATOM     20  C   UNL d   1      53.143  34.605  54.898  0.00  0.00     0.100 C 
ATOM     21  C   UNL d   1      52.866  35.173  54.364  0.00  0.00     0.027 C 
ATOM     22  C   UNL d   1      53.391  34.831  55.652  0.00  0.00     0.027 C 
ENDBRANCH  19  20
ENDBRANCH  14  19
ENDBRANCH  12  13
ENDBRANCH   1  12
TORSDOF 4
ENDMDL
MODEL 2
REMARK VINA RESULT:      -7.9      1.172      3.900
REMARK  4 active torsions:
REMARK  status: ('A' for Active; 'I' for Inactive)
REMARK    1  A    between atoms: C_5  and  N_1 
REMARK    2  A    between atoms: C_7  and  C_5 
REMARK    3  A    between atoms: O_11  and  C_8 
REMARK    4  A    between atoms: C_16  and  O_11 
ROOT
ATOM      1  N   UNL d   1      53.409  33.346  54.622  0.00  0.00    -0.251 N 
ATOM      2  C   UNL d   1      53.922  33.745  55.147  0.00  0.00     0.378 A 
ATOM      3  C   UNL d   1      52.920  33.903  54.265  0.00  0.00     0.092 A 
ATOM      4  O   UNL d   1      53.693  34.533  55.060  0.00  0.00    -0.258 OA
ATOM      5  C   UNL d   1      53.123  34.651  54.564  0.00  0.00     0.121 A 
ATOM      6  O   UNL d   1      54.507  33.396  55.622  0.00  0.00    -0.237 OA
ATOM      7  C   UNL d   1      52.318  33.830  53.710  0.00  0.00     0.020 A 
ATOM      8  C   UNL d   1      52.716  35.330  54.300  0.00  0.00     0.026 A 
ATOM      9  C   UNL d   1      51.911  34.510  53.446  0.00  0.00     0.002 A 
ATOM     10  C   UNL d   1      52.106  35.263  53.738  0.00  0.00     0.002 A 
ATOM     11  C   UNL d   1      51.297  34.431  52.878  0.00  0.00     0.000 C 
ENDROOT
BRANCH   1  12
ATOM     12  C   UNL d   1      53.404  32.537  54.493  0.00  0.00     0.087 C 
BRANCH  12  13
ATOM     13  C   UNL d   1      53.903  32.199  53.930  0.00  0.00     0.041 A 
ATOM     14  C   UNL d   1      53.776  31.422  53.689  0.00  0.00     0.101 A 
ATOM     15  C   UNL d   1      54.276  31.088  53.126  0.00  0.00     0.025 A 
ATOM     16  C   UNL d   1      54.898  31.524  52.805  0.00  0.00     0.002 A 
ATOM     17  C   UNL d   1      55.022  32.307  53.052  0.00  0.00     0.000 A 
ATOM     18  C   UNL d   1      54.521  32.641  53.615  0.00  0.00     0.004 A 
BRANCH  14  19
ATOM     19  O   UNL d   1      53.148  31.013  54.027  0.00  0.00    -0.307 OA
BRANCH  19  20
ATOM     20  C   UNL d   1      52.985  30.232  53.788  0.00  0.00     0.100 C 
ATOM     21  C   UNL d   1      53.307  29.596  54.209  0.00  0.00     0.027 C 
ATOM     22  C   UNL d   1      52.504  30.093  53.132  0.00  0.00     0.027 C 
ENDBRANCH  19  20
ENDBRANCH  14  19
ENDBRANCH  12  13
ENDBRANCH   1  12
TORSDOF 4
ENDMDL
MODEL 3
REMARK VINA RESULT:      -7.8      1.587      2.245
REMARK  4 active torsions:
REMARK  status: ('A' for Active; 'I' for Inactive)
REMARK    1  A    between atoms: C_5  and  N_1 
REMARK    2  A    between atoms: C_7  and  C_5 
REMARK    3  A    between atoms: O_11  and  C_8 
REMARK    4  A    between atoms: C_16  and  O_11 
ROOT
ATOM      1  N   UNL d   1      53.571  32.178  53.154  0.00  0.00    -0.251 N 
ATOM      2  C   UNL d   1      54.386  32.223  53.332  0.00  0.00     0.378 A 
ATOM      3  C   UNL d   1      53.313  31.413  53.311  0.00  0.00     0.092 A 
ATOM      4  O   UNL d   1      54.557  31.459  53.589  0.00  0.00    -0.258 OA
ATOM      5  C   UNL d   1      53.963  30.976  53.587  0.00  0.00     0.121 A 
ATOM      6  O   UNL d   1      54.869  32.894  53.253  0.00  0.00    -0.237 OA
ATOM      7  C   UNL d   1      52.576  31.056  53.240  0.00  0.00     0.020 A 
ATOM      8  C   UNL d   1      53.869  30.173  53.794  0.00  0.00     0.026 A 
ATOM      9  C   UNL d   1      52.482  30.252  53.447  0.00  0.00     0.002 A 
ATOM     10  C   UNL d   1      53.125  29.806  53.724  0.00  0.00     0.002 A 
ATOM     11  C   UNL d   1      51.726  29.892  53.373  0.00  0.00     0.000 C 
ENDROOT
BRANCH   1  12
ATOM     12  C   UNL d   1      53.116  32.799  52.871  0.00  0.00     0.087 C 
BRANCH  12  13
ATOM     13  C   UNL d   1      52.896  33.418  53.369  0.00  0.00     0.041 A 
ATOM     14  C   UNL d   1      52.208  33.842  53.210  0.00  0.00     0.101 A 
ATOM     15  C   UNL d   1      51.991  34.459  53.711  0.00  0.00     0.025 A 
ATOM     16  C   UNL d   1      52.455  34.654  54.364  0.00  0.00     0.002 A 
ATOM     17  C   UNL d   1      53.148  34.223  54.519  0.00  0.00     0.000 A 
ATOM     18  C   UNL d   1      53.365  33.606  54.019  0.00  0.00     0.004 A 
BRANCH  14  19
ATOM     19  O   UNL d   1      51.766  33.625  52.552  0.00  0.00    -0.307 OA
BRANCH  19  20
ATOM     20  C   UNL d   1      51.095  34.069  52.338  0.00  0.00     0.100 C 
ATOM     21  C   UNL d   1      50.406  34.022  52.795  0.00  0.00     0.027 C 
ATOM     22  C   UNL d   1      51.118  34.554  51.671  0.00  0.00     0.027 C 
ENDBRANCH  19  20
ENDBRANCH  14  19
ENDBRANCH  12  13
ENDBRANCH   1  12
TORSDOF 4
ENDMDL
MODEL 4
REMARK VINA RESULT:      -7.5      2.180      3.664
REMARK  4 active torsions:
REMARK  status: ('A' for Active; 'I' for Inactive)
REMARK    1  A    between atoms: C_5  and  N_1 
REMARK    2  A    between atoms: C_7  and  C_5 
REMARK    3  A    between atoms: O_11  and  C_8 
REMARK    4  A    between atoms: C_16  and  O_11 
ROOT
ATOM      1  N   UNL d   1      52.817  34.483  54.363  0.00  0.00    -0.251 N 
ATOM      2  C   UNL d   1      53.161  35.209  54.593  0.00  0.00     0.378 A 
ATOM      3  C   UNL d   1      53.325  33.875  54.583  0.00  0.00     0.092 A 
ATOM      4  O   UNL d   1      53.869  34.971  54.942  0.00  0.00    -0.258 OA
ATOM      5  C   UNL d   1      53.988  34.216  54.950  0.00  0.00     0.121 A 
ATOM      6  O   UNL d   1      52.835  35.964  54.478  0.00  0.00    -0.237 OA
ATOM      7  C   UNL d   1      53.274  33.059  54.499  0.00  0.00     0.020 A 
ATOM      8  C   UNL d   1      54.604  33.729  55.233  0.00  0.00     0.026 A 
ATOM      9  C   UNL d   1      53.891  32.572  54.784  0.00  0.00     0.002 A 
ATOM     10  C   UNL d   1      54.558  32.902  55.151  0.00  0.00     0.002 A 
ATOM     11  C   UNL d   1      53.834  31.738  54.695  0.00  0.00     0.000 C 
ENDROOT
BRANCH   1  12
ATOM     12  C   UNL d   1      52.094  34.404  53.985  0.00  0.00     0.087 C 
BRANCH  12  13
ATOM     13  C   UNL d   1      52.047  34.432  53.162  0.00  0.00     0.041 A 
ATOM     14  C   UNL d   1      51.313  34.364  52.795  0.00  0.00     0.101 A 
ATOM     15  C   UNL d   1      51.271  34.392  51.972  0.00  0.00     0.025 A 
ATOM     16  C   UNL d   1      51.953  34.487  51.519  0.00  0.00     0.002 A 
ATOM     17  C   UNL d   1      52.690  34.554  51.895  0.00  0.00     0.000 A 
ATOM     18  C   UNL d   1      52.733  34.526  52.717  0.00  0.00     0.004 A 
BRANCH  14  19
ATOM     19  O   UNL d   1      50.651  34.271  53.273  0.00  0.00    -0.307 OA
BRANCH  19  20
ATOM     20  C   UNL d   1      49.893  34.434  52.969  0.00  0.00     0.100 C 
ATOM     21  C   UNL d   1      49.490  35.115  53.208  0.00  0.00     0.027 C 
ATOM     22  C   UNL d   1      49.546  33.914  52.430  0.00  0.00     0.027 C 
ENDBRANCH  19  20
ENDBRANCH  14  19
ENDBRANCH  12  13
ENDBRANCH   1  12
TORSDOF 4
ENDMDL
MODEL 5
REMARK VINA RESULT:      -6.8      1.291      3.959
REMARK  4 active torsions:
REMARK  status: ('A' for Active; 'I' for Inactive)
REMARK    1  A    between atoms: C_5  and  N_1 
REMARK    2  A    between atoms: C_7  and  C_5 
REMARK    3  A    between atoms: O_11  and  C_8 
REMARK    4  A    between atoms: C_16  and  O_11 
ROOT
ATOM      1  N   UNL d   1      53.001  33.825  53.284  0.00  0.00    -0.251 N 
ATOM      2  C   UNL d   1      52.649  34.522  52.985  0.00  0.00     0.378 A 
ATOM      3  C   UNL d   1      53.417  34.018  53.967  0.00  0.00     0.092 A 
ATOM      4  O   UNL d   1      52.889  35.093  53.529  0.00  0.00    -0.258 OA
ATOM      5  C   UNL d   1      53.328  34.833  54.099  0.00  0.00     0.121 A 
ATOM      6  O   UNL d   1      52.179  34.580  52.303  0.00  0.00    -0.237 OA
ATOM      7  C   UNL d   1      53.864  33.562  54.485  0.00  0.00     0.020 A 
ATOM      8  C   UNL d   1      53.693  35.191  54.759  0.00  0.00     0.026 A 
ATOM      9  C   UNL d   1      54.228  33.921  55.146  0.00  0.00     0.002 A 
ATOM     10  C   UNL d   1      54.146  34.734  55.287  0.00  0.00     0.002 A 
ATOM     11  C   UNL d   1      54.684  33.450  55.672  0.00  0.00     0.000 C 
ENDROOT
BRANCH   1  12
ATOM     12  C   UNL d   1      52.935  33.082  52.944  0.00  0.00     0.087 C 
BRANCH  12  13
ATOM     13  C   UNL d   1      52.262  32.622  53.070  0.00  0.00     0.041 A 
ATOM     14  C   UNL d   1      52.327  31.801  53.069  0.00  0.00     0.101 A 
ATOM     15  C   UNL d   1      51.652  31.345  53.195  0.00  0.00     0.025 A 
ATOM     16  C   UNL d   1      50.921  31.703  53.322  0.00  0.00     0.002 A 
ATOM     17  C   UNL d   1      50.862  32.531  53.323  0.00  0.00     0.000 A 
ATOM     18  C   UNL d   1      51.536  32.988  53.196  0.00  0.00     0.004 A 
BRANCH  14  19
ATOM     19  O   UNL d   1      53.069  31.474  52.939  0.00  0.00    -0.307 OA
BRANCH  19  20
ATOM     20  C   UNL d   1      53.173  30.649  52.987  0.00  0.00     0.100 C 
ATOM     21  C   UNL d   1      53.423  30.305  53.697  0.00  0.00     0.027 C 
ATOM     22  C   UNL d   1      53.026  30.176  52.327  0.00  0.00     0.027 C 
ENDBRANCH  19  20
ENDBRANCH  14  19
ENDBRANCH  12  13
ENDBRANCH   1  12
TORSDOF 4
ENDMDL
MODEL 6
REMARK VINA RESULT:      -6.5      1.585      3.591
REMARK  4 active torsions:
REMARK  status: ('A' for Active; 'I' for Inactive)
REMARK    1  A    between atoms: C_5  and  N_1 
REMARK    2  A    between atoms: C_7  and  C_5 
REMARK    3  A    between atoms: O_11  and  C_8 
REMARK    4  A    between atoms: C_16  and  O_11 
ROOT
ATOM      1  N   UNL d   1      53.940  33.139  53.511  0.00  0.00    -0.251 N 
ATOM      2  C   UNL d   1      54.571  32.598  53.425  0.00  0.00     0.378 A 
ATOM      3  C   UNL d   1      54.057  33.565  54.205  0.00  0.00     0.092 A 
ATOM      4  O   UNL d   1      55.030  32.748  54.093  0.00  0.00    -0.258 OA
ATOM      5  C   UNL d   1      54.760  33.295  54.555  0.00  0.00     0.121 A 
ATOM      6  O   UNL d   1      54.672  32.058  52.802  0.00  0.00    -0.237 OA
ATOM      7  C   UNL d   1      53.621  34.162  54.564  0.00  0.00     0.020 A 
ATOM      8  C   UNL d   1      55.024  33.629  55.273  0.00  0.00     0.026 A 
ATOM      9  C   UNL d   1      53.885  34.496  55.282  0.00  0.00     0.002 A 
ATOM     10  C   UNL d   1      54.586  34.234  55.641  0.00  0.00     0.002 A 
ATOM     11  C   UNL d   1      53.435  35.106  55.645  0.00  0.00     0.000 C 
ENDROOT
BRANCH   1  12
ATOM     12  C   UNL d   1      53.315  33.221  52.987  0.00  0.00     0.087 C 
BRANCH  12  13
ATOM     13  C   UNL d   1      52.663  32.718  53.030  0.00  0.00     0.041 A 
ATOM     14  C   UNL d   1      51.913  33.010  52.856  0.00  0.00     0.101 A 
ATOM     15  C   UNL d   1      51.264  32.504  52.900  0.00  0.00     0.025 A 
ATOM     16  C   UNL d   1      51.360  31.715  53.117  0.00  0.00     0.002 A 
ATOM     17  C   UNL d   1      52.119  31.425  53.291  0.00  0.00     0.000 A 
ATOM     18  C   UNL d   1      52.768  31.931  53.247  0.00  0.00     0.004 A 
BRANCH  14  19
ATOM     19  O   UNL d   1      51.848  33.801  52.643  0.00  0.00    -0.307 OA
BRANCH  19  20
ATOM     20  C   UNL d   1      51.117  34.103  52.384  0.00  0.00     0.100 C 
ATOM     21  C   UNL d   1      50.554  34.353  52.937  0.00  0.00     0.027 C 
ATOM     22  C   UNL d   1      50.955  34.152  51.576  0.00  0.00     0.027 C 
ENDBRANCH  19  20
ENDBRANCH  14  19
ENDBRANCH  12  13
ENDBRANCH   1  12
TORSDOF 4
ENDMDL
