MODEL 1
REMARK VINA RESULT:     104.8      0.000      0.000
REMARK  5 active torsions:
REMARK  status: ('A' for Active; 'I' for Inactive)
REMARK    1  A    between atoms: S_5  and  C_2 
REMARK    2  A    between atoms: C_12  and  S_5 
REMARK    3  A    between atoms: N_11  and  C_8 
REMARK    4  A    between atoms: C_19  and  N_11 
REMARK    5  A    between atoms: C_32  and  C_26 
ROOT
ATOM      1  C   UNL d   1     -49.773  27.449  34.594  0.00  0.00     0.197 A 
ATOM      2  C   UNL d   1     -50.129  27.230  33.885  0.00  0.00     0.227 A 
ATOM      3  N   UNL d   1     -49.342  28.143  34.462  0.00  0.00    -0.192 N 
ATOM      4  N   UNL d   1     -49.783  27.106  35.349  0.00  0.00    -0.206 NA
ATOM      5  N   UNL d   1     -49.919  27.792  33.306  0.00  0.00    -0.115 NA
ATOM      6  N   UNL d   1     -49.431  28.356  33.670  0.00  0.00    -0.058 NA
ATOM      7  C   UNL d   1     -49.363  27.455  35.976  0.00  0.00     0.166 A 
ATOM      8  C   UNL d   1     -48.936  28.149  35.835  0.00  0.00     0.054 A 
ATOM      9  C   UNL d   1     -48.920  28.497  35.087  0.00  0.00     0.089 A 
ATOM     10  C   UNL d   1     -48.493  29.189  34.950  0.00  0.00     0.020 A 
ATOM     11  C   UNL d   1     -48.514  28.504  36.455  0.00  0.00     0.016 A 
ATOM     12  C   UNL d   1     -48.086  29.197  36.319  0.00  0.00     0.058 A 
ATOM     13  C   UNL d   1     -48.075  29.538  35.568  0.00  0.00     0.013 A 
ATOM     14 CL   UNL d   1     -47.669  29.544  36.940  0.00  0.00    -0.082 Cl
ENDROOT
BRANCH   2  15
ATOM     15  S   UNL d   1     -50.610  26.573  33.758  0.00  0.00     0.231 S 
ATOM     16  O   UNL d   1     -49.964  26.095  33.584  0.00  0.00    -0.215 OA
ATOM     17  O   UNL d   1     -51.255  27.055  33.933  0.00  0.00    -0.215 OA
BRANCH  15  18
ATOM     18  C   UNL d   1     -51.142  25.955  33.644  0.00  0.00     0.090 A 
ATOM     19  C   UNL d   1     -50.876  25.189  33.560  0.00  0.00     0.011 A 
ATOM     20  C   UNL d   1     -51.405  24.573  33.447  0.00  0.00     0.001 A 
ATOM     21  C   UNL d   1     -52.220  24.733  33.418  0.00  0.00     0.000 A 
ATOM     22  C   UNL d   1     -52.487  25.511  33.504  0.00  0.00     0.001 A 
ATOM     23  C   UNL d   1     -51.955  26.120  33.617  0.00  0.00     0.011 A 
BRANCH  21  24
ATOM     24  C   UNL d   1     -52.750  24.121  33.306  0.00  0.00     0.000 C 
ATOM     25  C   UNL d   1     -52.533  23.341  33.480  0.00  0.00     0.000 C 
ENDBRANCH  21  24
ENDBRANCH  15  18
ENDBRANCH   2  15
BRANCH   7  26
ATOM     26  N   UNL d   1     -49.374  27.113  36.727  0.00  0.00    -0.227 NA
BRANCH  26  27
ATOM     27  C   UNL d   1     -50.090  27.033  37.133  0.00  0.00     0.083 A 
ATOM     28  C   UNL d   1     -50.390  27.663  37.568  0.00  0.00     0.021 A 
ATOM     29  C   UNL d   1     -51.099  27.587  37.972  0.00  0.00     0.031 A 
ATOM     30  C   UNL d   1     -51.516  26.867  37.939  0.00  0.00     0.140 A 
ATOM     31  C   UNL d   1     -51.207  26.231  37.496  0.00  0.00     0.031 A 
ATOM     32  F   UNL d   1     -52.224  26.791  38.343  0.00  0.00    -0.204 F 
ATOM     33  C   UNL d   1     -50.496  26.325  37.098  0.00  0.00     0.021 A 
ENDBRANCH  26  27
ENDBRANCH   7  26
TORSDOF 5
ENDMDL
