MODEL 1
REMARK VINA RESULT:     114.4      0.000      0.000
REMARK  2 active torsions:
REMARK  status: ('A' for Active; 'I' for Inactive)
REMARK    1  A    between atoms: C_7  and  N_1 
REMARK    2  A    between atoms: C_9  and  C_2 
ROOT
ATOM      1  N   UNL d   1      59.751  49.040  50.455  0.00  0.00    -0.273 N 
ATOM      2  C   UNL d   1      60.138  49.158  49.731  0.00  0.00     0.174 A 
ATOM      3  N   UNL d   1      59.572  49.372  49.176  0.00  0.00    -0.204 NA
ATOM      4  C   UNL d   1      58.952  49.183  50.338  0.00  0.00     0.185 A 
ATOM      5  C   UNL d   1      58.839  49.387  49.549  0.00  0.00     0.199 A 
ATOM      6  N   UNL d   1      58.303  49.153  50.851  0.00  0.00    -0.224 NA
ATOM      7  N   UNL d   1      58.084  49.562  49.270  0.00  0.00    -0.223 NA
ATOM      8  C   UNL d   1      57.553  49.326  50.573  0.00  0.00     0.101 A 
ATOM      9  C   UNL d   1      57.437  49.531  49.787  0.00  0.00     0.101 A 
ATOM     10  C   UNL d   1      56.906  49.296  51.084  0.00  0.00     0.021 A 
ATOM     11  C   UNL d   1      56.684  49.706  49.505  0.00  0.00     0.021 A 
ATOM     12  C   UNL d   1      56.035  49.677  50.013  0.00  0.00     0.002 A 
ATOM     13  C   UNL d   1      56.150  49.470  50.810  0.00  0.00     0.002 A 
ENDROOT
BRANCH   1  14
ATOM     14  C   UNL d   1      60.143  48.819  51.146  0.00  0.00     0.069 A 
ATOM     15  C   UNL d   1      60.602  49.375  51.552  0.00  0.00     0.044 A 
ATOM     16  C   UNL d   1      60.993  49.156  52.241  0.00  0.00     0.124 A 
ATOM     17  O   UNL d   1      61.447  49.708  52.641  0.00  0.00    -0.301 OA
ATOM     18  C   UNL d   1      60.924  48.380  52.524  0.00  0.00     0.123 A 
ATOM     19  C   UNL d   1      61.846  49.489  53.342  0.00  0.00     0.149 A 
ATOM     20  C   UNL d   1      61.781  48.710  53.632  0.00  0.00     0.149 A 
ATOM     21  O   UNL d   1      61.320  48.155  53.223  0.00  0.00    -0.301 OA
ATOM     22  C   UNL d   1      60.469  47.826  52.123  0.00  0.00     0.028 A 
ATOM     23  C   UNL d   1      60.078  48.045  51.434  0.00  0.00     0.020 A 
ENDBRANCH   1  14
BRANCH   2  24
ATOM     24  C   UNL d   1      60.947  49.075  49.598  0.00  0.00     0.135 A 
ATOM     25  O   UNL d   1      61.353  48.363  49.504  0.00  0.00    -0.302 OA
ATOM     26  C   UNL d   1      62.155  48.543  49.382  0.00  0.00     0.123 A 
ATOM     27  C   UNL d   1      62.235  49.367  49.403  0.00  0.00     0.029 A 
ATOM     28  C   UNL d   1      61.489  49.695  49.536  0.00  0.00     0.030 A 
ENDBRANCH   2  24
TORSDOF 2
ENDMDL
