MODEL 1
REMARK VINA RESULT:      -8.4      0.000      0.000
REMARK  5 active torsions:
REMARK  status: ('A' for Active; 'I' for Inactive)
REMARK       I    between atoms: N_2  and  C_1 
REMARK    1  A    between atoms: C_11  and  C_1 
REMARK    2  A    between atoms: C_4  and  N_2 
REMARK    3  A    between atoms: C_3  and  C_4 
REMARK    4  A    between atoms: C_5  and  C_3 
REMARK    5  A    between atoms: N_6  and  C_3 
ROOT
ATOM      1  C   UNL d   1      52.603  33.765  53.486  0.00  0.00     0.088 C 
ENDROOT
BRANCH   1   2
ATOM      2  C   UNL d   1      53.114  33.169  53.233  0.00  0.00     0.101 C 
ATOM      3  C   UNL d   1      53.798  33.363  52.825  0.00  0.00     0.022 C 
BRANCH   2   4
ATOM      4  N   UNL d   1      52.931  32.383  53.394  0.00  0.00    -0.206 NA
ATOM      5  C   UNL d   1      53.496  31.790  53.256  0.00  0.00     0.279 C 
ATOM      6  O   UNL d   1      54.237  31.995  52.960  0.00  0.00    -0.265 OA
BRANCH   5   7
ATOM      7  C   UNL d   1      53.313  31.002  53.417  0.00  0.00     0.058 A 
ATOM      8  C   UNL d   1      52.884  30.548  52.868  0.00  0.00     0.005 A 
ATOM      9  C   UNL d   1      52.707  29.766  53.039  0.00  0.00     0.000 A 
ATOM     10  C   UNL d   1      52.952  29.423  53.755  0.00  0.00     0.000 A 
ATOM     11  C   UNL d   1      53.376  29.878  54.295  0.00  0.00     0.000 A 
ATOM     12  C   UNL d   1      53.558  30.667  54.129  0.00  0.00     0.005 A 
ENDBRANCH   5   7
ENDBRANCH   2   4
ENDBRANCH   1   2
BRANCH   1  13
ATOM     13  C   UNL d   1      51.849  33.830  53.156  0.00  0.00     0.047 A 
ATOM     14  S   UNL d   1      51.655  34.177  52.428  0.00  0.00    -0.085 SA
ATOM     15  C   UNL d   1      50.840  34.120  52.323  0.00  0.00     0.035 A 
ATOM     16  C   UNL d   1      50.514  33.737  52.981  0.00  0.00     0.007 A 
ATOM     17  C   UNL d   1      51.139  33.555  53.503  0.00  0.00     0.009 A 
ENDBRANCH   1  13
BRANCH   1  18
ATOM     18  N   UNL d   1      52.842  34.302  54.072  0.00  0.00    -0.299 N 
ATOM     19  C   UNL d   1      52.917  34.055  54.848  0.00  0.00     0.107 A 
ATOM     20  C   UNL d   1      53.154  34.580  55.437  0.00  0.00     0.142 A 
ATOM     21  O   UNL d   1      53.322  35.375  55.249  0.00  0.00    -0.300 OA
ATOM     22  C   UNL d   1      53.245  35.623  54.458  0.00  0.00     0.142 A 
ATOM     23  C   UNL d   1      53.006  35.089  53.873  0.00  0.00     0.107 A 
ENDBRANCH   1  18
TORSDOF 5
ENDMDL
MODEL 2
REMARK VINA RESULT:      -8.3      1.092      2.030
REMARK  5 active torsions:
REMARK  status: ('A' for Active; 'I' for Inactive)
REMARK       I    between atoms: N_2  and  C_1 
REMARK    1  A    between atoms: C_11  and  C_1 
REMARK    2  A    between atoms: C_4  and  N_2 
REMARK    3  A    between atoms: C_3  and  C_4 
REMARK    4  A    between atoms: C_5  and  C_3 
REMARK    5  A    between atoms: N_6  and  C_3 
ROOT
ATOM      1  C   UNL d   1      52.688  33.758  53.505  0.00  0.00     0.088 C 
ENDROOT
BRANCH   1   2
ATOM      2  C   UNL d   1      53.203  33.153  53.285  0.00  0.00     0.101 C 
ATOM      3  C   UNL d   1      53.918  33.336  52.927  0.00  0.00     0.022 C 
BRANCH   2   4
ATOM      4  N   UNL d   1      52.993  32.370  53.427  0.00  0.00    -0.206 NA
ATOM      5  C   UNL d   1      53.547  31.764  53.301  0.00  0.00     0.279 C 
ATOM      6  O   UNL d   1      54.304  31.954  53.035  0.00  0.00    -0.265 OA
BRANCH   5   7
ATOM      7  C   UNL d   1      53.337  30.980  53.443  0.00  0.00     0.058 A 
ATOM      8  C   UNL d   1      52.893  30.554  52.883  0.00  0.00     0.005 A 
ATOM      9  C   UNL d   1      52.690  29.774  53.036  0.00  0.00     0.000 A 
ATOM     10  C   UNL d   1      52.923  29.406  53.742  0.00  0.00     0.000 A 
ATOM     11  C   UNL d   1      53.363  29.832  54.293  0.00  0.00     0.000 A 
ATOM     12  C   UNL d   1      53.571  30.619  54.146  0.00  0.00     0.005 A 
ENDBRANCH   5   7
ENDBRANCH   2   4
ENDBRANCH   1   2
BRANCH   1  13
ATOM     13  C   UNL d   1      52.904  34.291  54.097  0.00  0.00     0.047 A 
ATOM     14  S   UNL d   1      53.125  35.083  53.992  0.00  0.00    -0.085 SA
ATOM     15  C   UNL d   1      53.295  35.405  54.731  0.00  0.00     0.035 A 
ATOM     16  C   UNL d   1      53.182  34.821  55.306  0.00  0.00     0.007 A 
ATOM     17  C   UNL d   1      52.938  34.124  54.915  0.00  0.00     0.009 A 
ENDBRANCH   1  13
BRANCH   1  18
ATOM     18  N   UNL d   1      51.948  33.835  53.134  0.00  0.00    -0.299 N 
ATOM     19  C   UNL d   1      51.271  33.574  53.513  0.00  0.00     0.107 A 
ATOM     20  C   UNL d   1      50.533  33.646  53.153  0.00  0.00     0.142 A 
ATOM     21  O   UNL d   1      50.466  33.986  52.395  0.00  0.00    -0.300 OA
ATOM     22  C   UNL d   1      51.157  34.251  52.013  0.00  0.00     0.142 A 
ATOM     23  C   UNL d   1      51.894  34.175  52.381  0.00  0.00     0.107 A 
ENDBRANCH   1  18
TORSDOF 5
ENDMDL
MODEL 3
REMARK VINA RESULT:      -7.2      1.542      3.979
REMARK  5 active torsions:
REMARK  status: ('A' for Active; 'I' for Inactive)
REMARK       I    between atoms: N_2  and  C_1 
REMARK    1  A    between atoms: C_11  and  C_1 
REMARK    2  A    between atoms: C_4  and  N_2 
REMARK    3  A    between atoms: C_3  and  C_4 
REMARK    4  A    between atoms: C_5  and  C_3 
REMARK    5  A    between atoms: N_6  and  C_3 
ROOT
ATOM      1  C   UNL d   1      53.617  32.746  53.703  0.00  0.00     0.088 C 
ENDROOT
BRANCH   1   2
ATOM      2  C   UNL d   1      53.318  33.314  53.185  0.00  0.00     0.101 C 
ATOM      3  C   UNL d   1      53.830  33.744  52.710  0.00  0.00     0.022 C 
BRANCH   2   4
ATOM      4  N   UNL d   1      52.506  33.443  53.151  0.00  0.00    -0.206 NA
ATOM      5  C   UNL d   1      52.208  34.101  52.740  0.00  0.00     0.279 C 
ATOM      6  O   UNL d   1      52.731  34.619  52.369  0.00  0.00    -0.265 OA
BRANCH   5   7
ATOM      7  C   UNL d   1      51.395  34.231  52.706  0.00  0.00     0.058 A 
ATOM      8  C   UNL d   1      50.990  34.541  53.362  0.00  0.00     0.005 A 
ATOM      9  C   UNL d   1      50.180  34.665  53.317  0.00  0.00     0.000 A 
ATOM     10  C   UNL d   1      49.763  34.485  52.622  0.00  0.00     0.000 A 
ATOM     11  C   UNL d   1      50.169  34.179  51.975  0.00  0.00     0.000 A 
ATOM     12  C   UNL d   1      50.985  34.050  52.014  0.00  0.00     0.005 A 
ENDBRANCH   5   7
ENDBRANCH   2   4
ENDBRANCH   1   2
BRANCH   1  13
ATOM     13  C   UNL d   1      54.018  32.979  54.386  0.00  0.00     0.047 A 
ATOM     14  S   UNL d   1      54.786  33.288  54.427  0.00  0.00    -0.085 SA
ATOM     15  C   UNL d   1      54.961  33.442  55.218  0.00  0.00     0.035 A 
ATOM     16  C   UNL d   1      54.306  33.233  55.680  0.00  0.00     0.007 A 
ATOM     17  C   UNL d   1      53.716  32.943  55.165  0.00  0.00     0.009 A 
ENDBRANCH   1  13
BRANCH   1  18
ATOM     18  N   UNL d   1      53.517  31.937  53.541  0.00  0.00    -0.299 N 
ATOM     19  C   UNL d   1      54.080  31.534  53.105  0.00  0.00     0.107 A 
ATOM     20  C   UNL d   1      53.990  30.732  52.939  0.00  0.00     0.142 A 
ATOM     21  O   UNL d   1      53.321  30.318  53.216  0.00  0.00    -0.300 OA
ATOM     22  C   UNL d   1      52.751  30.731  53.660  0.00  0.00     0.142 A 
ATOM     23  C   UNL d   1      52.849  31.537  53.822  0.00  0.00     0.107 A 
ENDBRANCH   1  18
TORSDOF 5
ENDMDL
