MODEL 1
REMARK VINA RESULT:      -7.2      0.000      0.000
REMARK  6 active torsions:
REMARK  status: ('A' for Active; 'I' for Inactive)
REMARK    1  A    between atoms: C_9  and  N_1 
REMARK    2  A    between atoms: N_2  and  C_8 
REMARK       I    between atoms: C_3  and  N_5 
REMARK    3  A    between atoms: C_12  and  C_3 
REMARK    4  A    between atoms: C_4  and  C_11 
REMARK       I    between atoms: N_6  and  C_4 
REMARK    5  A    between atoms: N_5  and  C_7 
REMARK    6  A    between atoms: C_10  and  N_6 
ROOT
ATOM      1  C   UNL d   1      54.392  32.524  53.872  0.00  0.00     0.121 A 
ATOM      2  C   UNL d   1      54.336  33.133  54.423  0.00  0.00     0.105 A 
ATOM      3  N   UNL d   1      55.424  33.195  53.153  0.00  0.00    -0.241 NA
ATOM      4  C   UNL d   1      54.850  33.799  54.327  0.00  0.00     0.042 A 
ATOM      5  C   UNL d   1      54.922  32.535  53.239  0.00  0.00     0.120 A 
ATOM      6  C   UNL d   1      55.375  33.815  53.704  0.00  0.00     0.101 A 
ENDROOT
BRANCH   1   7
ATOM      7  N   UNL d   1      53.875  31.857  53.970  0.00  0.00    -0.205 NA
ATOM      8  C   UNL d   1      53.964  31.179  53.471  0.00  0.00     0.279 C 
ATOM      9  O   UNL d   1      54.574  31.185  52.882  0.00  0.00    -0.265 OA
BRANCH   8  10
ATOM     10  C   UNL d   1      53.464  30.526  53.561  0.00  0.00     0.059 A 
ATOM     11  C   UNL d   1      53.638  29.949  54.127  0.00  0.00     0.028 A 
ATOM     12  C   UNL d   1      53.145  29.313  54.211  0.00  0.00     0.127 A 
ATOM     13  C   UNL d   1      52.485  29.235  53.748  0.00  0.00     0.024 A 
ATOM     14  C   UNL d   1      52.297  29.799  53.180  0.00  0.00     0.002 A 
ATOM     15  C   UNL d   1      52.796  30.459  53.084  0.00  0.00     0.005 A 
BRANCH  12  16
ATOM     16  N   UNL d   1      53.297  28.738  54.758  0.00  0.00    -0.114 N 
ATOM     17  O   UNL d   1      53.106  28.775  55.564  0.00  0.00    -0.532 OA
ATOM     18  O   UNL d   1      53.665  28.031  54.582  0.00  0.00    -0.532 OA
ENDBRANCH  12  16
ENDBRANCH   8  10
ENDBRANCH   1   7
BRANCH   2  19
ATOM     19  N   UNL d   1      53.803  33.118  55.057  0.00  0.00    -0.206 NA
ATOM     20  C   UNL d   1      53.148  33.621  55.074  0.00  0.00     0.279 C 
ATOM     21  O   UNL d   1      52.627  33.606  55.694  0.00  0.00    -0.265 OA
BRANCH  20  22
ATOM     22  C   UNL d   1      53.022  34.161  54.430  0.00  0.00     0.059 A 
ATOM     23  C   UNL d   1      52.473  33.973  53.845  0.00  0.00     0.028 A 
ATOM     24  C   UNL d   1      52.352  34.494  53.224  0.00  0.00     0.127 A 
ATOM     25  C   UNL d   1      52.761  35.175  53.187  0.00  0.00     0.024 A 
ATOM     26  C   UNL d   1      53.324  35.382  53.774  0.00  0.00     0.002 A 
ATOM     27  C   UNL d   1      53.451  34.857  54.406  0.00  0.00     0.005 A 
BRANCH  24  28
ATOM     28  N   UNL d   1      51.815  34.328  52.636  0.00  0.00    -0.114 N 
ATOM     29  O   UNL d   1      50.989  34.441  52.698  0.00  0.00    -0.532 OA
ATOM     30  O   UNL d   1      52.014  34.029  51.905  0.00  0.00    -0.532 OA
ENDBRANCH  24  28
ENDBRANCH  20  22
ENDBRANCH   2  19
TORSDOF 6
ENDMDL
MODEL 2
REMARK VINA RESULT:      -5.8      1.512      2.306
REMARK  6 active torsions:
REMARK  status: ('A' for Active; 'I' for Inactive)
REMARK    1  A    between atoms: C_9  and  N_1 
REMARK    2  A    between atoms: N_2  and  C_8 
REMARK       I    between atoms: C_3  and  N_5 
REMARK    3  A    between atoms: C_12  and  C_3 
REMARK    4  A    between atoms: C_4  and  C_11 
REMARK       I    between atoms: N_6  and  C_4 
REMARK    5  A    between atoms: N_5  and  C_7 
REMARK    6  A    between atoms: C_10  and  N_6 
ROOT
ATOM      1  C   UNL d   1      52.297  32.580  53.146  0.00  0.00     0.121 A 
ATOM      2  C   UNL d   1      52.729  33.246  52.924  0.00  0.00     0.105 A 
ATOM      3  N   UNL d   1      51.074  33.312  53.165  0.00  0.00    -0.241 NA
ATOM      4  C   UNL d   1      52.306  33.971  52.820  0.00  0.00     0.042 A 
ATOM      5  C   UNL d   1      51.481  32.591  53.270  0.00  0.00     0.120 A 
ATOM      6  C   UNL d   1      51.501  33.988  52.941  0.00  0.00     0.101 A 
ENDROOT
BRANCH   1   7
ATOM      7  N   UNL d   1      52.724  31.853  53.249  0.00  0.00    -0.205 NA
ATOM      8  C   UNL d   1      52.305  31.117  53.250  0.00  0.00     0.279 C 
ATOM      9  O   UNL d   1      51.464  31.127  53.146  0.00  0.00    -0.265 OA
BRANCH   8  10
ATOM     10  C   UNL d   1      52.715  30.404  53.350  0.00  0.00     0.059 A 
ATOM     11  C   UNL d   1      52.789  30.075  54.104  0.00  0.00     0.028 A 
ATOM     12  C   UNL d   1      53.191  29.379  54.196  0.00  0.00     0.127 A 
ATOM     13  C   UNL d   1      53.519  29.001  53.559  0.00  0.00     0.024 A 
ATOM     14  C   UNL d   1      53.454  29.314  52.801  0.00  0.00     0.002 A 
ATOM     15  C   UNL d   1      53.043  30.031  52.694  0.00  0.00     0.005 A 
BRANCH  12  16
ATOM     16  N   UNL d   1      53.276  29.040  54.924  0.00  0.00    -0.114 N 
ATOM     17  O   UNL d   1      53.366  29.448  55.640  0.00  0.00    -0.532 OA
ATOM     18  O   UNL d   1      53.284  28.234  55.051  0.00  0.00    -0.532 OA
ENDBRANCH  12  16
ENDBRANCH   8  10
ENDBRANCH   1   7
BRANCH   2  19
ATOM     19  N   UNL d   1      53.548  33.229  52.801  0.00  0.00    -0.206 NA
ATOM     20  C   UNL d   1      54.065  33.590  53.334  0.00  0.00     0.279 C 
ATOM     21  O   UNL d   1      54.866  33.574  53.214  0.00  0.00    -0.265 OA
BRANCH  20  22
ATOM     22  C   UNL d   1      53.749  33.983  54.018  0.00  0.00     0.059 A 
ATOM     23  C   UNL d   1      53.594  34.792  53.986  0.00  0.00     0.028 A 
ATOM     24  C   UNL d   1      53.290  35.171  54.645  0.00  0.00     0.127 A 
ATOM     25  C   UNL d   1      53.144  34.761  55.311  0.00  0.00     0.024 A 
ATOM     26  C   UNL d   1      53.295  33.937  55.362  0.00  0.00     0.002 A 
ATOM     27  C   UNL d   1      53.605  33.547  54.695  0.00  0.00     0.005 A 
BRANCH  24  28
ATOM     28  N   UNL d   1      53.130  35.968  54.635  0.00  0.00    -0.114 N 
ATOM     29  O   UNL d   1      53.597  36.544  54.250  0.00  0.00    -0.532 OA
ATOM     30  O   UNL d   1      52.488  36.311  55.002  0.00  0.00    -0.532 OA
ENDBRANCH  24  28
ENDBRANCH  20  22
ENDBRANCH   2  19
TORSDOF 6
ENDMDL
MODEL 3
REMARK VINA RESULT:      -5.5      2.642      5.268
REMARK  6 active torsions:
REMARK  status: ('A' for Active; 'I' for Inactive)
REMARK    1  A    between atoms: C_9  and  N_1 
REMARK    2  A    between atoms: N_2  and  C_8 
REMARK       I    between atoms: C_3  and  N_5 
REMARK    3  A    between atoms: C_12  and  C_3 
REMARK    4  A    between atoms: C_4  and  C_11 
REMARK       I    between atoms: N_6  and  C_4 
REMARK    5  A    between atoms: N_5  and  C_7 
REMARK    6  A    between atoms: C_10  and  N_6 
ROOT
ATOM      1  C   UNL d   1      51.553  34.056  52.936  0.00  0.00     0.121 A 
ATOM      2  C   UNL d   1      52.291  34.390  53.089  0.00  0.00     0.105 A 
ATOM      3  N   UNL d   1      52.139  32.858  52.434  0.00  0.00    -0.241 NA
ATOM      4  C   UNL d   1      52.976  33.930  52.903  0.00  0.00     0.042 A 
ATOM      5  C   UNL d   1      51.457  33.303  52.614  0.00  0.00     0.120 A 
ATOM      6  C   UNL d   1      52.887  33.186  52.584  0.00  0.00     0.101 A 
ENDROOT
BRANCH   1   7
ATOM      7  N   UNL d   1      50.867  34.521  53.124  0.00  0.00    -0.205 NA
ATOM      8  C   UNL d   1      50.188  34.488  52.618  0.00  0.00     0.279 C 
ATOM      9  O   UNL d   1      50.213  33.989  51.934  0.00  0.00    -0.265 OA
BRANCH   8  10
ATOM     10  C   UNL d   1      49.515  34.938  52.795  0.00  0.00     0.059 A 
ATOM     11  C   UNL d   1      48.947  35.074  52.211  0.00  0.00     0.028 A 
ATOM     12  C   UNL d   1      48.292  35.514  52.389  0.00  0.00     0.127 A 
ATOM     13  C   UNL d   1      48.187  35.822  53.131  0.00  0.00     0.024 A 
ATOM     14  C   UNL d   1      48.743  35.696  53.724  0.00  0.00     0.002 A 
ATOM     15  C   UNL d   1      49.421  35.244  53.553  0.00  0.00     0.005 A 
BRANCH  12  16
ATOM     16  N   UNL d   1      47.724  35.660  51.833  0.00  0.00    -0.114 N 
ATOM     17  O   UNL d   1      47.358  35.090  51.355  0.00  0.00    -0.532 OA
ATOM     18  O   UNL d   1      47.432  36.404  51.668  0.00  0.00    -0.532 OA
ENDBRANCH  12  16
ENDBRANCH   8  10
ENDBRANCH   1   7
BRANCH   2  19
ATOM     19  N   UNL d   1      52.383  35.147  53.412  0.00  0.00    -0.206 NA
ATOM     20  C   UNL d   1      52.826  35.265  54.100  0.00  0.00     0.279 C 
ATOM     21  O   UNL d   1      52.916  36.004  54.416  0.00  0.00    -0.265 OA
BRANCH  20  22
ATOM     22  C   UNL d   1      53.191  34.597  54.478  0.00  0.00     0.059 A 
ATOM     23  C   UNL d   1      54.010  34.508  54.441  0.00  0.00     0.028 A 
ATOM     24  C   UNL d   1      54.362  33.864  54.805  0.00  0.00     0.127 A 
ATOM     25  C   UNL d   1      53.918  33.330  55.191  0.00  0.00     0.024 A 
ATOM     26  C   UNL d   1      53.083  33.405  55.239  0.00  0.00     0.002 A 
ATOM     27  C   UNL d   1      52.720  34.056  54.871  0.00  0.00     0.005 A 
BRANCH  24  28
ATOM     28  N   UNL d   1      55.168  33.757  54.780  0.00  0.00    -0.114 N 
ATOM     29  O   UNL d   1      55.569  33.275  54.228  0.00  0.00    -0.532 OA
ATOM     30  O   UNL d   1      55.692  34.107  55.296  0.00  0.00    -0.532 OA
ENDBRANCH  24  28
ENDBRANCH  20  22
ENDBRANCH   2  19
TORSDOF 6
ENDMDL
MODEL 4
REMARK VINA RESULT:      -5.2      1.540      2.587
REMARK  6 active torsions:
REMARK  status: ('A' for Active; 'I' for Inactive)
REMARK    1  A    between atoms: C_9  and  N_1 
REMARK    2  A    between atoms: N_2  and  C_8 
REMARK       I    between atoms: C_3  and  N_5 
REMARK    3  A    between atoms: C_12  and  C_3 
REMARK    4  A    between atoms: C_4  and  C_11 
REMARK       I    between atoms: N_6  and  C_4 
REMARK    5  A    between atoms: N_5  and  C_7 
REMARK    6  A    between atoms: C_10  and  N_6 
ROOT
ATOM      1  C   UNL d   1      52.861  33.702  53.784  0.00  0.00     0.121 A 
ATOM      2  C   UNL d   1      52.578  34.253  53.239  0.00  0.00     0.105 A 
ATOM      3  N   UNL d   1      52.785  34.640  54.854  0.00  0.00    -0.241 NA
ATOM      4  C   UNL d   1      52.394  35.028  53.525  0.00  0.00     0.042 A 
ATOM      5  C   UNL d   1      52.970  33.873  54.584  0.00  0.00     0.120 A 
ATOM      6  C   UNL d   1      52.500  35.202  54.313  0.00  0.00     0.101 A 
ENDROOT
BRANCH   1   7
ATOM      7  N   UNL d   1      53.045  32.925  53.494  0.00  0.00    -0.205 NA
ATOM      8  C   UNL d   1      53.499  32.395  53.975  0.00  0.00     0.279 C 
ATOM      9  O   UNL d   1      53.759  32.659  54.737  0.00  0.00    -0.265 OA
BRANCH   8  10
ATOM     10  C   UNL d   1      53.683  31.636  53.700  0.00  0.00     0.059 A 
ATOM     11  C   UNL d   1      53.219  30.992  53.931  0.00  0.00     0.028 A 
ATOM     12  C   UNL d   1      53.403  30.253  53.659  0.00  0.00     0.127 A 
ATOM     13  C   UNL d   1      54.034  30.137  53.165  0.00  0.00     0.024 A 
ATOM     14  C   UNL d   1      54.506  30.766  52.925  0.00  0.00     0.002 A 
ATOM     15  C   UNL d   1      54.327  31.533  53.199  0.00  0.00     0.005 A 
BRANCH  12  16
ATOM     16  N   UNL d   1      52.964  29.610  53.872  0.00  0.00    -0.114 N 
ATOM     17  O   UNL d   1      53.155  29.069  54.471  0.00  0.00    -0.532 OA
ATOM     18  O   UNL d   1      52.258  29.404  53.516  0.00  0.00    -0.532 OA
ENDBRANCH  12  16
ENDBRANCH   8  10
ENDBRANCH   1   7
BRANCH   2  19
ATOM     19  N   UNL d   1      52.470  34.077  52.437  0.00  0.00    -0.206 NA
ATOM     20  C   UNL d   1      51.714  33.963  52.125  0.00  0.00     0.279 C 
ATOM     21  O   UNL d   1      51.608  33.791  51.341  0.00  0.00    -0.265 OA
BRANCH  20  22
ATOM     22  C   UNL d   1      51.039  34.029  52.637  0.00  0.00     0.059 A 
ATOM     23  C   UNL d   1      50.529  34.671  52.555  0.00  0.00     0.028 A 
ATOM     24  C   UNL d   1      49.878  34.735  53.048  0.00  0.00     0.127 A 
ATOM     25  C   UNL d   1      49.740  34.181  53.602  0.00  0.00     0.024 A 
ATOM     26  C   UNL d   1      50.249  33.520  53.700  0.00  0.00     0.002 A 
ATOM     27  C   UNL d   1      50.911  33.451  53.201  0.00  0.00     0.005 A 
BRANCH  24  28
ATOM     28  N   UNL d   1      49.362  35.361  52.984  0.00  0.00    -0.114 N 
ATOM     29  O   UNL d   1      49.225  35.929  53.582  0.00  0.00    -0.532 OA
ATOM     30  O   UNL d   1      48.908  35.515  52.326  0.00  0.00    -0.532 OA
ENDBRANCH  24  28
ENDBRANCH  20  22
ENDBRANCH   2  19
TORSDOF 6
ENDMDL
MODEL 5
REMARK VINA RESULT:      -5.0      2.414      5.102
REMARK  6 active torsions:
REMARK  status: ('A' for Active; 'I' for Inactive)
REMARK    1  A    between atoms: C_9  and  N_1 
REMARK    2  A    between atoms: N_2  and  C_8 
REMARK       I    between atoms: C_3  and  N_5 
REMARK    3  A    between atoms: C_12  and  C_3 
REMARK    4  A    between atoms: C_4  and  C_11 
REMARK       I    between atoms: N_6  and  C_4 
REMARK    5  A    between atoms: N_5  and  C_7 
REMARK    6  A    between atoms: C_10  and  N_6 
ROOT
ATOM      1  C   UNL d   1      51.455  33.674  52.923  0.00  0.00     0.121 A 
ATOM      2  C   UNL d   1      52.243  33.912  52.889  0.00  0.00     0.105 A 
ATOM      3  N   UNL d   1      51.817  32.308  53.106  0.00  0.00    -0.241 NA
ATOM      4  C   UNL d   1      52.837  33.313  52.968  0.00  0.00     0.042 A 
ATOM      5  C   UNL d   1      51.223  32.889  53.029  0.00  0.00     0.120 A 
ATOM      6  C   UNL d   1      52.615  32.537  53.074  0.00  0.00     0.101 A 
ENDROOT
BRANCH   1   7
ATOM      7  N   UNL d   1      50.861  34.277  52.843  0.00  0.00    -0.205 NA
ATOM      8  C   UNL d   1      50.073  34.061  52.620  0.00  0.00     0.279 C 
ATOM      9  O   UNL d   1      49.898  33.243  52.483  0.00  0.00    -0.265 OA
BRANCH   8  10
ATOM     10  C   UNL d   1      49.488  34.642  52.540  0.00  0.00     0.059 A 
ATOM     11  C   UNL d   1      49.218  35.047  53.207  0.00  0.00     0.028 A 
ATOM     12  C   UNL d   1      48.647  35.614  53.123  0.00  0.00     0.127 A 
ATOM     13  C   UNL d   1      48.339  35.789  52.395  0.00  0.00     0.024 A 
ATOM     14  C   UNL d   1      48.597  35.396  51.720  0.00  0.00     0.002 A 
ATOM     15  C   UNL d   1      49.184  34.810  51.794  0.00  0.00     0.005 A 
BRANCH  12  16
ATOM     16  N   UNL d   1      48.368  36.023  53.762  0.00  0.00    -0.114 N 
ATOM     17  O   UNL d   1      47.705  35.818  54.215  0.00  0.00    -0.532 OA
ATOM     18  O   UNL d   1      48.711  36.705  54.049  0.00  0.00    -0.532 OA
ENDBRANCH  12  16
ENDBRANCH   8  10
ENDBRANCH   1   7
BRANCH   2  19
ATOM     19  N   UNL d   1      52.471  34.701  52.782  0.00  0.00    -0.206 NA
ATOM     20  C   UNL d   1      52.934  35.090  53.344  0.00  0.00     0.279 C 
ATOM     21  O   UNL d   1      53.156  35.861  53.240  0.00  0.00    -0.265 OA
BRANCH  20  22
ATOM     22  C   UNL d   1      53.179  34.671  54.042  0.00  0.00     0.059 A 
ATOM     23  C   UNL d   1      53.957  34.404  54.102  0.00  0.00     0.028 A 
ATOM     24  C   UNL d   1      54.194  34.001  54.774  0.00  0.00     0.127 A 
ATOM     25  C   UNL d   1      53.677  33.867  55.364  0.00  0.00     0.024 A 
ATOM     26  C   UNL d   1      52.881  34.131  55.320  0.00  0.00     0.002 A 
ATOM     27  C   UNL d   1      52.636  34.541  54.639  0.00  0.00     0.005 A 
BRANCH  24  28
ATOM     28  N   UNL d   1      54.956  33.729  54.855  0.00  0.00    -0.114 N 
ATOM     29  O   UNL d   1      55.245  33.014  54.532  0.00  0.00    -0.532 OA
ATOM     30  O   UNL d   1      55.542  34.121  55.263  0.00  0.00    -0.532 OA
ENDBRANCH  24  28
ENDBRANCH  20  22
ENDBRANCH   2  19
TORSDOF 6
ENDMDL
MODEL 6
REMARK VINA RESULT:      -4.9      1.472      4.777
REMARK  6 active torsions:
REMARK  status: ('A' for Active; 'I' for Inactive)
REMARK    1  A    between atoms: C_9  and  N_1 
REMARK    2  A    between atoms: N_2  and  C_8 
REMARK       I    between atoms: C_3  and  N_5 
REMARK    3  A    between atoms: C_12  and  C_3 
REMARK    4  A    between atoms: C_4  and  C_11 
REMARK       I    between atoms: N_6  and  C_4 
REMARK    5  A    between atoms: N_5  and  C_7 
REMARK    6  A    between atoms: C_10  and  N_6 
ROOT
ATOM      1  C   UNL d   1      52.949  32.841  53.729  0.00  0.00     0.121 A 
ATOM      2  C   UNL d   1      53.333  32.287  53.255  0.00  0.00     0.105 A 
ATOM      3  N   UNL d   1      54.060  32.931  54.618  0.00  0.00    -0.241 NA
ATOM      4  C   UNL d   1      54.114  32.051  53.481  0.00  0.00     0.042 A 
ATOM      5  C   UNL d   1      53.290  33.171  54.405  0.00  0.00     0.120 A 
ATOM      6  C   UNL d   1      54.455  32.373  54.147  0.00  0.00     0.101 A 
ENDROOT
BRANCH   1   7
ATOM      7  N   UNL d   1      52.166  33.076  53.500  0.00  0.00    -0.205 NA
ATOM      8  C   UNL d   1      51.987  33.898  53.399  0.00  0.00     0.279 C 
ATOM      9  O   UNL d   1      52.602  34.467  53.531  0.00  0.00    -0.265 OA
BRANCH   8  10
ATOM     10  C   UNL d   1      51.226  34.135  53.176  0.00  0.00     0.059 A 
ATOM     11  C   UNL d   1      51.013  34.136  52.378  0.00  0.00     0.028 A 
ATOM     12  C   UNL d   1      50.268  34.368  52.166  0.00  0.00     0.127 A 
ATOM     13  C   UNL d   1      49.730  34.600  52.725  0.00  0.00     0.024 A 
ATOM     14  C   UNL d   1      49.925  34.605  53.524  0.00  0.00     0.002 A 
ATOM     15  C   UNL d   1      50.689  34.368  53.755  0.00  0.00     0.005 A 
BRANCH  12  16
ATOM     16  N   UNL d   1      50.039  34.377  51.391  0.00  0.00    -0.114 N 
ATOM     17  O   UNL d   1      49.257  34.409  51.118  0.00  0.00    -0.532 OA
ATOM     18  O   UNL d   1      50.561  34.354  50.764  0.00  0.00    -0.532 OA
ENDBRANCH  12  16
ENDBRANCH   8  10
ENDBRANCH   1   7
BRANCH   2  19
ATOM     19  N   UNL d   1      52.988  31.959  52.578  0.00  0.00    -0.206 NA
ATOM     20  C   UNL d   1      52.955  31.140  52.470  0.00  0.00     0.279 C 
ATOM     21  O   UNL d   1      52.617  30.820  51.808  0.00  0.00    -0.265 OA
BRANCH  20  22
ATOM     22  C   UNL d   1      53.283  30.630  53.066  0.00  0.00     0.059 A 
ATOM     23  C   UNL d   1      52.778  30.244  53.591  0.00  0.00     0.028 A 
ATOM     24  C   UNL d   1      53.093  29.753  54.165  0.00  0.00     0.127 A 
ATOM     25  C   UNL d   1      53.880  29.649  54.216  0.00  0.00     0.024 A 
ATOM     26  C   UNL d   1      54.409  30.034  53.690  0.00  0.00     0.002 A 
ATOM     27  C   UNL d   1      54.094  30.535  53.105  0.00  0.00     0.005 A 
BRANCH  24  28
ATOM     28  N   UNL d   1      52.613  29.362  54.693  0.00  0.00    -0.114 N 
ATOM     29  O   UNL d   1      51.779  29.415  54.711  0.00  0.00    -0.532 OA
ATOM     30  O   UNL d   1      52.886  28.864  55.278  0.00  0.00    -0.532 OA
ENDBRANCH  24  28
ENDBRANCH  20  22
ENDBRANCH   2  19
TORSDOF 6
ENDMDL
