MODEL 1
REMARK VINA RESULT:      -5.9      0.000      0.000
REMARK  2 active torsions:
REMARK  status: ('A' for Active; 'I' for Inactive)
REMARK    1  A    between atoms: N_2  and  S_1 
REMARK    2  A    between atoms: C_3  and  S_1 
ROOT
ATOM      1  N   UNL d   1      57.213  -0.192  31.483  0.00  0.00    -0.229 N 
ATOM      2  C   UNL d   1      56.826   0.372  31.927  0.00  0.00     0.092 A 
ATOM      3  C   UNL d   1      56.268   0.127  32.483  0.00  0.00     0.018 A 
ATOM      4  C   UNL d   1      57.057  -0.999  31.580  0.00  0.00     0.092 A 
ATOM      5  C   UNL d   1      56.109  -0.694  32.582  0.00  0.00     0.003 A 
ATOM      6  C   UNL d   1      56.513  -1.240  32.122  0.00  0.00     0.020 A 
ATOM      7  C   UNL d   1      55.863   0.682  32.945  0.00  0.00     0.002 A 
ATOM      8  C   UNL d   1      55.550  -0.931  33.140  0.00  0.00     0.000 A 
ATOM      9  C   UNL d   1      55.311   0.430  33.494  0.00  0.00     0.000 A 
ATOM     10  C   UNL d   1      55.155  -0.376  33.591  0.00  0.00     0.000 A 
ENDROOT
BRANCH   1  11
ATOM     11  S   UNL d   1      57.788   0.063  30.911  0.00  0.00     0.277 S 
ATOM     12  O   UNL d   1      58.210   0.464  31.517  0.00  0.00    -0.199 OA
ATOM     13  O   UNL d   1      57.371  -0.333  30.304  0.00  0.00    -0.199 OA
BRANCH  11  14
ATOM     14  C   UNL d   1      58.331   0.301  30.349  0.00  0.00     0.133 A 
ATOM     15  S   UNL d   1      59.114   0.430  30.500  0.00  0.00    -0.074 SA
ATOM     16  C   UNL d   1      59.497   0.672  29.768  0.00  0.00     0.036 A 
ATOM     17  C   UNL d   1      58.900   0.682  29.162  0.00  0.00     0.008 A 
ATOM     18  C   UNL d   1      58.202   0.458  29.515  0.00  0.00     0.020 A 
ENDBRANCH  11  14
ENDBRANCH   1  11
TORSDOF 2
ENDMDL
MODEL 2
REMARK VINA RESULT:      -5.0      1.128      1.638
REMARK  2 active torsions:
REMARK  status: ('A' for Active; 'I' for Inactive)
REMARK    1  A    between atoms: N_2  and  S_1 
REMARK    2  A    between atoms: C_3  and  S_1 
ROOT
ATOM      1  N   UNL d   1      57.704  -0.319  30.773  0.00  0.00    -0.229 N 
ATOM      2  C   UNL d   1      57.316  -0.912  31.177  0.00  0.00     0.092 A 
ATOM      3  C   UNL d   1      56.798  -0.706  31.786  0.00  0.00     0.018 A 
ATOM      4  C   UNL d   1      57.588   0.478  30.962  0.00  0.00     0.092 A 
ATOM      5  C   UNL d   1      56.680   0.105  31.978  0.00  0.00     0.003 A 
ATOM      6  C   UNL d   1      57.084   0.681  31.555  0.00  0.00     0.020 A 
ATOM      7  C   UNL d   1      56.394  -1.291  32.210  0.00  0.00     0.002 A 
ATOM      8  C   UNL d   1      56.162   0.303  32.587  0.00  0.00     0.000 A 
ATOM      9  C   UNL d   1      55.883  -1.078  32.811  0.00  0.00     0.000 A 
ATOM     10  C   UNL d   1      55.767  -0.281  33.000  0.00  0.00     0.000 A 
ENDROOT
BRANCH   1  11
ATOM     11  S   UNL d   1      58.237  -0.534  30.147  0.00  0.00     0.277 S 
ATOM     12  O   UNL d   1      57.778  -1.222  29.996  0.00  0.00    -0.199 OA
ATOM     13  O   UNL d   1      58.697   0.149  30.292  0.00  0.00    -0.199 OA
BRANCH  11  14
ATOM     14  C   UNL d   1      58.758  -0.727  29.547  0.00  0.00     0.133 A 
ATOM     15  S   UNL d   1      59.378  -0.264  29.318  0.00  0.00    -0.074 SA
ATOM     16  C   UNL d   1      59.791  -0.659  28.674  0.00  0.00     0.036 A 
ATOM     17  C   UNL d   1      59.383  -1.392  28.526  0.00  0.00     0.008 A 
ATOM     18  C   UNL d   1      58.764  -1.429  29.052  0.00  0.00     0.020 A 
ENDBRANCH  11  14
ENDBRANCH   1  11
TORSDOF 2
ENDMDL
MODEL 3
REMARK VINA RESULT:      -4.6      1.204      3.879
REMARK  2 active torsions:
REMARK  status: ('A' for Active; 'I' for Inactive)
REMARK    1  A    between atoms: N_2  and  S_1 
REMARK    2  A    between atoms: C_3  and  S_1 
ROOT
ATOM      1  N   UNL d   1      57.487  -0.140  31.053  0.00  0.00    -0.229 N 
ATOM      2  C   UNL d   1      57.786  -0.815  30.704  0.00  0.00     0.092 A 
ATOM      3  C   UNL d   1      58.226  -0.742  30.010  0.00  0.00     0.018 A 
ATOM      4  C   UNL d   1      57.615   0.608  30.724  0.00  0.00     0.092 A 
ATOM      5  C   UNL d   1      58.356   0.019  29.675  0.00  0.00     0.003 A 
ATOM      6  C   UNL d   1      58.043   0.681  30.047  0.00  0.00     0.020 A 
ATOM      7  C   UNL d   1      58.539  -1.412  29.639  0.00  0.00     0.002 A 
ATOM      8  C   UNL d   1      58.796   0.084  28.981  0.00  0.00     0.000 A 
ATOM      9  C   UNL d   1      58.973  -1.332  28.951  0.00  0.00     0.000 A 
ATOM     10  C   UNL d   1      59.102  -0.584  28.622  0.00  0.00     0.000 A 
ENDROOT
BRANCH   1  11
ATOM     11  S   UNL d   1      57.035  -0.218  31.769  0.00  0.00     0.277 S 
ATOM     12  O   UNL d   1      57.385   0.487  32.064  0.00  0.00    -0.199 OA
ATOM     13  O   UNL d   1      56.684  -0.919  31.480  0.00  0.00    -0.199 OA
BRANCH  11  14
ATOM     14  C   UNL d   1      56.593  -0.307  32.451  0.00  0.00     0.133 A 
ATOM     15  S   UNL d   1      56.676   0.155  33.108  0.00  0.00    -0.074 SA
ATOM     16  C   UNL d   1      56.113  -0.114  33.703  0.00  0.00     0.036 A 
ATOM     17  C   UNL d   1      55.684  -0.767  33.365  0.00  0.00     0.008 A 
ATOM     18  C   UNL d   1      55.975  -0.880  32.614  0.00  0.00     0.020 A 
ENDBRANCH  11  14
ENDBRANCH   1  11
TORSDOF 2
ENDMDL
MODEL 4
REMARK VINA RESULT:      -3.8      1.861      3.924
REMARK  2 active torsions:
REMARK  status: ('A' for Active; 'I' for Inactive)
REMARK    1  A    between atoms: N_2  and  S_1 
REMARK    2  A    between atoms: C_3  and  S_1 
ROOT
ATOM      1  N   UNL d   1      56.264  -0.189  32.680  0.00  0.00    -0.229 N 
ATOM      2  C   UNL d   1      56.658   0.373  32.238  0.00  0.00     0.092 A 
ATOM      3  C   UNL d   1      57.088   0.130  31.577  0.00  0.00     0.018 A 
ATOM      4  C   UNL d   1      56.289  -0.991  32.478  0.00  0.00     0.092 A 
ATOM      5  C   UNL d   1      57.113  -0.686  31.371  0.00  0.00     0.003 A 
ATOM      6  C   UNL d   1      56.707  -1.230  31.834  0.00  0.00     0.020 A 
ATOM      7  C   UNL d   1      57.495   0.682  31.114  0.00  0.00     0.002 A 
ATOM      8  C   UNL d   1      57.544  -0.921  30.710  0.00  0.00     0.000 A 
ATOM      9  C   UNL d   1      57.918   0.433  30.460  0.00  0.00     0.000 A 
ATOM     10  C   UNL d   1      57.943  -0.369  30.259  0.00  0.00     0.000 A 
ENDROOT
BRANCH   1  11
ATOM     11  S   UNL d   1      55.822   0.065  33.360  0.00  0.00     0.277 S 
ATOM     12  O   UNL d   1      56.517   0.415  33.678  0.00  0.00    -0.199 OA
ATOM     13  O   UNL d   1      55.128  -0.283  33.049  0.00  0.00    -0.199 OA
BRANCH  11  14
ATOM     14  C   UNL d   1      55.384   0.301  34.008  0.00  0.00     0.133 A 
ATOM     15  S   UNL d   1      55.692   0.428  34.744  0.00  0.00    -0.074 SA
ATOM     16  C   UNL d   1      55.054   0.670  35.269  0.00  0.00     0.036 A 
ATOM     17  C   UNL d   1      54.339   0.682  34.808  0.00  0.00     0.008 A 
ATOM     18  C   UNL d   1      54.540   0.460  34.052  0.00  0.00     0.020 A 
ENDBRANCH  11  14
ENDBRANCH   1  11
TORSDOF 2
ENDMDL
