MODEL 1
REMARK VINA RESULT:      -6.0      0.000      0.000
REMARK  1 active torsions:
REMARK  status: ('A' for Active; 'I' for Inactive)
REMARK    1  A    between atoms: C_4  and  C_1 
ROOT
ATOM      1  C   UNL d   1     -41.580-122.649 -52.755  0.00  0.00     0.112 A 
ATOM      2  N   UNL d   1     -42.162-122.153 -53.079  0.00  0.00    -0.238 NA
ATOM      3  S   UNL d   1     -41.123-122.958 -53.380  0.00  0.00    -0.066 SA
ATOM      4  C   UNL d   1     -42.066-122.154 -53.904  0.00  0.00     0.088 A 
ATOM      5  C   UNL d   1     -41.425-122.650 -54.089  0.00  0.00     0.049 A 
ATOM      6  C   UNL d   1     -42.478-121.768 -54.506  0.00  0.00     0.020 A 
ATOM      7  C   UNL d   1     -41.200-122.758 -54.876  0.00  0.00     0.008 A 
ATOM      8  C   UNL d   1     -41.612-122.372 -55.477  0.00  0.00     0.001 A 
ATOM      9  C   UNL d   1     -42.253-121.876 -55.292  0.00  0.00     0.002 A 
ENDROOT
BRANCH   1  10
ATOM     10  C   UNL d   1     -41.468-122.812 -51.952  0.00  0.00     0.043 A 
ATOM     11  C   UNL d   1     -41.240-122.204 -51.437  0.00  0.00     0.105 A 
ATOM     12  N   UNL d   1     -41.125-121.440 -51.727  0.00  0.00    -0.148 N 
ATOM     13  C   UNL d   1     -41.129-122.367 -50.635  0.00  0.00     0.021 A 
ATOM     14  C   UNL d   1     -41.244-123.131 -50.344  0.00  0.00     0.002 A 
ATOM     15  C   UNL d   1     -41.473-123.733 -50.870  0.00  0.00     0.000 A 
ATOM     16  C   UNL d   1     -41.583-123.576 -51.661  0.00  0.00     0.004 A 
ENDBRANCH   1  10
TORSDOF 1
ENDMDL
MODEL 2
REMARK VINA RESULT:      -5.2      0.523      3.430
REMARK  1 active torsions:
REMARK  status: ('A' for Active; 'I' for Inactive)
REMARK    1  A    between atoms: C_4  and  C_1 
ROOT
ATOM      1  C   UNL d   1     -41.502-122.581 -53.248  0.00  0.00     0.112 A 
ATOM      2  N   UNL d   1     -41.405-121.974 -52.688  0.00  0.00    -0.238 NA
ATOM      3  S   UNL d   1     -41.468-123.312 -52.848  0.00  0.00    -0.066 SA
ATOM      4  C   UNL d   1     -41.312-122.328 -51.943  0.00  0.00     0.088 A 
ATOM      5  C   UNL d   1     -41.351-123.153 -52.041  0.00  0.00     0.049 A 
ATOM      6  C   UNL d   1     -41.198-122.007 -51.192  0.00  0.00     0.020 A 
ATOM      7  C   UNL d   1     -41.276-123.651 -51.388  0.00  0.00     0.008 A 
ATOM      8  C   UNL d   1     -41.161-123.329 -50.637  0.00  0.00     0.001 A 
ATOM      9  C   UNL d   1     -41.123-122.505 -50.539  0.00  0.00     0.002 A 
ENDROOT
BRANCH   1  10
ATOM     10  C   UNL d   1     -41.612-122.483 -54.062  0.00  0.00     0.043 A 
ATOM     11  C   UNL d   1     -42.216-121.987 -54.337  0.00  0.00     0.105 A 
ATOM     12  N   UNL d   1     -42.704-121.595 -53.799  0.00  0.00    -0.148 N 
ATOM     13  C   UNL d   1     -42.326-121.889 -55.150  0.00  0.00     0.021 A 
ATOM     14  C   UNL d   1     -41.838-122.281 -55.688  0.00  0.00     0.002 A 
ATOM     15  C   UNL d   1     -41.235-122.776 -55.399  0.00  0.00     0.000 A 
ATOM     16  C   UNL d   1     -41.124-122.875 -54.599  0.00  0.00     0.004 A 
ENDBRANCH   1  10
TORSDOF 1
ENDMDL
MODEL 3
REMARK VINA RESULT:      -5.2      1.612      4.038
REMARK  1 active torsions:
REMARK  status: ('A' for Active; 'I' for Inactive)
REMARK    1  A    between atoms: C_4  and  C_1 
ROOT
ATOM      1  C   UNL d   1     -41.656-123.146 -50.772  0.00  0.00     0.112 A 
ATOM      2  N   UNL d   1     -42.393-122.988 -50.420  0.00  0.00    -0.238 NA
ATOM      3  S   UNL d   1     -41.123-123.370 -50.172  0.00  0.00    -0.066 SA
ATOM      4  C   UNL d   1     -42.315-123.115 -49.603  0.00  0.00     0.088 A 
ATOM      5  C   UNL d   1     -41.532-123.350 -49.450  0.00  0.00     0.049 A 
ATOM      6  C   UNL d   1     -42.854-123.047 -48.982  0.00  0.00     0.020 A 
ATOM      7  C   UNL d   1     -41.293-123.516 -48.678  0.00  0.00     0.008 A 
ATOM      8  C   UNL d   1     -41.833-123.447 -48.058  0.00  0.00     0.001 A 
ATOM      9  C   UNL d   1     -42.615-123.212 -48.210  0.00  0.00     0.002 A 
ENDROOT
BRANCH   1  10
ATOM     10  C   UNL d   1     -41.479-123.091 -51.578  0.00  0.00     0.043 A 
ATOM     11  C   UNL d   1     -41.353-122.346 -51.921  0.00  0.00     0.105 A 
ATOM     12  N   UNL d   1     -41.405-121.666 -51.457  0.00  0.00    -0.148 N 
ATOM     13  C   UNL d   1     -41.175-122.292 -52.725  0.00  0.00     0.021 A 
ATOM     14  C   UNL d   1     -41.123-122.972 -53.189  0.00  0.00     0.002 A 
ATOM     15  C   UNL d   1     -41.251-123.713 -52.834  0.00  0.00     0.000 A 
ATOM     16  C   UNL d   1     -41.426-123.771 -52.041  0.00  0.00     0.004 A 
ENDBRANCH   1  10
TORSDOF 1
ENDMDL
MODEL 4
REMARK VINA RESULT:      -5.1      1.679      2.692
REMARK  1 active torsions:
REMARK  status: ('A' for Active; 'I' for Inactive)
REMARK    1  A    between atoms: C_4  and  C_1 
ROOT
ATOM      1  C   UNL d   1     -41.585-123.081 -50.274  0.00  0.00     0.112 A 
ATOM      2  N   UNL d   1     -41.501-122.367 -50.691  0.00  0.00    -0.238 NA
ATOM      3  S   UNL d   1     -41.502-123.711 -50.814  0.00  0.00    -0.066 SA
ATOM      4  C   UNL d   1     -41.366-122.554 -51.489  0.00  0.00     0.088 A 
ATOM      5  C   UNL d   1     -41.367-123.382 -51.565  0.00  0.00     0.049 A 
ATOM      6  C   UNL d   1     -41.244-122.079 -52.152  0.00  0.00     0.020 A 
ATOM      7  C   UNL d   1     -41.245-123.730 -52.303  0.00  0.00     0.008 A 
ATOM      8  C   UNL d   1     -41.123-123.254 -52.966  0.00  0.00     0.001 A 
ATOM      9  C   UNL d   1     -41.123-122.426 -52.890  0.00  0.00     0.002 A 
ENDROOT
BRANCH   1  10
ATOM     10  C   UNL d   1     -41.726-123.159 -49.463  0.00  0.00     0.043 A 
ATOM     11  C   UNL d   1     -42.477-122.988 -49.158  0.00  0.00     0.105 A 
ATOM     12  N   UNL d   1     -43.080-122.740 -49.665  0.00  0.00    -0.148 N 
ATOM     13  C   UNL d   1     -42.618-123.066 -48.348  0.00  0.00     0.021 A 
ATOM     14  C   UNL d   1     -42.015-123.314 -47.842  0.00  0.00     0.002 A 
ATOM     15  C   UNL d   1     -41.266-123.483 -48.158  0.00  0.00     0.000 A 
ATOM     16  C   UNL d   1     -41.123-123.407 -48.956  0.00  0.00     0.004 A 
ENDBRANCH   1  10
TORSDOF 1
ENDMDL
