MODEL 1
REMARK VINA RESULT:      -4.5      0.000      0.000
REMARK  4 active torsions:
REMARK  status: ('A' for Active; 'I' for Inactive)
REMARK    1  A    between atoms: C_6  and  C_1 
REMARK    2  A    between atoms: C_16  and  C_6 
REMARK    3  A    between atoms: C_9  and  O_12 
REMARK    4  A    between atoms: O_12  and  C_10 
ROOT
ATOM      1  C   UNL d   1     -41.235-122.341 -50.793  0.00  0.00     0.139 A 
ATOM      2  C   UNL d   1     -41.182-122.009 -52.085  0.00  0.00     0.064 A 
ATOM      3  C   UNL d   1     -41.177-121.703 -51.315  0.00  0.00     0.220 A 
ATOM      4  C   UNL d   1     -41.244-122.829 -52.039  0.00  0.00     0.105 A 
ATOM      5  O   UNL d   1     -41.277-123.040 -51.240  0.00  0.00    -0.304 OA
ATOM      6  C   UNL d   1     -41.261-123.279 -52.729  0.00  0.00     0.050 A 
ATOM      7  C   UNL d   1     -41.139-121.640 -52.822  0.00  0.00     0.007 A 
ATOM      8  C   UNL d   1     -41.218-122.907 -53.459  0.00  0.00     0.105 A 
ATOM      9  O   UNL d   1     -41.123-120.906 -51.111  0.00  0.00    -0.284 OA
ATOM     10  C   UNL d   1     -41.156-122.092 -53.517  0.00  0.00     0.025 A 
ENDROOT
BRANCH   1  11
ATOM     11  C   UNL d   1     -41.250-122.294 -49.971  0.00  0.00     0.028 C 
BRANCH  11  12
ATOM     12  C   UNL d   1     -41.737-122.799 -49.526  0.00  0.00     0.005 A 
ATOM     13  C   UNL d   1     -41.390-123.312 -48.988  0.00  0.00     0.021 A 
ATOM     14  C   UNL d   1     -41.864-123.817 -48.542  0.00  0.00     0.099 A 
ATOM     15  N   UNL d   1     -42.686-123.805 -48.638  0.00  0.00    -0.242 NA
ATOM     16  C   UNL d   1     -43.029-123.287 -49.181  0.00  0.00     0.099 A 
ATOM     17  C   UNL d   1     -42.554-122.784 -49.625  0.00  0.00     0.021 A 
ENDBRANCH  11  12
ENDBRANCH   1  11
BRANCH   8  18
ATOM     18  O   UNL d   1     -41.236-123.361 -54.149  0.00  0.00    -0.273 OA
BRANCH  18  19
ATOM     19  C   UNL d   1     -41.771-123.176 -54.758  0.00  0.00     0.300 C 
ATOM     20  O   UNL d   1     -42.550-123.434 -54.707  0.00  0.00    -0.259 OA
ATOM     21  C   UNL d   1     -41.516-122.736 -55.409  0.00  0.00     0.074 C 
ENDBRANCH  18  19
ENDBRANCH   8  18
TORSDOF 4
ENDMDL
MODEL 2
REMARK VINA RESULT:      -3.6      1.944      4.664
REMARK  4 active torsions:
REMARK  status: ('A' for Active; 'I' for Inactive)
REMARK    1  A    between atoms: C_6  and  C_1 
REMARK    2  A    between atoms: C_16  and  C_6 
REMARK    3  A    between atoms: C_9  and  O_12 
REMARK    4  A    between atoms: O_12  and  C_10 
ROOT
ATOM      1  C   UNL d   1     -41.677-122.239 -50.969  0.00  0.00     0.139 A 
ATOM      2  C   UNL d   1     -42.339-122.568 -49.857  0.00  0.00     0.064 A 
ATOM      3  C   UNL d   1     -42.412-122.194 -50.592  0.00  0.00     0.220 A 
ATOM      4  C   UNL d   1     -41.567-122.842 -49.779  0.00  0.00     0.105 A 
ATOM      5  O   UNL d   1     -41.152-122.641 -50.466  0.00  0.00    -0.304 OA
ATOM      6  C   UNL d   1     -41.339-123.241 -49.094  0.00  0.00     0.050 A 
ATOM      7  C   UNL d   1     -42.884-122.692 -49.249  0.00  0.00     0.007 A 
ATOM      8  C   UNL d   1     -41.885-123.361 -48.494  0.00  0.00     0.105 A 
ATOM      9  O   UNL d   1     -43.094-121.841 -50.892  0.00  0.00    -0.284 OA
ATOM     10  C   UNL d   1     -42.656-123.092 -48.560  0.00  0.00     0.025 A 
ENDROOT
BRANCH   1  11
ATOM     11  C   UNL d   1     -41.496-121.939 -51.713  0.00  0.00     0.028 C 
BRANCH  11  12
ATOM     12  C   UNL d   1     -41.450-122.441 -52.374  0.00  0.00     0.005 A 
ATOM     13  C   UNL d   1     -41.694-122.159 -53.104  0.00  0.00     0.021 A 
ATOM     14  C   UNL d   1     -41.654-122.649 -53.766  0.00  0.00     0.099 A 
ATOM     15  N   UNL d   1     -41.367-123.421 -53.690  0.00  0.00    -0.242 NA
ATOM     16  C   UNL d   1     -41.123-123.700 -52.952  0.00  0.00     0.099 A 
ATOM     17  C   UNL d   1     -41.165-123.209 -52.294  0.00  0.00     0.021 A 
ENDBRANCH  11  12
ENDBRANCH   1  11
BRANCH   8  18
ATOM     18  O   UNL d   1     -41.653-123.760 -47.808  0.00  0.00    -0.273 OA
BRANCH  18  19
ATOM     19  C   UNL d   1     -41.809-123.433 -47.060  0.00  0.00     0.300 C 
ATOM     20  O   UNL d   1     -42.544-123.555 -46.708  0.00  0.00    -0.259 OA
ATOM     21  C   UNL d   1     -41.228-122.989 -46.676  0.00  0.00     0.074 C 
ENDBRANCH  18  19
ENDBRANCH   8  18
TORSDOF 4
ENDMDL
MODEL 3
REMARK VINA RESULT:      -3.1      1.164      1.736
REMARK  4 active torsions:
REMARK  status: ('A' for Active; 'I' for Inactive)
REMARK    1  A    between atoms: C_6  and  C_1 
REMARK    2  A    between atoms: C_16  and  C_6 
REMARK    3  A    between atoms: C_9  and  O_12 
REMARK    4  A    between atoms: O_12  and  C_10 
ROOT
ATOM      1  C   UNL d   1     -41.353-122.364 -51.914  0.00  0.00     0.139 A 
ATOM      2  C   UNL d   1     -41.294-123.050 -53.058  0.00  0.00     0.064 A 
ATOM      3  C   UNL d   1     -41.250-123.119 -52.234  0.00  0.00     0.220 A 
ATOM      4  C   UNL d   1     -41.423-122.259 -53.246  0.00  0.00     0.105 A 
ATOM      5  O   UNL d   1     -41.461-121.829 -52.540  0.00  0.00    -0.304 OA
ATOM      6  C   UNL d   1     -41.491-122.030 -54.035  0.00  0.00     0.050 A 
ATOM      7  C   UNL d   1     -41.232-123.611 -53.660  0.00  0.00     0.007 A 
ATOM      8  C   UNL d   1     -41.428-122.592 -54.628  0.00  0.00     0.105 A 
ATOM      9  O   UNL d   1     -41.125-123.817 -51.812  0.00  0.00    -0.284 OA
ATOM     10  C   UNL d   1     -41.300-123.382 -54.453  0.00  0.00     0.025 A 
ENDROOT
BRANCH   1  11
ATOM     11  C   UNL d   1     -41.349-122.173 -51.113  0.00  0.00     0.028 C 
BRANCH  11  12
ATOM     12  C   UNL d   1     -42.037-122.258 -50.654  0.00  0.00     0.005 A 
ATOM     13  C   UNL d   1     -42.017-122.750 -49.998  0.00  0.00     0.021 A 
ATOM     14  C   UNL d   1     -42.694-122.842 -49.536  0.00  0.00     0.099 A 
ATOM     15  N   UNL d   1     -43.388-122.438 -49.736  0.00  0.00    -0.242 NA
ATOM     16  C   UNL d   1     -43.401-121.945 -50.398  0.00  0.00     0.099 A 
ATOM     17  C   UNL d   1     -42.725-121.855 -50.856  0.00  0.00     0.021 A 
ENDBRANCH  11  12
ENDBRANCH   1  11
BRANCH   8  18
ATOM     18  O   UNL d   1     -41.496-122.359 -55.419  0.00  0.00    -0.273 OA
BRANCH  18  19
ATOM     19  C   UNL d   1     -42.144-121.900 -55.666  0.00  0.00     0.300 C 
ATOM     20  O   UNL d   1     -42.048-121.091 -55.783  0.00  0.00    -0.259 OA
ATOM     21  C   UNL d   1     -42.877-122.259 -55.791  0.00  0.00     0.074 C 
ENDBRANCH  18  19
ENDBRANCH   8  18
TORSDOF 4
ENDMDL
