MODEL 1
REMARK VINA RESULT:      87.1      0.000      0.000
REMARK  3 active torsions:
REMARK  status: ('A' for Active; 'I' for Inactive)
REMARK    1  A    between atoms: C_2  and  C_4 
REMARK    2  A    between atoms: N_3  and  C_2 
REMARK    3  A    between atoms: C_5  and  N_3 
ROOT
ATOM      1  C   UNL d   1      61.257  46.872  50.790  0.00  0.00     0.153 C 
ATOM      2  S   UNL d   1      61.229  46.360  51.434  0.00  0.00    -0.056 SA
ENDROOT
BRANCH   1   3
ATOM      3  C   UNL d   1      60.836  47.581  50.810  0.00  0.00     0.109 A 
ATOM      4  N   UNL d   1      60.001  47.569  50.854  0.00  0.00    -0.243 NA
ATOM      5  C   UNL d   1      59.580  48.282  50.874  0.00  0.00     0.081 A 
ATOM      6  C   UNL d   1      59.989  49.003  50.851  0.00  0.00     0.018 A 
ATOM      7  C   UNL d   1      58.758  48.274  50.917  0.00  0.00     0.019 A 
ATOM      8  C   UNL d   1      60.815  49.015  50.808  0.00  0.00     0.003 A 
ATOM      9  C   UNL d   1      59.568  49.708  50.871  0.00  0.00     0.002 A 
ATOM     10  C   UNL d   1      61.236  48.306  50.788  0.00  0.00     0.021 A 
ATOM     11  C   UNL d   1      58.750  49.704  50.914  0.00  0.00     0.000 A 
ATOM     12  C   UNL d   1      58.346  48.988  50.937  0.00  0.00     0.002 A 
ENDBRANCH   1   3
BRANCH   1  13
ATOM     13  N   UNL d   1      61.703  46.678  50.125  0.00  0.00    -0.233 NA
BRANCH  13  14
ATOM     14  C   UNL d   1      61.651  45.918  49.802  0.00  0.00     0.082 A 
ATOM     15  C   UNL d   1      62.229  45.666  49.260  0.00  0.00     0.018 A 
ATOM     16  C   UNL d   1      62.170  44.904  48.941  0.00  0.00     0.002 A 
ATOM     17  C   UNL d   1      62.846  46.164  49.046  0.00  0.00     0.002 C 
ATOM     18  C   UNL d   1      61.552  44.407  49.156  0.00  0.00     0.000 A 
ATOM     19  C   UNL d   1      60.981  44.664  49.695  0.00  0.00     0.002 A 
ATOM     20  C   UNL d   1      61.500  43.646  48.832  0.00  0.00     0.000 C 
ATOM     21  C   UNL d   1      61.031  45.421  50.019  0.00  0.00     0.019 A 
ENDBRANCH  13  14
ENDBRANCH   1  13
TORSDOF 3
ENDMDL
MODEL 2
REMARK VINA RESULT:      89.6      1.233      1.615
REMARK  3 active torsions:
REMARK  status: ('A' for Active; 'I' for Inactive)
REMARK    1  A    between atoms: C_2  and  C_4 
REMARK    2  A    between atoms: N_3  and  C_2 
REMARK    3  A    between atoms: C_5  and  N_3 
ROOT
ATOM      1  C   UNL d   1      61.522  46.985  49.815  0.00  0.00     0.153 C 
ATOM      2  S   UNL d   1      62.186  47.002  49.328  0.00  0.00    -0.056 SA
ENDROOT
BRANCH   1   3
ATOM      3  C   UNL d   1      61.293  47.666  50.221  0.00  0.00     0.109 A 
ATOM      4  N   UNL d   1      61.236  47.654  51.055  0.00  0.00    -0.243 NA
ATOM      5  C   UNL d   1      61.006  48.339  51.460  0.00  0.00     0.081 A 
ATOM      6  C   UNL d   1      60.834  49.031  51.036  0.00  0.00     0.018 A 
ATOM      7  C   UNL d   1      60.949  48.332  52.281  0.00  0.00     0.019 A 
ATOM      8  C   UNL d   1      60.891  49.042  50.211  0.00  0.00     0.003 A 
ATOM      9  C   UNL d   1      60.607  49.708  51.443  0.00  0.00     0.002 A 
ATOM     10  C   UNL d   1      61.120  48.361  49.806  0.00  0.00     0.021 A 
ATOM     11  C   UNL d   1      60.548  49.705  52.260  0.00  0.00     0.000 A 
ATOM     12  C   UNL d   1      60.719  49.018  52.678  0.00  0.00     0.002 A 
ENDBRANCH   1   3
BRANCH   1  13
ATOM     13  N   UNL d   1      61.086  46.291  49.899  0.00  0.00    -0.233 NA
BRANCH  13  14
ATOM     14  C   UNL d   1      61.417  45.567  49.671  0.00  0.00     0.082 A 
ATOM     15  C   UNL d   1      61.190  44.873  50.068  0.00  0.00     0.018 A 
ATOM     16  C   UNL d   1      61.526  44.153  49.834  0.00  0.00     0.002 A 
ATOM     17  C   UNL d   1      60.643  44.902  50.681  0.00  0.00     0.002 C 
ATOM     18  C   UNL d   1      62.072  44.125  49.222  0.00  0.00     0.000 A 
ATOM     19  C   UNL d   1      62.294  44.819  48.831  0.00  0.00     0.002 A 
ATOM     20  C   UNL d   1      62.404  43.400  48.994  0.00  0.00     0.000 C 
ATOM     21  C   UNL d   1      61.965  45.542  49.056  0.00  0.00     0.019 A 
ENDBRANCH  13  14
ENDBRANCH   1  13
TORSDOF 3
ENDMDL
