MODEL 1
REMARK VINA RESULT:      31.4      0.000      0.000
REMARK  4 active torsions:
REMARK  status: ('A' for Active; 'I' for Inactive)
REMARK    1  A    between atoms: C_15  and  C_2 
REMARK    2  A    between atoms: C_3  and  N_6 
REMARK    3  A    between atoms: C_5  and  C_16 
REMARK       I    between atoms: N_6  and  C_5 
REMARK    4  A    between atoms: C_16  and  C_15 
ROOT
ATOM      1  C   UNL d   1     -55.419 -99.376 -45.080  0.00  0.00     0.279 C 
ATOM      2  N   UNL d   1     -54.858 -99.974 -45.135  0.00  0.00    -0.208 NA
ATOM      3  O   UNL d   1     -55.425 -98.764 -45.625  0.00  0.00    -0.265 OA
ENDROOT
BRANCH   1   4
ATOM      4  C   UNL d   1     -55.981 -99.385 -44.476  0.00  0.00     0.065 C 
BRANCH   4   5
ATOM      5  C   UNL d   1     -56.499 -98.756 -44.385  0.00  0.00     0.030 C 
BRANCH   5   6
ATOM      6  C   UNL d   1     -57.277 -98.889 -44.147  0.00  0.00     0.100 A 
ATOM      7  O   UNL d   1     -57.946 -98.925 -44.630  0.00  0.00    -0.307 OA
ATOM      8  C   UNL d   1     -58.601 -99.068 -44.163  0.00  0.00     0.100 A 
ATOM      9  C   UNL d   1     -58.343 -99.123 -43.379  0.00  0.00     0.027 A 
ATOM     10  C   UNL d   1     -59.373 -99.144 -44.422  0.00  0.00     0.027 C 
ATOM     11  C   UNL d   1     -57.526 -99.013 -43.369  0.00  0.00     0.027 A 
ENDBRANCH   5   6
ENDBRANCH   4   5
ENDBRANCH   1   4
BRANCH   2  12
ATOM     12  C   UNL d   1     -54.857-100.590 -44.580  0.00  0.00     0.085 A 
ATOM     13  C   UNL d   1     -54.787-100.418 -43.776  0.00  0.00     0.019 A 
ATOM     14  C   UNL d   1     -54.786-101.024 -43.227  0.00  0.00     0.002 A 
ATOM     15  C   UNL d   1     -54.717-100.853 -42.427  0.00  0.00     0.000 C 
ATOM     16  C   UNL d   1     -54.855-101.816 -43.479  0.00  0.00     0.000 A 
ATOM     17  C   UNL d   1     -54.924-101.977 -44.289  0.00  0.00     0.002 A 
ATOM     18  C   UNL d   1     -54.925-101.369 -44.834  0.00  0.00     0.019 A 
ATOM     19  C   UNL d   1     -54.993-102.763 -44.539  0.00  0.00     0.000 C 
ENDBRANCH   2  12
TORSDOF 4
ENDMDL
MODEL 2
REMARK VINA RESULT:      31.5      0.967      3.742
REMARK  4 active torsions:
REMARK  status: ('A' for Active; 'I' for Inactive)
REMARK    1  A    between atoms: C_15  and  C_2 
REMARK    2  A    between atoms: C_3  and  N_6 
REMARK    3  A    between atoms: C_5  and  C_16 
REMARK       I    between atoms: N_6  and  C_5 
REMARK    4  A    between atoms: C_16  and  C_15 
ROOT
ATOM      1  C   UNL d   1     -55.977 -99.162 -45.026  0.00  0.00     0.279 C 
ATOM      2  N   UNL d   1     -56.635 -98.755 -45.303  0.00  0.00    -0.208 NA
ATOM      3  O   UNL d   1     -55.268 -99.129 -45.437  0.00  0.00    -0.265 OA
ENDROOT
BRANCH   1   4
ATOM      4  C   UNL d   1     -56.022 -99.606 -44.333  0.00  0.00     0.065 C 
BRANCH   4   5
ATOM      5  C   UNL d   1     -55.338 -99.863 -43.962  0.00  0.00     0.030 C 
BRANCH   5   6
ATOM      6  C   UNL d   1     -55.145-100.665 -43.954  0.00  0.00     0.100 A 
ATOM      7  O   UNL d   1     -55.052-101.160 -44.609  0.00  0.00    -0.307 OA
ATOM      8  C   UNL d   1     -54.863-101.910 -44.348  0.00  0.00     0.100 A 
ATOM      9  C   UNL d   1     -54.836-101.888 -43.521  0.00  0.00     0.027 A 
ATOM     10  C   UNL d   1     -54.724-102.565 -44.816  0.00  0.00     0.027 C 
ATOM     11  C   UNL d   1     -55.010-101.120 -43.279  0.00  0.00     0.027 A 
ENDBRANCH   5   6
ENDBRANCH   4   5
ENDBRANCH   1   4
BRANCH   2  12
ATOM     12  C   UNL d   1     -57.349 -98.792 -44.884  0.00  0.00     0.085 A 
ATOM     13  C   UNL d   1     -57.342 -98.757 -44.059  0.00  0.00     0.019 A 
ATOM     14  C   UNL d   1     -58.045 -98.792 -43.643  0.00  0.00     0.002 A 
ATOM     15  C   UNL d   1     -58.038 -98.757 -42.823  0.00  0.00     0.000 C 
ATOM     16  C   UNL d   1     -58.769 -98.864 -44.051  0.00  0.00     0.000 A 
ATOM     17  C   UNL d   1     -58.764 -98.898 -44.879  0.00  0.00     0.002 A 
ATOM     18  C   UNL d   1     -58.060 -98.862 -45.291  0.00  0.00     0.019 A 
ATOM     19  C   UNL d   1     -59.482 -98.969 -45.283  0.00  0.00     0.000 C 
ENDBRANCH   2  12
TORSDOF 4
ENDMDL
