MODEL 1
REMARK VINA RESULT:     118.1      0.000      0.000
REMARK  5 active torsions:
REMARK  status: ('A' for Active; 'I' for Inactive)
REMARK    1  A    between atoms: S_14  and  C_7 
REMARK       I    between atoms: N_10  and  C_13 
REMARK    2  A    between atoms: C_26  and  C_11 
REMARK    3  A    between atoms: C_22  and  N_12 
REMARK    4  A    between atoms: C_13  and  C_17 
REMARK    5  A    between atoms: C_17  and  S_14 
ROOT
ATOM      1  N   UNL d   1     -55.906 -99.515 -45.568  0.00  0.00    -0.224 N 
ATOM      2  N   UNL d   1     -57.209 -99.056 -45.166  0.00  0.00    -0.241 N 
ATOM      3  C   UNL d   1     -56.662 -99.217 -45.762  0.00  0.00     0.343 A 
ATOM      4  C   UNL d   1     -57.001 -99.194 -44.376  0.00  0.00     0.160 A 
ATOM      5  C   UNL d   1     -55.705 -99.650 -44.779  0.00  0.00     0.273 A 
ATOM      6  C   UNL d   1     -56.253 -99.489 -44.183  0.00  0.00     0.115 A 
ATOM      7  C   UNL d   1     -56.052 -99.625 -43.394  0.00  0.00     0.120 A 
ATOM      8  N   UNL d   1     -57.550 -99.034 -43.772  0.00  0.00    -0.209 NA
ATOM      9  N   UNL d   1     -56.596 -99.466 -42.797  0.00  0.00    -0.220 NA
ATOM     10  C   UNL d   1     -57.350 -99.169 -42.983  0.00  0.00     0.165 A 
ATOM     11  O   UNL d   1     -56.861 -99.082 -46.555  0.00  0.00    -0.245 OA
ATOM     12  O   UNL d   1     -54.957 -99.945 -44.590  0.00  0.00    -0.266 OA
ATOM     13  C   UNL d   1     -55.367 -99.672 -46.166  0.00  0.00     0.107 C 
ATOM     14  C   UNL d   1     -57.957 -98.761 -45.359  0.00  0.00     0.105 C 
ENDROOT
BRANCH   7  15
ATOM     15  S   UNL d   1     -55.304 -99.920 -43.205  0.00  0.00    -0.062 SA
BRANCH  15  16
ATOM     16  C   UNL d   1     -55.129-100.137 -42.426  0.00  0.00     0.098 C 
BRANCH  16  17
ATOM     17  C   UNL d   1     -55.040-100.932 -42.227  0.00  0.00     0.272 C 
ATOM     18  N   UNL d   1     -55.036-101.173 -41.443  0.00  0.00    -0.269 N 
ATOM     19  C   UNL d   1     -55.124-100.605 -40.842  0.00  0.00     0.102 A 
ATOM     20  C   UNL d   1     -54.948-101.962 -41.249  0.00  0.00     0.102 A 
ATOM     21  C   UNL d   1     -55.119-100.852 -40.058  0.00  0.00     0.100 A 
ATOM     22  N   UNL d   1     -55.031-101.645 -39.861  0.00  0.00    -0.301 N 
ATOM     23  C   UNL d   1     -54.945-102.204 -40.464  0.00  0.00     0.100 A 
ATOM     24  O   UNL d   1     -54.953-101.494 -42.827  0.00  0.00    -0.266 OA
BRANCH  22  25
ATOM     25  C   UNL d   1     -55.028-101.886 -39.077  0.00  0.00     0.064 A 
ATOM     26  C   UNL d   1     -54.727-102.619 -38.863  0.00  0.00     0.018 A 
ATOM     27  C   UNL d   1     -54.722-102.866 -38.073  0.00  0.00     0.002 A 
ATOM     28  C   UNL d   1     -55.024-102.368 -37.487  0.00  0.00     0.000 A 
ATOM     29  C   UNL d   1     -55.330-101.620 -37.704  0.00  0.00     0.002 A 
ATOM     30  C   UNL d   1     -55.328-101.392 -38.486  0.00  0.00     0.018 A 
ENDBRANCH  22  25
ENDBRANCH  16  17
ENDBRANCH  15  16
ENDBRANCH   7  15
BRANCH  10  31
ATOM     31  C   UNL d   1     -57.895 -99.010 -42.381  0.00  0.00     0.039 C 
ATOM     32  C   UNL d   1     -58.665 -98.778 -42.567  0.00  0.00     0.003 C 
ENDBRANCH  10  31
TORSDOF 5
ENDMDL
