MODEL 1
REMARK VINA RESULT:     108.0      0.000      0.000
REMARK  4 active torsions:
REMARK  status: ('A' for Active; 'I' for Inactive)
REMARK    1  A    between atoms: O_7  and  C_2 
REMARK    2  A    between atoms: C_13  and  C_3 
REMARK    3  A    between atoms: C_11  and  O_7 
REMARK    4  A    between atoms: O_25  and  C_20 
ROOT
ATOM      1  C   UNL d   1     -53.050  24.125  34.839  0.00  0.00     0.066 A 
ATOM      2  C   UNL d   1     -52.539  24.448  34.284  0.00  0.00     0.186 A 
ATOM      3  C   UNL d   1     -53.203  24.297  35.652  0.00  0.00     0.012 A 
ATOM      4  C   UNL d   1     -53.767  23.787  35.898  0.00  0.00     0.037 A 
ATOM      5  C   UNL d   1     -53.548  23.494  34.618  0.00  0.00     0.116 A 
ATOM      6  S   UNL d   1     -54.003  23.277  35.286  0.00  0.00    -0.067 SA
ATOM      7  N   UNL d   1     -52.529  24.143  33.518  0.00  0.00    -0.200 NA
ATOM      8  N   UNL d   1     -53.537  23.188  33.851  0.00  0.00    -0.217 NA
ATOM      9  C   UNL d   1     -53.028  23.513  33.306  0.00  0.00     0.201 A 
ENDROOT
BRANCH   2  10
ATOM     10  O   UNL d   1     -52.034  25.084  34.496  0.00  0.00    -0.288 OA
BRANCH  10  11
ATOM     11  C   UNL d   1     -51.268  25.170  34.139  0.00  0.00     0.119 A 
ATOM     12  C   UNL d   1     -50.960  25.896  33.895  0.00  0.00     0.104 A 
ATOM     13  N   UNL d   1     -51.425  26.593  34.001  0.00  0.00    -0.244 NA
ATOM     14  C   UNL d   1     -50.216  25.945  33.553  0.00  0.00     0.020 A 
ATOM     15  C   UNL d   1     -51.118  27.318  33.757  0.00  0.00     0.082 A 
ATOM     16  C   UNL d   1     -51.565  28.047  33.851  0.00  0.00     0.021 C 
ATOM     17  C   UNL d   1     -50.374  27.368  33.416  0.00  0.00     0.019 A 
ATOM     18  C   UNL d   1     -49.912  26.694  33.307  0.00  0.00     0.003 A 
ATOM     19  C   UNL d   1     -49.754  25.270  33.445  0.00  0.00     0.002 A 
ATOM     20  C   UNL d   1     -50.061  24.545  33.689  0.00  0.00     0.002 A 
ATOM     21  C   UNL d   1     -50.805  24.496  34.030  0.00  0.00     0.026 A 
ENDBRANCH  10  11
ENDBRANCH   2  10
BRANCH   3  22
ATOM     22  C   UNL d   1     -52.843  24.877  36.112  0.00  0.00     0.001 A 
ATOM     23  C   UNL d   1     -53.035  25.682  36.037  0.00  0.00     0.002 A 
ATOM     24  C   UNL d   1     -52.659  26.241  36.510  0.00  0.00     0.024 A 
ATOM     25  C   UNL d   1     -52.083  25.989  37.069  0.00  0.00     0.094 A 
ATOM     26  C   UNL d   1     -51.897  25.177  37.138  0.00  0.00     0.024 A 
ATOM     27  C   UNL d   1     -52.274  24.617  36.663  0.00  0.00     0.002 A 
BRANCH  25  28
ATOM     28  O   UNL d   1     -51.664  26.519  37.583  0.00  0.00    -0.328 OA
ATOM     29  C   UNL d   1     -51.725  26.417  38.400  0.00  0.00     0.181 C 
ENDBRANCH  25  28
ENDBRANCH   3  22
TORSDOF 4
ENDMDL
MODEL 2
REMARK VINA RESULT:     108.3      1.829      3.403
REMARK  4 active torsions:
REMARK  status: ('A' for Active; 'I' for Inactive)
REMARK    1  A    between atoms: O_7  and  C_2 
REMARK    2  A    between atoms: C_13  and  C_3 
REMARK    3  A    between atoms: C_11  and  O_7 
REMARK    4  A    between atoms: O_25  and  C_20 
ROOT
ATOM      1  C   UNL d   1     -50.352  26.863  34.933  0.00  0.00     0.066 A 
ATOM      2  C   UNL d   1     -50.855  26.437  34.445  0.00  0.00     0.186 A 
ATOM      3  C   UNL d   1     -50.327  26.988  35.769  0.00  0.00     0.012 A 
ATOM      4  C   UNL d   1     -49.700  27.460  35.917  0.00  0.00     0.037 A 
ATOM      5  C   UNL d   1     -49.714  27.282  34.599  0.00  0.00     0.116 A 
ATOM      6  S   UNL d   1     -49.298  27.661  35.218  0.00  0.00    -0.067 SA
ATOM      7  N   UNL d   1     -50.719  26.431  33.632  0.00  0.00    -0.200 NA
ATOM      8  N   UNL d   1     -49.578  27.276  33.784  0.00  0.00    -0.217 NA
ATOM      9  C   UNL d   1     -50.081  26.851  33.306  0.00  0.00     0.201 A 
ENDROOT
BRANCH   2  10
ATOM     10  O   UNL d   1     -51.500  26.012  34.772  0.00  0.00    -0.288 OA
BRANCH  10  11
ATOM     11  C   UNL d   1     -52.011  25.546  34.278  0.00  0.00     0.119 A 
ATOM     12  C   UNL d   1     -51.827  24.780  34.031  0.00  0.00     0.104 A 
ATOM     13  N   UNL d   1     -51.096  24.436  34.276  0.00  0.00    -0.244 NA
ATOM     14  C   UNL d   1     -52.342  24.357  33.554  0.00  0.00     0.020 A 
ATOM     15  C   UNL d   1     -50.912  23.671  34.028  0.00  0.00     0.082 A 
ATOM     16  C   UNL d   1     -50.176  23.291  34.260  0.00  0.00     0.021 C 
ATOM     17  C   UNL d   1     -51.428  23.247  33.551  0.00  0.00     0.019 A 
ATOM     18  C   UNL d   1     -52.144  23.574  33.306  0.00  0.00     0.003 A 
ATOM     19  C   UNL d   1     -53.059  24.684  33.308  0.00  0.00     0.002 A 
ATOM     20  C   UNL d   1     -53.242  25.449  33.556  0.00  0.00     0.002 A 
ATOM     21  C   UNL d   1     -52.727  25.872  34.033  0.00  0.00     0.026 A 
ENDBRANCH  10  11
ENDBRANCH   2  10
BRANCH   3  22
ATOM     22  C   UNL d   1     -50.845  26.684  36.331  0.00  0.00     0.001 A 
ATOM     23  C   UNL d   1     -51.669  26.688  36.220  0.00  0.00     0.002 A 
ATOM     24  C   UNL d   1     -52.165  26.377  36.799  0.00  0.00     0.024 A 
ATOM     25  C   UNL d   1     -51.830  26.059  37.502  0.00  0.00     0.094 A 
ATOM     26  C   UNL d   1     -51.000  26.059  37.605  0.00  0.00     0.024 A 
ATOM     27  C   UNL d   1     -50.504  26.371  37.024  0.00  0.00     0.002 A 
BRANCH  25  28
ATOM     28  O   UNL d   1     -52.290  25.725  38.133  0.00  0.00    -0.328 OA
ATOM     29  C   UNL d   1     -53.112  25.712  38.066  0.00  0.00     0.181 C 
ENDBRANCH  25  28
ENDBRANCH   3  22
TORSDOF 4
ENDMDL
