MODEL 1
REMARK VINA RESULT:       2.8      0.000      0.000
REMARK  6 active torsions:
REMARK  status: ('A' for Active; 'I' for Inactive)
REMARK    1  A    between atoms: N_7  and  C_1 
REMARK    2  A    between atoms: C_6  and  C_4 
REMARK    3  A    between atoms: C_19  and  N_9 
REMARK    4  A    between atoms: C_21  and  C_13 
REMARK    5  A    between atoms: O_20  and  C_21 
REMARK    6  A    between atoms: C_22  and  O_20 
ROOT
ATOM      1  C   UNL d   1      59.975  -4.690  28.689  0.00  0.00     0.198 A 
ATOM      2  C   UNL d   1      59.264  -5.163  28.586  0.00  0.00     0.191 A 
ATOM      3  O   UNL d   1      60.610  -5.226  28.725  0.00  0.00    -0.268 OA
ATOM      4  C   UNL d   1      60.310  -5.970  28.650  0.00  0.00     0.208 A 
ATOM      5  N   UNL d   1      59.518  -5.941  28.567  0.00  0.00    -0.206 NA
ATOM      6  C   UNL d   1      58.500  -4.858  28.523  0.00  0.00     0.124 C 
ATOM      7  N   UNL d   1      57.717  -4.580  28.456  0.00  0.00    -0.190 NA
ENDROOT
BRANCH   1   8
ATOM      8  N   UNL d   1      59.921  -3.879  28.731  0.00  0.00    -0.280 N 
ATOM      9  C   UNL d   1      59.223  -3.485  28.555  0.00  0.00     0.101 A 
ATOM     10  C   UNL d   1      59.168  -2.675  28.596  0.00  0.00     0.100 A 
ATOM     11  N   UNL d   1      59.835  -2.241  28.822  0.00  0.00    -0.301 N 
ATOM     12  C   UNL d   1      60.553  -2.624  29.005  0.00  0.00     0.100 A 
ATOM     13  C   UNL d   1      60.588  -3.445  28.957  0.00  0.00     0.101 A 
BRANCH  11  14
ATOM     14  C   UNL d   1      59.800  -1.419  28.870  0.00  0.00     0.064 A 
ATOM     15  C   UNL d   1      60.374  -0.933  28.499  0.00  0.00     0.018 A 
ATOM     16  C   UNL d   1      60.338  -0.112  28.547  0.00  0.00     0.002 A 
ATOM     17  C   UNL d   1      59.720   0.239  28.974  0.00  0.00     0.000 A 
ATOM     18  C   UNL d   1      59.149  -0.225  29.343  0.00  0.00     0.002 A 
ATOM     19  C   UNL d   1      59.182  -1.068  29.296  0.00  0.00     0.018 A 
ENDBRANCH  11  14
ENDBRANCH   1   8
BRANCH   4  20
ATOM     20  C   UNL d   1      60.287  -6.785  28.600  0.00  0.00     0.141 A 
ATOM     21  O   UNL d   1      59.879  -7.508  28.455  0.00  0.00    -0.301 OA
ATOM     22  C   UNL d   1      60.412  -8.132  28.559  0.00  0.00     0.125 A 
ATOM     23  C   UNL d   1      61.132  -7.838  28.761  0.00  0.00     0.029 A 
ATOM     24  C   UNL d   1      61.036  -6.997  28.782  0.00  0.00     0.030 A 
BRANCH  22  25
ATOM     25  C   UNL d   1      60.268  -8.941  28.478  0.00  0.00     0.147 C 
BRANCH  25  26
ATOM     26  O   UNL d   1      59.502  -9.254  28.493  0.00  0.00    -0.303 OA
BRANCH  26  27
ATOM     27  C   UNL d   1      59.116  -9.434  29.188  0.00  0.00     0.100 A 
ATOM     28  C   UNL d   1      59.504  -9.533  29.903  0.00  0.00     0.025 A 
ATOM     29  C   UNL d   1      59.099  -9.714  30.592  0.00  0.00     0.002 A 
ATOM     30  C   UNL d   1      59.477  -9.818  31.326  0.00  0.00     0.000 C 
ATOM     31  C   UNL d   1      58.285  -9.798  30.564  0.00  0.00     0.000 A 
ATOM     32  C   UNL d   1      57.869  -9.698  29.831  0.00  0.00     0.002 A 
ATOM     33  C   UNL d   1      58.282  -9.518  29.152  0.00  0.00     0.025 A 
ENDBRANCH  26  27
ENDBRANCH  25  26
ENDBRANCH  22  25
ENDBRANCH   4  20
TORSDOF 6
ENDMDL
