MODEL 1
REMARK VINA RESULT:      -3.0      0.000      0.000
REMARK  6 active torsions:
REMARK  status: ('A' for Active; 'I' for Inactive)
REMARK    1  A    between atoms: N_2  and  S_1 
REMARK    2  A    between atoms: C_5  and  S_1 
REMARK    3  A    between atoms: S_8  and  C_3 
REMARK    4  A    between atoms: C_13  and  S_8 
REMARK    5  A    between atoms: C_17  and  C_13 
REMARK    6  A    between atoms: O_21  and  C_15 
ROOT
ATOM      1  N   UNL d   1      32.465  17.471 -24.005  0.00  0.00    -0.208 N 
ATOM      2  C   UNL d   1      32.858  17.787 -23.344  0.00  0.00     0.189 A 
ATOM      3  N   UNL d   1      33.241  17.168 -22.951  0.00  0.00    -0.219 NA
ATOM      4  C   UNL d   1      32.607  16.652 -24.018  0.00  0.00     0.114 A 
ATOM      5  C   UNL d   1      33.083  16.470 -23.370  0.00  0.00     0.121 A 
ENDROOT
BRANCH   1   6
ATOM      6  S   UNL d   1      32.014  17.901 -24.550  0.00  0.00     0.273 S 
ATOM      7  O   UNL d   1      31.772  18.473 -25.097  0.00  0.00    -0.200 OA
ATOM      8  O   UNL d   1      32.646  18.415 -24.616  0.00  0.00    -0.200 OA
BRANCH   6   9
ATOM      9  C   UNL d   1      31.365  17.392 -24.498  0.00  0.00     0.104 A 
ATOM     10  C   UNL d   1      31.349  16.712 -24.960  0.00  0.00     0.015 A 
ATOM     11  C   UNL d   1      30.695  16.208 -24.902  0.00  0.00     0.025 A 
ATOM     12  C   UNL d   1      30.073  16.392 -24.386  0.00  0.00     0.094 A 
ATOM     13  C   UNL d   1      30.097  17.071 -23.929  0.00  0.00     0.025 A 
ATOM     14  C   UNL d   1      30.750  17.576 -23.987  0.00  0.00     0.015 A 
BRANCH  12  15
ATOM     15  O   UNL d   1      29.426  15.882 -24.336  0.00  0.00    -0.328 OA
ATOM     16  C   UNL d   1      29.021  15.810 -23.617  0.00  0.00     0.181 C 
ENDBRANCH  12  15
ENDBRANCH   6   9
ENDBRANCH   1   6
BRANCH   2  17
ATOM     17  S   UNL d   1      32.865  18.588 -23.118  0.00  0.00    -0.049 SA
BRANCH  17  18
ATOM     18  C   UNL d   1      33.230  18.811 -22.413  0.00  0.00     0.038 C 
BRANCH  18  19
ATOM     19  C   UNL d   1      33.201  19.596 -22.168  0.00  0.00     0.009 A 
ATOM     20  C   UNL d   1      33.132  19.778 -21.351  0.00  0.00     0.030 A 
ATOM     21  C   UNL d   1      33.102  20.558 -21.103  0.00  0.00     0.140 A 
ATOM     22  F   UNL d   1      33.034  20.733 -20.296  0.00  0.00    -0.204 F 
ATOM     23  C   UNL d   1      33.142  21.174 -21.659  0.00  0.00     0.030 A 
ATOM     24  C   UNL d   1      33.210  20.999 -22.462  0.00  0.00     0.002 A 
ATOM     25  C   UNL d   1      33.240  20.208 -22.717  0.00  0.00     0.001 A 
ENDBRANCH  18  19
ENDBRANCH  17  18
ENDBRANCH   2  17
TORSDOF 6
ENDMDL
MODEL 2
REMARK VINA RESULT:      -2.3      1.206      1.650
REMARK  6 active torsions:
REMARK  status: ('A' for Active; 'I' for Inactive)
REMARK    1  A    between atoms: N_2  and  S_1 
REMARK    2  A    between atoms: C_5  and  S_1 
REMARK    3  A    between atoms: S_8  and  C_3 
REMARK    4  A    between atoms: C_13  and  S_8 
REMARK    5  A    between atoms: C_17  and  C_13 
REMARK    6  A    between atoms: O_21  and  C_15 
ROOT
ATOM      1  N   UNL d   1      31.448  16.615 -24.263  0.00  0.00    -0.208 N 
ATOM      2  C   UNL d   1      32.148  16.895 -23.911  0.00  0.00     0.189 A 
ATOM      3  N   UNL d   1      32.561  16.244 -23.608  0.00  0.00    -0.219 NA
ATOM      4  C   UNL d   1      31.431  15.788 -24.175  0.00  0.00     0.114 A 
ATOM      5  C   UNL d   1      32.116  15.566 -23.773  0.00  0.00     0.121 A 
ENDROOT
BRANCH   1   6
ATOM      6  S   UNL d   1      30.874  17.082 -24.634  0.00  0.00     0.273 S 
ATOM      7  O   UNL d   1      30.506  17.662 -25.097  0.00  0.00    -0.200 OA
ATOM      8  O   UNL d   1      31.486  17.501 -24.978  0.00  0.00    -0.200 OA
BRANCH   6   9
ATOM      9  C   UNL d   1      30.242  16.671 -24.295  0.00  0.00     0.104 A 
ATOM     10  C   UNL d   1      29.909  16.040 -24.704  0.00  0.00     0.015 A 
ATOM     11  C   UNL d   1      29.276  15.634 -24.358  0.00  0.00     0.025 A 
ATOM     12  C   UNL d   1      28.989  15.865 -23.615  0.00  0.00     0.094 A 
ATOM     13  C   UNL d   1      29.326  16.495 -23.216  0.00  0.00     0.025 A 
ATOM     14  C   UNL d   1      29.959  16.902 -23.561  0.00  0.00     0.015 A 
BRANCH  12  15
ATOM     15  O   UNL d   1      28.358  15.453 -23.281  0.00  0.00    -0.328 OA
ATOM     16  C   UNL d   1      27.608  15.506 -23.631  0.00  0.00     0.181 C 
ENDBRANCH  12  15
ENDBRANCH   6   9
ENDBRANCH   1   6
BRANCH   2  17
ATOM     17  S   UNL d   1      32.390  17.690 -23.872  0.00  0.00    -0.049 SA
BRANCH  17  18
ATOM     18  C   UNL d   1      33.021  17.902 -23.384  0.00  0.00     0.038 C 
BRANCH  18  19
ATOM     19  C   UNL d   1      33.093  18.679 -23.125  0.00  0.00     0.009 A 
ATOM     20  C   UNL d   1      33.131  19.305 -23.684  0.00  0.00     0.030 A 
ATOM     21  C   UNL d   1      33.204  20.081 -23.431  0.00  0.00     0.140 A 
ATOM     22  F   UNL d   1      33.241  20.695 -23.985  0.00  0.00    -0.204 F 
ATOM     23  C   UNL d   1      33.240  20.252 -22.618  0.00  0.00     0.030 A 
ATOM     24  C   UNL d   1      33.203  19.640 -22.068  0.00  0.00     0.002 A 
ATOM     25  C   UNL d   1      33.129  18.851 -22.322  0.00  0.00     0.001 A 
ENDBRANCH  18  19
ENDBRANCH  17  18
ENDBRANCH   2  17
TORSDOF 6
ENDMDL
MODEL 3
REMARK VINA RESULT:      -0.3      1.448      2.078
REMARK  6 active torsions:
REMARK  status: ('A' for Active; 'I' for Inactive)
REMARK    1  A    between atoms: N_2  and  S_1 
REMARK    2  A    between atoms: C_5  and  S_1 
REMARK    3  A    between atoms: S_8  and  C_3 
REMARK    4  A    between atoms: C_13  and  S_8 
REMARK    5  A    between atoms: C_17  and  C_13 
REMARK    6  A    between atoms: O_21  and  C_15 
ROOT
ATOM      1  N   UNL d   1      33.009  19.090 -23.057  0.00  0.00    -0.208 N 
ATOM      2  C   UNL d   1      33.094  19.572 -22.385  0.00  0.00     0.189 A 
ATOM      3  N   UNL d   1      33.231  19.081 -21.732  0.00  0.00    -0.219 NA
ATOM      4  C   UNL d   1      33.093  18.299 -22.816  0.00  0.00     0.114 A 
ATOM      5  C   UNL d   1      33.229  18.298 -22.003  0.00  0.00     0.121 A 
ENDROOT
BRANCH   1   6
ATOM      6  S   UNL d   1      32.865  19.357 -23.827  0.00  0.00     0.273 S 
ATOM      7  O   UNL d   1      32.841  19.828 -24.508  0.00  0.00    -0.200 OA
ATOM      8  O   UNL d   1      33.241  20.053 -23.620  0.00  0.00    -0.200 OA
BRANCH   6   9
ATOM      9  C   UNL d   1      32.481  18.662 -24.056  0.00  0.00     0.104 A 
ATOM     10  C   UNL d   1      32.921  18.052 -24.388  0.00  0.00     0.015 A 
ATOM     11  C   UNL d   1      32.529  17.359 -24.615  0.00  0.00     0.025 A 
ATOM     12  C   UNL d   1      31.710  17.288 -24.506  0.00  0.00     0.094 A 
ATOM     13  C   UNL d   1      31.280  17.901 -24.174  0.00  0.00     0.025 A 
ATOM     14  C   UNL d   1      31.671  18.595 -23.947  0.00  0.00     0.015 A 
BRANCH  12  15
ATOM     15  O   UNL d   1      31.331  16.593 -24.735  0.00  0.00    -0.328 OA
ATOM     16  C   UNL d   1      31.780  15.969 -25.044  0.00  0.00     0.181 C 
ENDBRANCH  12  15
ENDBRANCH   6   9
ENDBRANCH   1   6
BRANCH   2  17
ATOM     17  S   UNL d   1      33.051  20.402 -22.371  0.00  0.00    -0.049 SA
BRANCH  17  18
ATOM     18  C   UNL d   1      33.149  20.806 -21.659  0.00  0.00     0.038 C 
BRANCH  18  19
ATOM     19  C   UNL d   1      32.822  21.555 -21.564  0.00  0.00     0.009 A 
ATOM     20  C   UNL d   1      32.573  21.810 -20.804  0.00  0.00     0.030 A 
ATOM     21  C   UNL d   1      32.246  22.555 -20.705  0.00  0.00     0.140 A 
ATOM     22  F   UNL d   1      32.002  22.803 -19.953  0.00  0.00    -0.204 F 
ATOM     23  C   UNL d   1      32.159  23.062 -21.358  0.00  0.00     0.030 A 
ATOM     24  C   UNL d   1      32.403  22.814 -22.105  0.00  0.00     0.002 A 
ATOM     25  C   UNL d   1      32.735  22.058 -22.209  0.00  0.00     0.001 A 
ENDBRANCH  18  19
ENDBRANCH  17  18
ENDBRANCH   2  17
TORSDOF 6
ENDMDL
MODEL 4
REMARK VINA RESULT:      -0.3      2.202      4.798
REMARK  6 active torsions:
REMARK  status: ('A' for Active; 'I' for Inactive)
REMARK    1  A    between atoms: N_2  and  S_1 
REMARK    2  A    between atoms: C_5  and  S_1 
REMARK    3  A    between atoms: S_8  and  C_3 
REMARK    4  A    between atoms: C_13  and  S_8 
REMARK    5  A    between atoms: C_17  and  C_13 
REMARK    6  A    between atoms: O_21  and  C_15 
ROOT
ATOM      1  N   UNL d   1      32.940  19.705 -23.107  0.00  0.00    -0.208 N 
ATOM      2  C   UNL d   1      32.592  19.213 -23.680  0.00  0.00     0.189 A 
ATOM      3  N   UNL d   1      32.593  19.618 -24.403  0.00  0.00    -0.219 NA
ATOM      4  C   UNL d   1      33.157  20.416 -23.480  0.00  0.00     0.114 A 
ATOM      5  C   UNL d   1      32.942  20.358 -24.274  0.00  0.00     0.121 A 
ENDROOT
BRANCH   1   6
ATOM      6  S   UNL d   1      33.049  19.515 -22.309  0.00  0.00     0.273 S 
ATOM      7  O   UNL d   1      33.213  19.099 -21.612  0.00  0.00    -0.200 OA
ATOM      8  O   UNL d   1      33.241  18.758 -22.551  0.00  0.00    -0.200 OA
BRANCH   6   9
ATOM      9  C   UNL d   1      32.858  20.274 -22.045  0.00  0.00     0.104 A 
ATOM     10  C   UNL d   1      33.239  20.922 -22.377  0.00  0.00     0.015 A 
ATOM     11  C   UNL d   1      33.041  21.679 -22.106  0.00  0.00     0.025 A 
ATOM     12  C   UNL d   1      32.471  21.774 -21.512  0.00  0.00     0.094 A 
ATOM     13  C   UNL d   1      32.097  21.122 -21.186  0.00  0.00     0.025 A 
ATOM     14  C   UNL d   1      32.293  20.365 -21.457  0.00  0.00     0.015 A 
BRANCH  12  15
ATOM     15  O   UNL d   1      32.283  22.533 -21.250  0.00  0.00    -0.328 OA
ATOM     16  C   UNL d   1      31.920  22.628 -20.510  0.00  0.00     0.181 C 
ENDBRANCH  12  15
ENDBRANCH   6   9
ENDBRANCH   1   6
BRANCH   2  17
ATOM     17  S   UNL d   1      32.294  18.448 -23.550  0.00  0.00    -0.049 SA
BRANCH  17  18
ATOM     18  C   UNL d   1      31.983  18.016 -24.180  0.00  0.00     0.038 C 
BRANCH  18  19
ATOM     19  C   UNL d   1      31.560  17.326 -24.034  0.00  0.00     0.009 A 
ATOM     20  C   UNL d   1      30.751  17.276 -24.255  0.00  0.00     0.030 A 
ATOM     21  C   UNL d   1      30.325  16.591 -24.112  0.00  0.00     0.140 A 
ATOM     22  F   UNL d   1      29.528  16.546 -24.332  0.00  0.00    -0.204 F 
ATOM     23  C   UNL d   1      30.692  15.941 -23.746  0.00  0.00     0.030 A 
ATOM     24  C   UNL d   1      31.486  15.988 -23.528  0.00  0.00     0.002 A 
ATOM     25  C   UNL d   1      31.921  16.682 -23.672  0.00  0.00     0.001 A 
ENDBRANCH  18  19
ENDBRANCH  17  18
ENDBRANCH   2  17
TORSDOF 6
ENDMDL
