MODEL 1
REMARK VINA RESULT:      92.6      0.000      0.000
REMARK  5 active torsions:
REMARK  status: ('A' for Active; 'I' for Inactive)
REMARK       I    between atoms: C_6  and  N_1 
REMARK    1  A    between atoms: C_7  and  C_3 
REMARK    2  A    between atoms: C_8  and  C_4 
REMARK    3  A    between atoms: C_11  and  C_6 
REMARK    4  A    between atoms: C_9  and  C_17 
REMARK    5  A    between atoms: C_17  and  C_11 
ROOT
ATOM      1  N   UNL d   1     -56.311-100.181 -43.281  0.00  0.00    -0.195 N 
ATOM      2  N   UNL d   1     -56.427-100.589 -42.585  0.00  0.00    -0.163 NA
ATOM      3  C   UNL d   1     -55.726-100.937 -42.430  0.00  0.00     0.103 A 
ATOM      4  C   UNL d   1     -55.571-100.275 -43.539  0.00  0.00     0.088 A 
ATOM      5  C   UNL d   1     -55.181-100.737 -43.037  0.00  0.00     0.040 A 
ATOM      6  C   UNL d   1     -56.894 -99.733 -43.656  0.00  0.00     0.281 C 
ATOM      7  O   UNL d   1     -56.723 -99.337 -44.362  0.00  0.00    -0.265 OA
ENDROOT
BRANCH   4   8
ATOM      8  C   UNL d   1     -55.348 -99.890 -44.256  0.00  0.00     0.018 A 
ATOM      9  C   UNL d   1     -55.406-100.326 -44.962  0.00  0.00     0.002 A 
ATOM     10  C   UNL d   1     -55.189 -99.943 -45.641  0.00  0.00     0.007 A 
ATOM     11  C   UNL d   1     -54.928 -99.189 -45.663  0.00  0.00     0.035 A 
ATOM     12  C   UNL d   1     -54.873 -98.760 -44.949  0.00  0.00     0.007 A 
ATOM     13 BR   UNL d   1     -54.713 -98.840 -46.414  0.00  0.00    -0.049 Br
ATOM     14  C   UNL d   1     -55.096 -99.145 -44.232  0.00  0.00     0.002 A 
ENDBRANCH   4   8
BRANCH   6  15
ATOM     15  C   UNL d   1     -57.676 -99.687 -43.300  0.00  0.00     0.069 C 
BRANCH  15  16
ATOM     16  C   UNL d   1     -58.176 -99.054 -43.507  0.00  0.00     0.075 C 
BRANCH  16  17
ATOM     17  C   UNL d   1     -58.963 -99.050 -43.275  0.00  0.00     0.211 C 
ATOM     18  O   UNL d   1     -59.561 -99.165 -43.846  0.00  0.00    -0.644 OA
ATOM     19  O   UNL d   1     -59.166 -98.934 -42.483  0.00  0.00    -0.644 OA
ENDBRANCH  16  17
ENDBRANCH  15  16
ENDBRANCH   6  15
BRANCH   3  20
ATOM     20  C   UNL d   1     -55.481-101.427 -41.805  0.00  0.00     0.019 A 
ATOM     21  C   UNL d   1     -55.462-102.238 -41.899  0.00  0.00     0.002 A 
ATOM     22  C   UNL d   1     -55.218-102.721 -41.277  0.00  0.00     0.007 A 
ATOM     23  C   UNL d   1     -54.993-102.382 -40.559  0.00  0.00     0.035 A 
ATOM     24  C   UNL d   1     -55.010-101.557 -40.456  0.00  0.00     0.007 A 
ATOM     25 BR   UNL d   1     -54.727-102.878 -39.877  0.00  0.00    -0.049 Br
ATOM     26  C   UNL d   1     -55.256-101.088 -41.087  0.00  0.00     0.002 A 
ENDBRANCH   3  20
TORSDOF 5
ENDMDL
