MODEL 1
REMARK VINA RESULT:      -9.6      0.000      0.000
REMARK  5 active torsions:
REMARK  status: ('A' for Active; 'I' for Inactive)
REMARK    1  A    between atoms: C_8  and  C_1 
REMARK    2  A    between atoms: C_7  and  O_11 
REMARK    3  A    between atoms: C_9  and  C_7 
REMARK    4  A    between atoms: O_11  and  C_15 
REMARK    5  A    between atoms: O_23  and  C_18 
ROOT
ATOM      1  C   UNL d   1     -49.101  13.142  22.716  0.00  0.00     0.064 A 
ATOM      2  C   UNL d   1     -48.348  13.276  22.401  0.00  0.00     0.199 A 
ATOM      3  C   UNL d   1     -49.195  12.628  23.355  0.00  0.00     0.103 A 
ATOM      4  C   UNL d   1     -47.693  12.897  22.726  0.00  0.00     0.062 A 
ATOM      5  C   UNL d   1     -47.787  12.383  23.364  0.00  0.00     0.105 A 
ATOM      6  O   UNL d   1     -48.536  12.249  23.679  0.00  0.00    -0.307 OA
ATOM      7  C   UNL d   1     -47.132  12.004  23.688  0.00  0.00     0.050 A 
ATOM      8  C   UNL d   1     -46.944  13.031  22.411  0.00  0.00     0.007 A 
ATOM      9  O   UNL d   1     -48.254  13.790  21.762  0.00  0.00    -0.286 OA
ATOM     10  C   UNL d   1     -46.375  12.142  23.368  0.00  0.00     0.105 A 
ATOM     11  C   UNL d   1     -46.282  12.650  22.735  0.00  0.00     0.025 A 
ATOM     12  C   UNL d   1     -49.944  12.494  23.669  0.00  0.00     0.027 C 
ENDROOT
BRANCH   1  13
ATOM     13  C   UNL d   1     -49.755  13.527  22.385  0.00  0.00     0.027 A 
ATOM     14  C   UNL d   1     -50.034  14.233  22.707  0.00  0.00     0.094 A 
ATOM     15  C   UNL d   1     -50.684  14.610  22.374  0.00  0.00     0.024 A 
ATOM     16  C   UNL d   1     -51.064  14.282  21.712  0.00  0.00     0.002 A 
ATOM     17  C   UNL d   1     -50.783  13.568  21.387  0.00  0.00     0.000 A 
ATOM     18  C   UNL d   1     -50.132  13.190  21.720  0.00  0.00     0.002 A 
BRANCH  14  19
ATOM     19  O   UNL d   1     -49.657  14.556  23.360  0.00  0.00    -0.328 OA
ATOM     20  C   UNL d   1     -49.849  15.320  23.604  0.00  0.00     0.181 C 
ENDBRANCH  14  19
ENDBRANCH   1  13
BRANCH  10  21
ATOM     21  O   UNL d   1     -45.716  11.757  23.698  0.00  0.00    -0.271 OA
BRANCH  21  22
ATOM     22  C   UNL d   1     -45.654  10.935  23.631  0.00  0.00     0.323 C 
ATOM     23  O   UNL d   1     -46.332  10.467  23.567  0.00  0.00    -0.257 OA
BRANCH  22  24
ATOM     24  C   UNL d   1     -44.906  10.577  23.627  0.00  0.00     0.163 A 
ATOM     25  O   UNL d   1     -44.185  10.972  23.559  0.00  0.00    -0.300 OA
ATOM     26  C   UNL d   1     -43.586  10.403  23.581  0.00  0.00     0.123 A 
ATOM     27  C   UNL d   1     -43.934   9.662  23.661  0.00  0.00     0.029 A 
ATOM     28  C   UNL d   1     -44.755   9.768  23.690  0.00  0.00     0.032 A 
ENDBRANCH  22  24
ENDBRANCH  21  22
ENDBRANCH  10  21
TORSDOF 5
ENDMDL
MODEL 2
REMARK VINA RESULT:      -8.5      1.578      2.063
REMARK  5 active torsions:
REMARK  status: ('A' for Active; 'I' for Inactive)
REMARK    1  A    between atoms: C_8  and  C_1 
REMARK    2  A    between atoms: C_7  and  O_11 
REMARK    3  A    between atoms: C_9  and  C_7 
REMARK    4  A    between atoms: O_11  and  C_15 
REMARK    5  A    between atoms: O_23  and  C_18 
ROOT
ATOM      1  C   UNL d   1     -48.834  13.970  22.978  0.00  0.00     0.064 A 
ATOM      2  C   UNL d   1     -48.174  14.408  22.740  0.00  0.00     0.199 A 
ATOM      3  C   UNL d   1     -48.748  13.177  23.190  0.00  0.00     0.103 A 
ATOM      4  C   UNL d   1     -47.432  14.052  22.716  0.00  0.00     0.062 A 
ATOM      5  C   UNL d   1     -47.346  13.259  22.928  0.00  0.00     0.105 A 
ATOM      6  O   UNL d   1     -48.002  12.823  23.164  0.00  0.00    -0.307 OA
ATOM      7  C   UNL d   1     -46.603  12.904  22.903  0.00  0.00     0.050 A 
ATOM      8  C   UNL d   1     -46.775  14.490  22.479  0.00  0.00     0.007 A 
ATOM      9  O   UNL d   1     -48.260  15.201  22.528  0.00  0.00    -0.286 OA
ATOM     10  C   UNL d   1     -45.941  13.349  22.663  0.00  0.00     0.105 A 
ATOM     11  C   UNL d   1     -46.026  14.134  22.453  0.00  0.00     0.025 A 
ATOM     12  C   UNL d   1     -49.405  12.741  23.427  0.00  0.00     0.027 C 
ENDROOT
BRANCH   1  13
ATOM     13  C   UNL d   1     -49.578  14.334  23.001  0.00  0.00     0.027 A 
ATOM     14  C   UNL d   1     -50.105  14.251  22.371  0.00  0.00     0.094 A 
ATOM     15  C   UNL d   1     -50.842  14.615  22.400  0.00  0.00     0.024 A 
ATOM     16  C   UNL d   1     -51.059  15.067  23.062  0.00  0.00     0.002 A 
ATOM     17  C   UNL d   1     -50.527  15.151  23.698  0.00  0.00     0.000 A 
ATOM     18  C   UNL d   1     -49.789  14.787  23.669  0.00  0.00     0.002 A 
BRANCH  14  19
ATOM     19  O   UNL d   1     -49.888  13.804  21.719  0.00  0.00    -0.328 OA
ATOM     20  C   UNL d   1     -50.411  13.730  21.085  0.00  0.00     0.181 C 
ENDBRANCH  14  19
ENDBRANCH   1  13
BRANCH  10  21
ATOM     21  O   UNL d   1     -45.193  12.987  22.639  0.00  0.00    -0.271 OA
BRANCH  21  22
ATOM     22  C   UNL d   1     -44.863  12.791  21.906  0.00  0.00     0.323 C 
ATOM     23  O   UNL d   1     -45.334  12.764  21.228  0.00  0.00    -0.257 OA
BRANCH  22  24
ATOM     24  C   UNL d   1     -44.053  12.621  21.852  0.00  0.00     0.163 A 
ATOM     25  O   UNL d   1     -43.665  12.002  22.235  0.00  0.00    -0.300 OA
ATOM     26  C   UNL d   1     -42.867  12.040  22.024  0.00  0.00     0.123 A 
ATOM     27  C   UNL d   1     -42.762  12.677  21.515  0.00  0.00     0.029 A 
ATOM     28  C   UNL d   1     -43.499  13.040  21.406  0.00  0.00     0.032 A 
ENDBRANCH  22  24
ENDBRANCH  21  22
ENDBRANCH  10  21
TORSDOF 5
ENDMDL
