MODEL 1
REMARK VINA RESULT:      -7.4      0.000      0.000
REMARK  5 active torsions:
REMARK  status: ('A' for Active; 'I' for Inactive)
REMARK    1  A    between atoms: C_2  and  N_1 
REMARK    2  A    between atoms: N_5  and  C_3 
REMARK       I    between atoms: C_4  and  N_5 
REMARK       I    between atoms: N_9  and  C_4 
REMARK    3  A    between atoms: O_11  and  N_9 
REMARK    4  A    between atoms: C_13  and  O_11 
REMARK    5  A    between atoms: C_14  and  C_13 
ROOT
ATOM      1  C   UNL d   1      52.956  33.815  53.537  0.00  0.00     0.156 A 
ATOM      2  C   UNL d   1      52.520  33.249  53.124  0.00  0.00     0.160 A 
ATOM      3  C   UNL d   1      52.798  34.612  53.435  0.00  0.00     0.026 A 
ATOM      4  C   UNL d   1      51.917  33.488  52.602  0.00  0.00     0.034 A 
ATOM      5  C   UNL d   1      52.198  34.852  52.915  0.00  0.00     0.002 A 
ATOM      6  C   UNL d   1      51.759  34.281  52.500  0.00  0.00     0.003 A 
ENDROOT
BRANCH   2   7
ATOM      7  N   UNL d   1      52.680  32.443  53.228  0.00  0.00    -0.335 NA
ATOM      8  C   UNL d   1      52.839  31.641  53.330  0.00  0.00     0.499 C 
ATOM      9  O   UNL d   1      52.513  31.491  52.593  0.00  0.00    -0.211 OA
ATOM     10  N   UNL d   1      52.998  30.843  53.433  0.00  0.00    -0.199 NA
BRANCH  10  11
ATOM     11  O   UNL d   1      53.158  30.037  53.536  0.00  0.00    -0.156 OA
BRANCH  11  12
ATOM     12  C   UNL d   1      53.633  29.602  54.054  0.00  0.00     0.163 C 
BRANCH  12  13
ATOM     13  C   UNL d   1      53.048  29.029  54.100  0.00  0.00     0.030 C 
ATOM     14  C   UNL d   1      53.467  28.649  54.693  0.00  0.00     0.002 C 
ENDBRANCH  12  13
ENDBRANCH  11  12
ENDBRANCH  10  11
ENDBRANCH   2   7
BRANCH   1  15
ATOM     15  N   UNL d   1      53.556  33.574  54.057  0.00  0.00    -0.111 N 
ATOM     16  O   UNL d   1      54.325  33.450  53.788  0.00  0.00    -0.532 OA
ATOM     17  O   UNL d   1      53.373  33.457  54.864  0.00  0.00    -0.532 OA
ENDBRANCH   1  15
TORSDOF 5
ENDMDL
MODEL 2
REMARK VINA RESULT:      -7.2      2.223      3.892
REMARK  5 active torsions:
REMARK  status: ('A' for Active; 'I' for Inactive)
REMARK    1  A    between atoms: C_2  and  N_1 
REMARK    2  A    between atoms: N_5  and  C_3 
REMARK       I    between atoms: C_4  and  N_5 
REMARK       I    between atoms: N_9  and  C_4 
REMARK    3  A    between atoms: O_11  and  N_9 
REMARK    4  A    between atoms: C_13  and  O_11 
REMARK    5  A    between atoms: C_14  and  C_13 
ROOT
ATOM      1  C   UNL d   1      53.674  34.166  54.671  0.00  0.00     0.156 A 
ATOM      2  C   UNL d   1      53.288  33.555  54.274  0.00  0.00     0.160 A 
ATOM      3  C   UNL d   1      54.365  34.017  55.084  0.00  0.00     0.026 A 
ATOM      4  C   UNL d   1      53.602  32.783  54.292  0.00  0.00     0.034 A 
ATOM      5  C   UNL d   1      54.679  33.250  55.103  0.00  0.00     0.002 A 
ATOM      6  C   UNL d   1      54.289  32.635  54.702  0.00  0.00     0.003 A 
ENDROOT
BRANCH   2   7
ATOM      7  N   UNL d   1      52.589  33.706  53.856  0.00  0.00    -0.335 NA
ATOM      8  C   UNL d   1      51.893  33.855  53.441  0.00  0.00     0.499 C 
ATOM      9  O   UNL d   1      51.916  33.092  53.144  0.00  0.00    -0.211 OA
ATOM     10  N   UNL d   1      51.200  34.005  53.028  0.00  0.00    -0.199 NA
BRANCH  10  11
ATOM     11  O   UNL d   1      50.501  34.155  52.610  0.00  0.00    -0.156 OA
BRANCH  11  12
ATOM     12  C   UNL d   1      49.844  34.641  52.735  0.00  0.00     0.163 C 
BRANCH  12  13
ATOM     13  C   UNL d   1      49.605  34.505  51.963  0.00  0.00     0.030 C 
ATOM     14  C   UNL d   1      48.920  34.935  52.100  0.00  0.00     0.002 C 
ENDBRANCH  12  13
ENDBRANCH  11  12
ENDBRANCH  10  11
ENDBRANCH   2   7
BRANCH   1  15
ATOM     15  N   UNL d   1      53.359  34.933  54.652  0.00  0.00    -0.111 N 
ATOM     16  O   UNL d   1      53.532  35.447  54.031  0.00  0.00    -0.532 OA
ATOM     17  O   UNL d   1      52.859  35.184  55.273  0.00  0.00    -0.532 OA
ENDBRANCH   1  15
TORSDOF 5
ENDMDL
MODEL 3
REMARK VINA RESULT:      -7.1      1.941      4.096
REMARK  5 active torsions:
REMARK  status: ('A' for Active; 'I' for Inactive)
REMARK    1  A    between atoms: C_2  and  N_1 
REMARK    2  A    between atoms: N_5  and  C_3 
REMARK       I    between atoms: C_4  and  N_5 
REMARK       I    between atoms: N_9  and  C_4 
REMARK    3  A    between atoms: O_11  and  N_9 
REMARK    4  A    between atoms: C_13  and  O_11 
REMARK    5  A    between atoms: C_14  and  C_13 
ROOT
ATOM      1  C   UNL d   1      53.170  32.540  53.640  0.00  0.00     0.156 A 
ATOM      2  C   UNL d   1      52.895  33.297  53.815  0.00  0.00     0.160 A 
ATOM      3  C   UNL d   1      53.850  32.256  53.996  0.00  0.00     0.026 A 
ATOM      4  C   UNL d   1      53.310  33.776  54.356  0.00  0.00     0.034 A 
ATOM      5  C   UNL d   1      54.265  32.731  54.535  0.00  0.00     0.002 A 
ATOM      6  C   UNL d   1      53.986  33.494  54.711  0.00  0.00     0.003 A 
ENDROOT
BRANCH   2   7
ATOM      7  N   UNL d   1      52.206  33.584  53.455  0.00  0.00    -0.335 NA
ATOM      8  C   UNL d   1      51.522  33.869  53.096  0.00  0.00     0.499 C 
ATOM      9  O   UNL d   1      51.681  34.613  53.403  0.00  0.00    -0.211 OA
ATOM     10  N   UNL d   1      50.840  34.153  52.739  0.00  0.00    -0.199 NA
BRANCH  10  11
ATOM     11  O   UNL d   1      50.152  34.440  52.378  0.00  0.00    -0.156 OA
BRANCH  11  12
ATOM     12  C   UNL d   1      49.784  34.314  51.649  0.00  0.00     0.163 C 
BRANCH  12  13
ATOM     13  C   UNL d   1      49.141  34.755  51.905  0.00  0.00     0.030 C 
ATOM     14  C   UNL d   1      48.806  34.699  51.158  0.00  0.00     0.002 C 
ENDBRANCH  12  13
ENDBRANCH  11  12
ENDBRANCH  10  11
ENDBRANCH   2   7
BRANCH   1  15
ATOM     15  N   UNL d   1      52.755  32.065  53.101  0.00  0.00    -0.111 N 
ATOM     16  O   UNL d   1      52.907  32.109  52.292  0.00  0.00    -0.532 OA
ATOM     17  O   UNL d   1      52.175  31.535  53.387  0.00  0.00    -0.532 OA
ENDBRANCH   1  15
TORSDOF 5
ENDMDL
MODEL 4
REMARK VINA RESULT:      -7.1      1.050      1.577
REMARK  5 active torsions:
REMARK  status: ('A' for Active; 'I' for Inactive)
REMARK    1  A    between atoms: C_2  and  N_1 
REMARK    2  A    between atoms: N_5  and  C_3 
REMARK       I    between atoms: C_4  and  N_5 
REMARK       I    between atoms: N_9  and  C_4 
REMARK    3  A    between atoms: O_11  and  N_9 
REMARK    4  A    between atoms: C_13  and  O_11 
REMARK    5  A    between atoms: C_14  and  C_13 
ROOT
ATOM      1  C   UNL d   1      52.423  33.949  53.460  0.00  0.00     0.156 A 
ATOM      2  C   UNL d   1      53.025  33.619  53.918  0.00  0.00     0.160 A 
ATOM      3  C   UNL d   1      52.300  34.758  53.463  0.00  0.00     0.026 A 
ATOM      4  C   UNL d   1      53.508  34.110  54.387  0.00  0.00     0.034 A 
ATOM      5  C   UNL d   1      52.780  35.248  53.929  0.00  0.00     0.002 A 
ATOM      6  C   UNL d   1      53.386  34.915  54.390  0.00  0.00     0.003 A 
ENDROOT
BRANCH   2   7
ATOM      7  N   UNL d   1      53.149  32.800  53.914  0.00  0.00    -0.335 NA
ATOM      8  C   UNL d   1      53.274  31.985  53.911  0.00  0.00     0.499 C 
ATOM      9  O   UNL d   1      54.035  32.109  54.189  0.00  0.00    -0.211 OA
ATOM     10  N   UNL d   1      53.397  31.175  53.907  0.00  0.00    -0.199 NA
BRANCH  10  11
ATOM     11  O   UNL d   1      53.522  30.356  53.903  0.00  0.00    -0.156 OA
BRANCH  11  12
ATOM     12  C   UNL d   1      53.041  29.696  54.030  0.00  0.00     0.163 C 
BRANCH  12  13
ATOM     13  C   UNL d   1      53.712  29.233  54.124  0.00  0.00     0.030 C 
ATOM     14  C   UNL d   1      53.295  28.730  54.620  0.00  0.00     0.002 C 
ENDBRANCH  12  13
ENDBRANCH  11  12
ENDBRANCH  10  11
ENDBRANCH   2   7
BRANCH   1  15
ATOM     15  N   UNL d   1      51.944  33.458  52.994  0.00  0.00    -0.111 N 
ATOM     16  O   UNL d   1      52.154  33.268  52.221  0.00  0.00    -0.532 OA
ATOM     17  O   UNL d   1      51.236  33.153  53.319  0.00  0.00    -0.532 OA
ENDBRANCH   1  15
TORSDOF 5
ENDMDL
MODEL 5
REMARK VINA RESULT:      -6.2      1.482      4.155
REMARK  5 active torsions:
REMARK  status: ('A' for Active; 'I' for Inactive)
REMARK    1  A    between atoms: C_2  and  N_1 
REMARK    2  A    between atoms: N_5  and  C_3 
REMARK       I    between atoms: C_4  and  N_5 
REMARK       I    between atoms: N_9  and  C_4 
REMARK    3  A    between atoms: O_11  and  N_9 
REMARK    4  A    between atoms: C_13  and  O_11 
REMARK    5  A    between atoms: C_14  and  C_13 
ROOT
ATOM      1  C   UNL d   1      52.742  30.989  53.160  0.00  0.00     0.156 A 
ATOM      2  C   UNL d   1      53.312  31.186  53.723  0.00  0.00     0.160 A 
ATOM      3  C   UNL d   1      52.644  30.209  52.928  0.00  0.00     0.026 A 
ATOM      4  C   UNL d   1      53.790  30.590  54.056  0.00  0.00     0.034 A 
ATOM      5  C   UNL d   1      53.119  29.616  53.258  0.00  0.00     0.002 A 
ATOM      6  C   UNL d   1      53.694  29.816  53.825  0.00  0.00     0.003 A 
ENDROOT
BRANCH   2   7
ATOM      7  N   UNL d   1      53.410  31.974  53.958  0.00  0.00    -0.335 NA
ATOM      8  C   UNL d   1      53.508  32.758  54.191  0.00  0.00     0.499 C 
ATOM      9  O   UNL d   1      54.165  32.536  54.629  0.00  0.00    -0.211 OA
ATOM     10  N   UNL d   1      53.606  33.538  54.424  0.00  0.00    -0.199 NA
BRANCH  10  11
ATOM     11  O   UNL d   1      53.704  34.326  54.659  0.00  0.00    -0.156 OA
BRANCH  11  12
ATOM     12  C   UNL d   1      53.202  34.907  54.964  0.00  0.00     0.163 C 
BRANCH  12  13
ATOM     13  C   UNL d   1      53.367  35.382  54.316  0.00  0.00     0.030 C 
ATOM     14  C   UNL d   1      52.985  36.010  54.678  0.00  0.00     0.002 C 
ENDBRANCH  12  13
ENDBRANCH  11  12
ENDBRANCH  10  11
ENDBRANCH   2   7
BRANCH   1  15
ATOM     15  N   UNL d   1      52.267  31.583  52.829  0.00  0.00    -0.111 N 
ATOM     16  O   UNL d   1      51.522  31.752  53.139  0.00  0.00    -0.532 OA
ATOM     17  O   UNL d   1      52.551  32.014  52.172  0.00  0.00    -0.532 OA
ENDBRANCH   1  15
TORSDOF 5
ENDMDL
MODEL 6
REMARK VINA RESULT:      -4.7      9.977     11.023
REMARK  5 active torsions:
REMARK  status: ('A' for Active; 'I' for Inactive)
REMARK    1  A    between atoms: C_2  and  N_1 
REMARK    2  A    between atoms: N_5  and  C_3 
REMARK       I    between atoms: C_4  and  N_5 
REMARK       I    between atoms: N_9  and  C_4 
REMARK    3  A    between atoms: O_11  and  N_9 
REMARK    4  A    between atoms: C_13  and  O_11 
REMARK    5  A    between atoms: C_14  and  C_13 
ROOT
ATOM      1  C   UNL d   1      45.091  27.850  57.423  0.00  0.00     0.156 A 
ATOM      2  C   UNL d   1      44.963  27.584  58.193  0.00  0.00     0.160 A 
ATOM      3  C   UNL d   1      45.175  28.650  57.272  0.00  0.00     0.026 A 
ATOM      4  C   UNL d   1      44.919  28.131  58.821  0.00  0.00     0.034 A 
ATOM      5  C   UNL d   1      45.131  29.196  57.894  0.00  0.00     0.002 A 
ATOM      6  C   UNL d   1      45.002  28.927  58.670  0.00  0.00     0.003 A 
ENDROOT
BRANCH   2   7
ATOM      7  N   UNL d   1      44.879  26.774  58.346  0.00  0.00    -0.335 NA
ATOM      8  C   UNL d   1      44.795  25.969  58.498  0.00  0.00     0.499 C 
ATOM      9  O   UNL d   1      44.728  26.136  59.298  0.00  0.00    -0.211 OA
ATOM     10  N   UNL d   1      44.711  25.167  58.649  0.00  0.00    -0.199 NA
BRANCH  10  11
ATOM     11  O   UNL d   1      44.627  24.358  58.802  0.00  0.00    -0.156 OA
BRANCH  11  12
ATOM     12  C   UNL d   1      44.779  23.668  58.373  0.00  0.00     0.163 C 
BRANCH  12  13
ATOM     13  C   UNL d   1      44.398  23.231  58.954  0.00  0.00     0.030 C 
ATOM     14  C   UNL d   1      44.678  22.538  58.615  0.00  0.00     0.002 C 
ENDBRANCH  12  13
ENDBRANCH  11  12
ENDBRANCH  10  11
ENDBRANCH   2   7
BRANCH   1  15
ATOM     15  N   UNL d   1      45.135  27.303  56.801  0.00  0.00    -0.111 N 
ATOM     16  O   UNL d   1      45.849  26.944  56.601  0.00  0.00    -0.532 OA
ATOM     17  O   UNL d   1      44.442  27.117  56.373  0.00  0.00    -0.532 OA
ENDBRANCH   1  15
TORSDOF 5
ENDMDL
