MODEL 1
REMARK VINA RESULT:      -7.7      0.000      0.000
REMARK  3 active torsions:
REMARK  status: ('A' for Active; 'I' for Inactive)
REMARK    1  A    between atoms: C_2  and  C_1 
REMARK       I    between atoms: N_6  and  C_2 
REMARK    2  A    between atoms: C_7  and  N_6 
REMARK    3  A    between atoms: C_18  and  N_6 
ROOT
ATOM      1  C   UNL d   1     -47.921  14.121  23.252  0.00  0.00     0.270 C 
ATOM      2  N   UNL d   1     -49.055  13.908  22.783  0.00  0.00    -0.274 N 
ATOM      3  O   UNL d   1     -47.900  14.783  23.697  0.00  0.00    -0.266 OA
ENDROOT
BRANCH   2   4
ATOM      4  C   UNL d   1     -49.123  13.267  22.337  0.00  0.00     0.079 A 
ATOM      5  C   UNL d   1     -49.049  13.235  21.559  0.00  0.00     0.116 A 
ATOM      6  S   UNL d   1     -49.157  12.495  21.337  0.00  0.00     0.213 S 
ATOM      7  O   UNL d   1     -49.265  11.755  21.116  0.00  0.00    -0.217 OA
ATOM      8  O   UNL d   1     -49.020  12.884  20.680  0.00  0.00    -0.217 OA
ATOM      9  C   UNL d   1     -49.297  12.074  21.980  0.00  0.00     0.100 A 
ATOM     10  C   UNL d   1     -49.277  12.547  22.593  0.00  0.00     0.030 A 
ENDBRANCH   2   4
BRANCH   2  11
ATOM     11  C   UNL d   1     -49.689  14.409  22.932  0.00  0.00     0.067 A 
ATOM     12  C   UNL d   1     -50.197  14.236  23.543  0.00  0.00     0.018 A 
ATOM     13  C   UNL d   1     -50.843  14.743  23.698  0.00  0.00     0.002 A 
ATOM     14  C   UNL d   1     -50.962  15.411  23.235  0.00  0.00     0.000 A 
ATOM     15  C   UNL d   1     -50.447  15.583  22.618  0.00  0.00     0.002 A 
ATOM     16  C   UNL d   1     -49.809  15.089  22.459  0.00  0.00     0.018 A 
ENDBRANCH   2  11
BRANCH   1  17
ATOM     17  C   UNL d   1     -47.271  13.634  23.116  0.00  0.00     0.120 A 
ATOM     18  C   UNL d   1     -46.657  13.893  22.606  0.00  0.00     0.305 A 
ATOM     19  O   UNL d   1     -46.004  13.405  22.468  0.00  0.00    -0.273 OA
ATOM     20  O   UNL d   1     -46.708  14.633  22.246  0.00  0.00    -0.259 OA
ATOM     21  C   UNL d   1     -45.960  12.664  22.834  0.00  0.00     0.103 A 
ATOM     22  C   UNL d   1     -46.566  12.408  23.337  0.00  0.00     0.023 A 
ATOM     23  C   UNL d   1     -45.302  12.180  22.691  0.00  0.00     0.025 A 
ATOM     24  C   UNL d   1     -47.216  12.892  23.475  0.00  0.00     0.012 A 
ATOM     25  C   UNL d   1     -46.514  11.668  23.697  0.00  0.00     0.002 A 
ATOM     26  C   UNL d   1     -45.861  11.182  23.558  0.00  0.00     0.000 A 
ATOM     27  C   UNL d   1     -45.255  11.439  23.054  0.00  0.00     0.002 A 
ENDBRANCH   1  17
TORSDOF 3
ENDMDL
MODEL 2
REMARK VINA RESULT:      -7.7      0.890      3.824
REMARK  3 active torsions:
REMARK  status: ('A' for Active; 'I' for Inactive)
REMARK    1  A    between atoms: C_2  and  C_1 
REMARK       I    between atoms: N_6  and  C_2 
REMARK    2  A    between atoms: C_7  and  N_6 
REMARK    3  A    between atoms: C_18  and  N_6 
ROOT
ATOM      1  C   UNL d   1     -47.511  14.232  22.998  0.00  0.00     0.270 C 
ATOM      2  N   UNL d   1     -47.300  13.068  22.608  0.00  0.00    -0.274 N 
ATOM      3  O   UNL d   1     -46.865  14.557  23.335  0.00  0.00    -0.266 OA
ENDROOT
BRANCH   2   4
ATOM      4  C   UNL d   1     -47.909  12.708  22.270  0.00  0.00     0.079 A 
ATOM      5  C   UNL d   1     -48.083  12.714  21.507  0.00  0.00     0.116 A 
ATOM      6  S   UNL d   1     -48.730  12.290  21.405  0.00  0.00     0.213 S 
ATOM      7  O   UNL d   1     -49.376  11.867  21.302  0.00  0.00    -0.217 OA
ATOM      8  O   UNL d   1     -48.537  12.537  20.695  0.00  0.00    -0.217 OA
ATOM      9  C   UNL d   1     -48.951  12.025  22.105  0.00  0.00     0.100 A 
ATOM     10  C   UNL d   1     -48.448  12.281  22.636  0.00  0.00     0.030 A 
ENDBRANCH   2   4
BRANCH   2  11
ATOM     11  C   UNL d   1     -46.570  12.703  22.700  0.00  0.00     0.067 A 
ATOM     12  C   UNL d   1     -46.484  12.123  23.264  0.00  0.00     0.018 A 
ATOM     13  C   UNL d   1     -45.742  11.750  23.361  0.00  0.00     0.002 A 
ATOM     14  C   UNL d   1     -45.106  11.968  22.890  0.00  0.00     0.000 A 
ATOM     15  C   UNL d   1     -45.197  12.555  22.321  0.00  0.00     0.002 A 
ATOM     16  C   UNL d   1     -45.923  12.927  22.219  0.00  0.00     0.018 A 
ENDBRANCH   2  11
BRANCH   1  17
ATOM     17  C   UNL d   1     -48.234  14.618  22.916  0.00  0.00     0.120 A 
ATOM     18  C   UNL d   1     -48.301  15.266  22.386  0.00  0.00     0.305 A 
ATOM     19  O   UNL d   1     -49.027  15.654  22.303  0.00  0.00    -0.273 OA
ATOM     20  O   UNL d   1     -47.644  15.511  21.953  0.00  0.00    -0.259 OA
ATOM     21  C   UNL d   1     -49.681  15.402  22.742  0.00  0.00     0.103 A 
ATOM     22  C   UNL d   1     -49.614  14.763  23.264  0.00  0.00     0.023 A 
ATOM     23  C   UNL d   1     -50.405  15.796  22.652  0.00  0.00     0.025 A 
ATOM     24  C   UNL d   1     -48.894  14.375  23.349  0.00  0.00     0.012 A 
ATOM     25  C   UNL d   1     -50.272  14.518  23.698  0.00  0.00     0.002 A 
ATOM     26  C   UNL d   1     -50.995  14.908  23.612  0.00  0.00     0.000 A 
ATOM     27  C   UNL d   1     -51.061  15.547  23.089  0.00  0.00     0.002 A 
ENDBRANCH   1  17
TORSDOF 3
ENDMDL
MODEL 3
REMARK VINA RESULT:      -7.1      8.742     10.603
REMARK  3 active torsions:
REMARK  status: ('A' for Active; 'I' for Inactive)
REMARK    1  A    between atoms: C_2  and  C_1 
REMARK       I    between atoms: N_6  and  C_2 
REMARK    2  A    between atoms: C_7  and  N_6 
REMARK    3  A    between atoms: C_18  and  N_6 
ROOT
ATOM      1  C   UNL d   1     -38.499  14.310  18.363  0.00  0.00     0.270 C 
ATOM      2  N   UNL d   1     -39.487  14.892  18.850  0.00  0.00    -0.274 N 
ATOM      3  O   UNL d   1     -37.975  14.091  18.923  0.00  0.00    -0.266 OA
ENDROOT
BRANCH   2   4
ATOM      4  C   UNL d   1     -40.030  15.127  18.335  0.00  0.00     0.079 A 
ATOM      5  C   UNL d   1     -40.663  14.723  18.117  0.00  0.00     0.116 A 
ATOM      6  S   UNL d   1     -41.056  15.153  17.598  0.00  0.00     0.213 S 
ATOM      7  O   UNL d   1     -41.448  15.583  17.079  0.00  0.00    -0.217 OA
ATOM      8  O   UNL d   1     -41.470  14.502  17.674  0.00  0.00    -0.217 OA
ATOM      9  C   UNL d   1     -40.662  15.820  17.499  0.00  0.00     0.100 A 
ATOM     10  C   UNL d   1     -40.033  15.804  17.951  0.00  0.00     0.030 A 
ENDBRANCH   2   4
BRANCH   2  11
ATOM     11  C   UNL d   1     -39.561  15.021  19.657  0.00  0.00     0.067 A 
ATOM     12  C   UNL d   1     -39.264  15.707  19.979  0.00  0.00     0.018 A 
ATOM     13  C   UNL d   1     -39.338  15.842  20.801  0.00  0.00     0.002 A 
ATOM     14  C   UNL d   1     -39.709  15.286  21.278  0.00  0.00     0.000 A 
ATOM     15  C   UNL d   1     -40.009  14.594  20.949  0.00  0.00     0.002 A 
ATOM     16  C   UNL d   1     -39.940  14.454  20.142  0.00  0.00     0.018 A 
ENDBRANCH   2  11
BRANCH   1  17
ATOM     17  C   UNL d   1     -38.402  14.169  17.557  0.00  0.00     0.120 A 
ATOM     18  C   UNL d   1     -38.442  13.383  17.265  0.00  0.00     0.305 A 
ATOM     19  O   UNL d   1     -38.346  13.240  16.456  0.00  0.00    -0.273 OA
ATOM     20  O   UNL d   1     -38.577  12.759  17.787  0.00  0.00    -0.259 OA
ATOM     21  C   UNL d   1     -38.211  13.873  15.941  0.00  0.00     0.103 A 
ATOM     22  C   UNL d   1     -38.171  14.648  16.228  0.00  0.00     0.023 A 
ATOM     23  C   UNL d   1     -38.115  13.721  15.131  0.00  0.00     0.025 A 
ATOM     24  C   UNL d   1     -38.267  14.793  17.032  0.00  0.00     0.012 A 
ATOM     25  C   UNL d   1     -38.036  15.272  15.707  0.00  0.00     0.002 A 
ATOM     26  C   UNL d   1     -37.940  15.127  14.899  0.00  0.00     0.000 A 
ATOM     27  C   UNL d   1     -37.980  14.351  14.612  0.00  0.00     0.002 A 
ENDBRANCH   1  17
TORSDOF 3
ENDMDL
MODEL 4
REMARK VINA RESULT:      -6.1      1.235      1.570
REMARK  3 active torsions:
REMARK  status: ('A' for Active; 'I' for Inactive)
REMARK    1  A    between atoms: C_2  and  C_1 
REMARK       I    between atoms: N_6  and  C_2 
REMARK    2  A    between atoms: C_7  and  N_6 
REMARK    3  A    between atoms: C_18  and  N_6 
ROOT
ATOM      1  C   UNL d   1     -47.784  14.295  22.399  0.00  0.00     0.270 C 
ATOM      2  N   UNL d   1     -48.808  13.652  22.699  0.00  0.00    -0.274 N 
ATOM      3  O   UNL d   1     -47.955  15.039  22.170  0.00  0.00    -0.266 OA
ENDROOT
BRANCH   2   4
ATOM      4  C   UNL d   1     -48.688  12.912  22.931  0.00  0.00     0.079 A 
ATOM      5  C   UNL d   1     -48.774  12.271  22.491  0.00  0.00     0.116 A 
ATOM      6  S   UNL d   1     -48.600  11.652  22.932  0.00  0.00     0.213 S 
ATOM      7  O   UNL d   1     -48.427  11.033  23.374  0.00  0.00    -0.217 OA
ATOM      8  O   UNL d   1     -48.785  11.359  22.239  0.00  0.00    -0.217 OA
ATOM      9  C   UNL d   1     -48.409  11.914  23.642  0.00  0.00     0.100 A 
ATOM     10  C   UNL d   1     -48.463  12.688  23.642  0.00  0.00     0.030 A 
ENDBRANCH   2   4
BRANCH   2  11
ATOM     11  C   UNL d   1     -49.558  13.983  22.656  0.00  0.00     0.067 A 
ATOM     12  C   UNL d   1     -49.948  13.991  21.942  0.00  0.00     0.018 A 
ATOM     13  C   UNL d   1     -50.713  14.328  21.894  0.00  0.00     0.002 A 
ATOM     14  C   UNL d   1     -51.064  14.647  22.563  0.00  0.00     0.000 A 
ATOM     15  C   UNL d   1     -50.667  14.637  23.283  0.00  0.00     0.002 A 
ATOM     16  C   UNL d   1     -49.915  14.308  23.339  0.00  0.00     0.018 A 
ENDBRANCH   2  11
BRANCH   1  17
ATOM     17  C   UNL d   1     -47.022  13.984  22.434  0.00  0.00     0.120 A 
ATOM     18  C   UNL d   1     -46.532  14.161  23.093  0.00  0.00     0.305 A 
ATOM     19  O   UNL d   1     -45.767  13.849  23.130  0.00  0.00    -0.273 OA
ATOM     20  O   UNL d   1     -46.817  14.644  23.698  0.00  0.00    -0.259 OA
ATOM     21  C   UNL d   1     -45.490  13.366  22.519  0.00  0.00     0.103 A 
ATOM     22  C   UNL d   1     -45.973  13.192  21.870  0.00  0.00     0.023 A 
ATOM     23  C   UNL d   1     -44.721  13.057  22.564  0.00  0.00     0.025 A 
ATOM     24  C   UNL d   1     -46.734  13.500  21.830  0.00  0.00     0.012 A 
ATOM     25  C   UNL d   1     -45.688  12.709  21.265  0.00  0.00     0.002 A 
ATOM     26  C   UNL d   1     -44.923  12.399  21.305  0.00  0.00     0.000 A 
ATOM     27  C   UNL d   1     -44.440  12.573  21.955  0.00  0.00     0.002 A 
ENDBRANCH   1  17
TORSDOF 3
ENDMDL
MODEL 5
REMARK VINA RESULT:      -6.0      1.223      4.360
REMARK  3 active torsions:
REMARK  status: ('A' for Active; 'I' for Inactive)
REMARK    1  A    between atoms: C_2  and  C_1 
REMARK       I    between atoms: N_6  and  C_2 
REMARK    2  A    between atoms: C_7  and  N_6 
REMARK    3  A    between atoms: C_18  and  N_6 
ROOT
ATOM      1  C   UNL d   1     -48.025  11.853  22.473  0.00  0.00     0.270 C 
ATOM      2  N   UNL d   1     -46.920  12.276  22.864  0.00  0.00    -0.274 N 
ATOM      3  O   UNL d   1     -48.036  11.059  22.411  0.00  0.00    -0.266 OA
ENDROOT
BRANCH   2   4
ATOM      4  C   UNL d   1     -46.862  13.055  22.940  0.00  0.00     0.079 A 
ATOM      5  C   UNL d   1     -46.576  13.550  22.406  0.00  0.00     0.116 A 
ATOM      6  S   UNL d   1     -46.619  14.271  22.701  0.00  0.00     0.213 S 
ATOM      7  O   UNL d   1     -46.662  14.992  22.995  0.00  0.00    -0.217 OA
ATOM      8  O   UNL d   1     -46.307  14.360  21.996  0.00  0.00    -0.217 OA
ATOM      9  C   UNL d   1     -46.932  14.217  23.414  0.00  0.00     0.100 A 
ATOM     10  C   UNL d   1     -47.081  13.471  23.561  0.00  0.00     0.030 A 
ENDBRANCH   2   4
BRANCH   2  11
ATOM     11  C   UNL d   1     -46.295  11.771  23.031  0.00  0.00     0.067 A 
ATOM     12  C   UNL d   1     -46.419  11.135  23.522  0.00  0.00     0.018 A 
ATOM     13  C   UNL d   1     -45.784  10.618  23.695  0.00  0.00     0.002 A 
ATOM     14  C   UNL d   1     -45.043  10.753  23.370  0.00  0.00     0.000 A 
ATOM     15  C   UNL d   1     -44.921  11.398  22.874  0.00  0.00     0.002 A 
ATOM     16  C   UNL d   1     -45.539  11.911  22.699  0.00  0.00     0.018 A 
ENDBRANCH   2  11
BRANCH   1  17
ATOM     17  C   UNL d   1     -48.665  12.341  22.300  0.00  0.00     0.120 A 
ATOM     18  C   UNL d   1     -48.837  12.531  21.500  0.00  0.00     0.305 A 
ATOM     19  O   UNL d   1     -49.480  13.021  21.324  0.00  0.00    -0.273 OA
ATOM     20  O   UNL d   1     -48.364  12.230  20.896  0.00  0.00    -0.259 OA
ATOM     21  C   UNL d   1     -49.950  13.319  21.937  0.00  0.00     0.103 A 
ATOM     22  C   UNL d   1     -49.780  13.131  22.725  0.00  0.00     0.023 A 
ATOM     23  C   UNL d   1     -50.593  13.810  21.752  0.00  0.00     0.025 A 
ATOM     24  C   UNL d   1     -49.141  12.645  22.902  0.00  0.00     0.012 A 
ATOM     25  C   UNL d   1     -50.253  13.433  23.329  0.00  0.00     0.002 A 
ATOM     26  C   UNL d   1     -50.895  13.922  23.150  0.00  0.00     0.000 A 
ATOM     27  C   UNL d   1     -51.064  14.110  22.362  0.00  0.00     0.002 A 
ENDBRANCH   1  17
TORSDOF 3
ENDMDL
