MODEL 1
REMARK VINA RESULT:     121.7      0.000      0.000
REMARK  4 active torsions:
REMARK  status: ('A' for Active; 'I' for Inactive)
REMARK    1  A    between atoms: N_2  and  S_1 
REMARK    2  A    between atoms: C_8  and  S_1 
REMARK       I    between atoms: C_3  and  N_2 
REMARK    3  A    between atoms: C_11  and  N_2 
REMARK       I    between atoms: N_4  and  C_3 
REMARK       I    between atoms: C_5  and  N_4 
REMARK       I    between atoms: N_9  and  C_5 
REMARK    4  A    between atoms: C_13  and  N_9 
ROOT
ATOM      1  N   UNL d   1      61.278  46.900  50.280  0.00  0.00    -0.182 N 
ATOM      2  C   UNL d   1      61.266  47.585  49.835  0.00  0.00     0.367 C 
ATOM      3  N   UNL d   1      61.054  48.293  50.207  0.00  0.00    -0.135 NA
ATOM      4  C   UNL d   1      61.032  49.003  49.785  0.00  0.00     0.373 C 
ATOM      5  N   UNL d   1      60.822  49.708  50.156  0.00  0.00    -0.191 NA
ATOM      6  O   UNL d   1      61.455  47.588  49.042  0.00  0.00    -0.243 OA
ATOM      7  O   UNL d   1      61.234  48.978  48.959  0.00  0.00    -0.242 OA
ENDROOT
BRANCH   1   8
ATOM      8  S   UNL d   1      61.491  46.170  49.920  0.00  0.00     0.275 S 
ATOM      9  O   UNL d   1      62.264  46.435  49.849  0.00  0.00    -0.199 OA
ATOM     10  O   UNL d   1      60.712  45.927  50.002  0.00  0.00    -0.199 OA
BRANCH   8  11
ATOM     11  C   UNL d   1      61.682  45.453  49.571  0.00  0.00     0.104 A 
ATOM     12  C   UNL d   1      62.407  45.348  49.199  0.00  0.00     0.013 A 
ATOM     13  C   UNL d   1      62.605  44.622  48.843  0.00  0.00     0.001 A 
ATOM     14  C   UNL d   1      62.078  44.000  48.859  0.00  0.00     0.000 A 
ATOM     15  C   UNL d   1      61.341  44.100  49.235  0.00  0.00     0.001 A 
ATOM     16  C   UNL d   1      61.143  44.827  49.591  0.00  0.00     0.013 A 
ENDBRANCH   8  11
ENDBRANCH   1   8
BRANCH   1  17
ATOM     17  C   UNL d   1      61.082  46.940  51.071  0.00  0.00     0.079 A 
ATOM     18  C   UNL d   1      60.310  46.849  51.304  0.00  0.00     0.018 A 
ATOM     19  C   UNL d   1      60.108  46.890  52.108  0.00  0.00     0.002 A 
ATOM     20  C   UNL d   1      60.692  47.023  52.675  0.00  0.00     0.000 A 
ATOM     21  C   UNL d   1      61.472  47.114  52.432  0.00  0.00     0.002 A 
ATOM     22  C   UNL d   1      61.664  47.073  51.635  0.00  0.00     0.018 A 
ENDBRANCH   1  17
BRANCH   5  23
ATOM     23  C   UNL d   1      60.630  49.707  50.960  0.00  0.00     0.086 A 
ATOM     24  C   UNL d   1      61.228  49.707  51.545  0.00  0.00     0.019 A 
ATOM     25  C   UNL d   1      61.032  49.706  52.337  0.00  0.00     0.002 A 
ATOM     26  C   UNL d   1      60.233  49.706  52.571  0.00  0.00     0.000 A 
ATOM     27  C   UNL d   1      59.623  49.706  51.993  0.00  0.00     0.002 A 
ATOM     28  C   UNL d   1      60.079  49.705  53.216  0.00  0.00     0.000 C 
ATOM     29  C   UNL d   1      59.843  49.707  51.190  0.00  0.00     0.019 A 
ENDBRANCH   5  23
TORSDOF 4
ENDMDL
