MODEL 1
REMARK VINA RESULT:      50.3      0.000      0.000
REMARK  2 active torsions:
REMARK  status: ('A' for Active; 'I' for Inactive)
REMARK    1  A    between atoms: C_4  and  C_1 
REMARK    2  A    between atoms: C_8  and  C_2 
REMARK       I    between atoms: N_7  and  C_4 
ROOT
ATOM      1  C   UNL d   1      46.203 -17.740  43.079  0.00  0.00     0.081 A 
ATOM      2  C   UNL d   1      46.042 -16.965  42.900  0.00  0.00     0.104 A 
ATOM      3  C   UNL d   1      46.282 -18.176  42.389  0.00  0.00     0.033 A 
ATOM      4  O   UNL d   1      46.016 -16.900  42.064  0.00  0.00    -0.307 OA
ATOM      5  C   UNL d   1      46.165 -17.650  41.754  0.00  0.00     0.100 A 
ATOM      6  C   UNL d   1      46.442 -18.971  42.238  0.00  0.00     0.044 A 
ATOM      7  C   UNL d   1      46.211 -17.927  40.978  0.00  0.00     0.028 A 
ATOM      8  C   UNL d   1      46.489 -19.253  41.459  0.00  0.00     0.196 A 
ATOM      9  C   UNL d   1      46.372 -18.727  40.824  0.00  0.00     0.044 A 
ATOM     10  O   UNL d   1      46.647 -20.037  41.318  0.00  0.00    -0.287 OA
ENDROOT
BRANCH   1  11
ATOM     11  C   UNL d   1      46.278 -18.054  43.852  0.00  0.00     0.267 C 
ATOM     12  N   UNL d   1      45.999 -18.801  44.020  0.00  0.00    -0.268 N 
ATOM     13  C   UNL d   1      46.074 -19.116  44.793  0.00  0.00     0.110 A 
ATOM     14  C   UNL d   1      45.635 -19.267  43.431  0.00  0.00     0.110 A 
ATOM     15  C   UNL d   1      45.789 -19.872  44.955  0.00  0.00     0.142 A 
ATOM     16  O   UNL d   1      45.432 -20.328  44.374  0.00  0.00    -0.300 OA
ATOM     17  C   UNL d   1      45.355 -20.019  43.602  0.00  0.00     0.142 A 
ATOM     18  O   UNL d   1      46.635 -17.599  44.433  0.00  0.00    -0.267 OA
ENDBRANCH   1  11
BRANCH   2  19
ATOM     19  C   UNL d   1      45.922 -16.341  43.439  0.00  0.00     0.023 A 
ATOM     20  C   UNL d   1      46.445 -15.724  43.451  0.00  0.00     0.002 A 
ATOM     21  C   UNL d   1      46.325 -15.100  43.990  0.00  0.00     0.000 A 
ATOM     22  C   UNL d   1      45.685 -15.108  44.504  0.00  0.00     0.000 A 
ATOM     23  C   UNL d   1      45.154 -15.740  44.486  0.00  0.00     0.000 A 
ATOM     24  C   UNL d   1      45.274 -16.361  43.950  0.00  0.00     0.002 A 
ENDBRANCH   2  19
TORSDOF 2
ENDMDL
MODEL 2
REMARK VINA RESULT:      50.9      5.513      7.044
REMARK  2 active torsions:
REMARK  status: ('A' for Active; 'I' for Inactive)
REMARK    1  A    between atoms: C_4  and  C_1 
REMARK    2  A    between atoms: C_8  and  C_2 
REMARK       I    between atoms: N_7  and  C_4 
ROOT
ATOM      1  C   UNL d   1      44.022 -15.728  36.774  0.00  0.00     0.081 A 
ATOM      2  C   UNL d   1      44.300 -14.969  36.714  0.00  0.00     0.104 A 
ATOM      3  C   UNL d   1      43.213 -15.742  36.642  0.00  0.00     0.033 A 
ATOM      4  O   UNL d   1      43.646 -14.474  36.537  0.00  0.00    -0.307 OA
ATOM      5  C   UNL d   1      42.978 -14.957  36.493  0.00  0.00     0.100 A 
ATOM      6  C   UNL d   1      42.651 -16.345  36.634  0.00  0.00     0.044 A 
ATOM      7  C   UNL d   1      42.185 -14.788  36.339  0.00  0.00     0.028 A 
ATOM      8  C   UNL d   1      41.853 -16.180  36.479  0.00  0.00     0.196 A 
ATOM      9  C   UNL d   1      41.618 -15.395  36.330  0.00  0.00     0.044 A 
ATOM     10  O   UNL d   1      41.306 -16.779  36.472  0.00  0.00    -0.287 OA
ENDROOT
BRANCH   1  11
ATOM     11  C   UNL d   1      44.487 -16.404  36.945  0.00  0.00     0.267 C 
ATOM     12  N   UNL d   1      44.513 -16.703  37.702  0.00  0.00    -0.268 N 
ATOM     13  C   UNL d   1      44.978 -17.379  37.874  0.00  0.00     0.110 A 
ATOM     14  C   UNL d   1      44.079 -16.347  38.320  0.00  0.00     0.110 A 
ATOM     15  C   UNL d   1      44.998 -17.675  38.643  0.00  0.00     0.142 A 
ATOM     16  O   UNL d   1      44.571 -17.323  39.248  0.00  0.00    -0.300 OA
ATOM     17  C   UNL d   1      44.106 -16.650  39.083  0.00  0.00     0.142 A 
ATOM     18  O   UNL d   1      44.914 -16.756  36.340  0.00  0.00    -0.267 OA
ENDBRANCH   1  11
BRANCH   2  19
ATOM     19  C   UNL d   1      45.088 -14.715  36.808  0.00  0.00     0.023 A 
ATOM     20  C   UNL d   1      45.663 -15.024  36.331  0.00  0.00     0.002 A 
ATOM     21  C   UNL d   1      46.451 -14.771  36.425  0.00  0.00     0.000 A 
ATOM     22  C   UNL d   1      46.645 -14.213  36.996  0.00  0.00     0.000 A 
ATOM     23  C   UNL d   1      46.054 -13.901  37.480  0.00  0.00     0.000 A 
ATOM     24  C   UNL d   1      45.270 -14.154  37.386  0.00  0.00     0.002 A 
ENDBRANCH   2  19
TORSDOF 2
ENDMDL
