MODEL 1
REMARK VINA RESULT:      38.7      0.000      0.000
REMARK  5 active torsions:
REMARK  status: ('A' for Active; 'I' for Inactive)
REMARK    1  A    between atoms: C_13  and  C_2 
REMARK       I    between atoms: N_7  and  C_10 
REMARK    2  A    between atoms: S_14  and  C_8 
REMARK    3  A    between atoms: C_20  and  N_9 
REMARK    4  A    between atoms: C_10  and  C_19 
REMARK    5  A    between atoms: C_19  and  S_14 
ROOT
ATOM      1  S   UNL d   1      46.644 -18.156  44.351  0.00  0.00    -0.061 SA
ENDROOT
BRANCH   1   2
ATOM      2  C   UNL d   1      46.539 -18.731  43.767  0.00  0.00     0.131 A 
ATOM      3  N   UNL d   1      46.463 -18.508  42.976  0.00  0.00    -0.156 NA
ATOM      4  N   UNL d   1      46.357 -19.092  42.383  0.00  0.00    -0.191 N 
ATOM      5  C   UNL d   1      46.267 -19.030  41.571  0.00  0.00     0.187 A 
ATOM      6  C   UNL d   1      46.330 -19.881  42.598  0.00  0.00     0.187 A 
ATOM      7  N   UNL d   1      46.183 -19.789  41.270  0.00  0.00    -0.127 NA
ATOM      8  N   UNL d   1      46.221 -20.322  41.900  0.00  0.00    -0.127 NA
ATOM      9  C   UNL d   1      46.406 -20.104  43.389  0.00  0.00     0.043 A 
ATOM     10  C   UNL d   1      46.511 -19.529  43.973  0.00  0.00     0.031 A 
BRANCH   5  11
ATOM     11  C   UNL d   1      46.262 -18.340  41.130  0.00  0.00     0.038 A 
ATOM     12  C   UNL d   1      46.647 -17.670  41.402  0.00  0.00     0.003 A 
ATOM     13  C   UNL d   1      46.642 -16.972  40.959  0.00  0.00     0.000 A 
ATOM     14  C   UNL d   1      46.244 -16.956  40.234  0.00  0.00     0.000 A 
ATOM     15  C   UNL d   1      45.854 -17.628  39.955  0.00  0.00     0.000 A 
ATOM     16  C   UNL d   1      45.863 -18.324  40.405  0.00  0.00     0.003 A 
ENDBRANCH   5  11
ENDBRANCH   1   2
BRANCH   1  17
ATOM     17  C   UNL d   1      46.472 -17.368  44.187  0.00  0.00     0.098 C 
BRANCH  17  18
ATOM     18  C   UNL d   1      45.833 -17.008  44.549  0.00  0.00     0.272 C 
ATOM     19  N   UNL d   1      45.751 -16.188  44.507  0.00  0.00    -0.269 N 
ATOM     20  C   UNL d   1      45.114 -15.831  44.869  0.00  0.00     0.102 A 
ATOM     21  C   UNL d   1      46.313 -15.739  44.101  0.00  0.00     0.102 A 
ATOM     22  C   UNL d   1      45.031 -15.023  44.830  0.00  0.00     0.100 A 
ATOM     23  N   UNL d   1      45.584 -14.560  44.426  0.00  0.00    -0.301 N 
ATOM     24  C   UNL d   1      46.227 -14.928  44.062  0.00  0.00     0.100 A 
ATOM     25  O   UNL d   1      45.276 -17.458  44.953  0.00  0.00    -0.266 OA
BRANCH  23  26
ATOM     26  C   UNL d   1      45.494 -13.747  44.391  0.00  0.00     0.064 A 
ATOM     27  C   UNL d   1      45.849 -13.263  44.953  0.00  0.00     0.018 A 
ATOM     28  C   UNL d   1      45.754 -12.443  44.912  0.00  0.00     0.002 A 
ATOM     29  C   UNL d   1      45.305 -12.116  44.311  0.00  0.00     0.000 A 
ATOM     30  C   UNL d   1      44.943 -12.602  43.737  0.00  0.00     0.002 A 
ATOM     31  C   UNL d   1      45.041 -13.416  43.783  0.00  0.00     0.018 A 
ENDBRANCH  23  26
ENDBRANCH  17  18
ENDBRANCH   1  17
TORSDOF 5
ENDMDL
