MODEL 1
REMARK VINA RESULT:      58.7      0.000      0.000
REMARK  4 active torsions:
REMARK  status: ('A' for Active; 'I' for Inactive)
REMARK       I    between atoms: N_2  and  C_1 
REMARK    1  A    between atoms: C_4  and  C_1 
REMARK    2  A    between atoms: C_5  and  N_3 
REMARK    3  A    between atoms: O_21  and  C_8 
REMARK    4  A    between atoms: O_22  and  C_15 
ROOT
ATOM      1  C   UNL d   1     -54.963-102.094 -42.371  0.00  0.00     0.265 C 
ATOM      2  N   UNL d   1     -54.955-101.921 -41.568  0.00  0.00    -0.269 N 
ATOM      3  N   UNL d   1     -54.940-101.579 -39.968  0.00  0.00    -0.301 N 
ATOM      4  C   UNL d   1     -54.939-102.533 -41.024  0.00  0.00     0.102 A 
ATOM      5  C   UNL d   1     -54.964-101.142 -41.321  0.00  0.00     0.102 A 
ATOM      6  C   UNL d   1     -54.957-100.970 -40.518  0.00  0.00     0.100 A 
ATOM      7  C   UNL d   1     -54.931-102.356 -40.216  0.00  0.00     0.100 A 
ATOM      8  O   UNL d   1     -54.953-102.877 -42.626  0.00  0.00    -0.267 OA
ENDROOT
BRANCH   1   9
ATOM      9  C   UNL d   1     -54.979-101.480 -42.922  0.00  0.00     0.059 A 
ATOM     10  C   UNL d   1     -55.256-101.622 -43.689  0.00  0.00     0.031 A 
ATOM     11  C   UNL d   1     -55.275-101.001 -44.251  0.00  0.00     0.116 A 
ATOM     12  C   UNL d   1     -55.017-100.249 -44.041  0.00  0.00     0.116 A 
ATOM     13  C   UNL d   1     -54.736-100.103 -43.265  0.00  0.00     0.026 A 
ATOM     14  C   UNL d   1     -54.715-100.714 -42.701  0.00  0.00     0.007 A 
BRANCH  11  15
ATOM     15  O   UNL d   1     -55.549-101.146 -45.007  0.00  0.00    -0.326 OA
ATOM     16  C   UNL d   1     -55.177-101.703 -45.489  0.00  0.00     0.181 C 
ENDBRANCH  11  15
BRANCH  12  17
ATOM     17  O   UNL d   1     -55.034 -99.636 -44.591  0.00  0.00    -0.326 OA
ATOM     18  C   UNL d   1     -55.121 -98.856 -44.338  0.00  0.00     0.181 C 
ENDBRANCH  12  17
ENDBRANCH   1   9
BRANCH   3  19
ATOM     19  C   UNL d   1     -54.926-101.838 -39.183  0.00  0.00     0.064 A 
ATOM     20  C   UNL d   1     -55.108-101.323 -38.581  0.00  0.00     0.018 A 
ATOM     21  C   UNL d   1     -55.095-101.576 -37.798  0.00  0.00     0.001 A 
ATOM     22  C   UNL d   1     -55.280-101.048 -37.194  0.00  0.00     0.000 C 
ATOM     23  C   UNL d   1     -54.897-102.358 -37.625  0.00  0.00     0.000 A 
ATOM     24  C   UNL d   1     -54.714-102.877 -38.237  0.00  0.00     0.002 A 
ATOM     25  C   UNL d   1     -54.882-102.620 -36.840  0.00  0.00     0.000 C 
ATOM     26  C   UNL d   1     -54.726-102.625 -39.022  0.00  0.00     0.018 A 
ENDBRANCH   3  19
TORSDOF 4
ENDMDL
