MODEL 1
REMARK VINA RESULT:      74.3      0.000      0.000
REMARK  10 active torsions:
REMARK  status: ('A' for Active; 'I' for Inactive)
REMARK    1  A    between atoms: C_10  and  N_1 
REMARK    2  A    between atoms: S_7  and  C_2 
REMARK    3  A    between atoms: C_9  and  C_3 
REMARK       I    between atoms: C_6  and  N_8 
REMARK    4  A    between atoms: C_11  and  C_6 
REMARK    5  A    between atoms: C_15  and  S_7 
REMARK    6  A    between atoms: N_8  and  C_9 
REMARK    7  A    between atoms: C_12  and  C_15 
REMARK    8  A    between atoms: O_21  and  C_12 
REMARK    9  A    between atoms: O_22  and  C_18 
REMARK   10  A    between atoms: C_25  and  O_21 
ROOT
ATOM      1  N   UNL d   1     -49.361  27.620  35.113  0.00  0.00    -0.268 N 
ATOM      2  C   UNL d   1     -49.570  27.262  34.399  0.00  0.00     0.201 A 
ATOM      3  C   UNL d   1     -48.721  28.128  34.952  0.00  0.00     0.190 A 
ATOM      4  N   UNL d   1     -49.065  27.545  33.805  0.00  0.00    -0.121 NA
ATOM      5  N   UNL d   1     -48.545  28.076  34.140  0.00  0.00    -0.126 NA
ENDROOT
BRANCH   3   6
ATOM      6  C   UNL d   1     -48.328  28.604  35.501  0.00  0.00     0.141 C 
BRANCH   6   7
ATOM      7  N   UNL d   1     -48.340  29.354  35.148  0.00  0.00    -0.203 NA
ATOM      8  C   UNL d   1     -47.762  29.909  35.346  0.00  0.00     0.279 C 
ATOM      9  O   UNL d   1     -47.176  29.724  35.890  0.00  0.00    -0.265 OA
BRANCH   8  10
ATOM     10  C   UNL d   1     -47.779  30.654  34.991  0.00  0.00     0.058 A 
ATOM     11  C   UNL d   1     -47.933  30.730  34.190  0.00  0.00     0.007 A 
ATOM     12  C   UNL d   1     -47.951  31.473  33.834  0.00  0.00     0.024 A 
ATOM     13  C   UNL d   1     -47.812  32.145  34.295  0.00  0.00     0.094 A 
ATOM     14  C   UNL d   1     -47.659  32.070  35.096  0.00  0.00     0.024 A 
ATOM     15  C   UNL d   1     -47.641  31.326  35.452  0.00  0.00     0.007 A 
BRANCH  13  16
ATOM     16  O   UNL d   1     -47.830  32.889  33.939  0.00  0.00    -0.328 OA
ATOM     17  C   UNL d   1     -47.160  33.360  33.946  0.00  0.00     0.181 C 
ENDBRANCH  13  16
ENDBRANCH   8  10
ENDBRANCH   6   7
ENDBRANCH   3   6
BRANCH   1  18
ATOM     18  C   UNL d   1     -49.714  27.498  35.835  0.00  0.00     0.067 A 
ATOM     19  C   UNL d   1     -50.308  26.935  35.910  0.00  0.00     0.018 A 
ATOM     20  C   UNL d   1     -50.668  26.811  36.645  0.00  0.00     0.002 A 
ATOM     21  C   UNL d   1     -50.431  27.251  37.301  0.00  0.00     0.000 A 
ATOM     22  C   UNL d   1     -49.836  27.812  37.220  0.00  0.00     0.002 A 
ATOM     23  C   UNL d   1     -49.481  27.935  36.494  0.00  0.00     0.018 A 
ENDBRANCH   1  18
BRANCH   2  24
ATOM     24  S   UNL d   1     -50.179  26.712  34.291  0.00  0.00    -0.042 SA
BRANCH  24  25
ATOM     25  C   UNL d   1     -50.429  26.509  33.531  0.00  0.00     0.107 C 
BRANCH  25  26
ATOM     26  C   UNL d   1     -51.085  26.024  33.437  0.00  0.00     0.307 C 
ATOM     27  O   UNL d   1     -51.823  26.349  33.312  0.00  0.00    -0.258 OA
BRANCH  26  28
ATOM     28  O   UNL d   1     -50.993  25.204  33.470  0.00  0.00    -0.271 OA
BRANCH  28  29
ATOM     29  C   UNL d   1     -51.627  24.734  33.694  0.00  0.00     0.126 C 
ATOM     30  C   UNL d   1     -51.755  24.014  33.312  0.00  0.00     0.029 C 
ENDBRANCH  28  29
ENDBRANCH  26  28
ENDBRANCH  25  26
ENDBRANCH  24  25
ENDBRANCH   2  24
TORSDOF 10
ENDMDL
MODEL 2
REMARK VINA RESULT:      76.7      1.674      2.737
REMARK  10 active torsions:
REMARK  status: ('A' for Active; 'I' for Inactive)
REMARK    1  A    between atoms: C_10  and  N_1 
REMARK    2  A    between atoms: S_7  and  C_2 
REMARK    3  A    between atoms: C_9  and  C_3 
REMARK       I    between atoms: C_6  and  N_8 
REMARK    4  A    between atoms: C_11  and  C_6 
REMARK    5  A    between atoms: C_15  and  S_7 
REMARK    6  A    between atoms: N_8  and  C_9 
REMARK    7  A    between atoms: C_12  and  C_15 
REMARK    8  A    between atoms: O_21  and  C_12 
REMARK    9  A    between atoms: O_22  and  C_18 
REMARK   10  A    between atoms: C_25  and  O_21 
ROOT
ATOM      1  N   UNL d   1     -50.020  27.177  35.383  0.00  0.00    -0.268 N 
ATOM      2  C   UNL d   1     -50.352  27.112  36.136  0.00  0.00     0.201 A 
ATOM      3  C   UNL d   1     -49.328  27.632  35.459  0.00  0.00     0.190 A 
ATOM      4  N   UNL d   1     -49.869  27.523  36.671  0.00  0.00    -0.121 NA
ATOM      5  N   UNL d   1     -49.242  27.842  36.259  0.00  0.00    -0.126 NA
ENDROOT
BRANCH   3   6
ATOM      6  C   UNL d   1     -48.813  27.841  34.847  0.00  0.00     0.141 C 
BRANCH   6   7
ATOM      7  N   UNL d   1     -48.651  28.640  34.998  0.00  0.00    -0.203 NA
ATOM      8  C   UNL d   1     -47.877  28.921  34.929  0.00  0.00     0.279 C 
ATOM      9  O   UNL d   1     -47.269  28.415  34.712  0.00  0.00    -0.265 OA
BRANCH   8  10
ATOM     10  C   UNL d   1     -47.723  29.717  35.081  0.00  0.00     0.058 A 
ATOM     11  C   UNL d   1     -47.291  29.939  35.741  0.00  0.00     0.007 A 
ATOM     12  C   UNL d   1     -47.136  30.735  35.893  0.00  0.00     0.024 A 
ATOM     13  C   UNL d   1     -47.423  31.309  35.372  0.00  0.00     0.094 A 
ATOM     14  C   UNL d   1     -47.855  31.087  34.713  0.00  0.00     0.024 A 
ATOM     15  C   UNL d   1     -48.010  30.291  34.560  0.00  0.00     0.007 A 
BRANCH  13  16
ATOM     16  O   UNL d   1     -47.268  32.105  35.524  0.00  0.00    -0.328 OA
ATOM     17  C   UNL d   1     -47.319  32.653  34.918  0.00  0.00     0.181 C 
ENDBRANCH  13  16
ENDBRANCH   8  10
ENDBRANCH   6   7
ENDBRANCH   3   6
BRANCH   1  18
ATOM     18  C   UNL d   1     -50.317  26.854  34.697  0.00  0.00     0.067 A 
ATOM     19  C   UNL d   1     -50.001  26.154  34.404  0.00  0.00     0.018 A 
ATOM     20  C   UNL d   1     -50.302  25.827  33.706  0.00  0.00     0.002 A 
ATOM     21  C   UNL d   1     -50.918  26.201  33.306  0.00  0.00     0.000 A 
ATOM     22  C   UNL d   1     -51.230  26.901  33.603  0.00  0.00     0.002 A 
ATOM     23  C   UNL d   1     -50.932  27.225  34.293  0.00  0.00     0.018 A 
ENDBRANCH   1  18
BRANCH   2  24
ATOM     24  S   UNL d   1     -51.047  26.707  36.329  0.00  0.00    -0.042 SA
BRANCH  24  25
ATOM     25  C   UNL d   1     -51.296  26.655  37.114  0.00  0.00     0.107 C 
BRANCH  25  26
ATOM     26  C   UNL d   1     -51.940  26.181  37.304  0.00  0.00     0.307 C 
ATOM     27  O   UNL d   1     -52.541  26.067  36.762  0.00  0.00    -0.258 OA
BRANCH  26  28
ATOM     28  O   UNL d   1     -51.975  25.821  38.045  0.00  0.00    -0.271 OA
BRANCH  28  29
ATOM     29  C   UNL d   1     -52.658  25.426  38.271  0.00  0.00     0.126 C 
ATOM     30  C   UNL d   1     -52.631  24.891  38.898  0.00  0.00     0.029 C 
ENDBRANCH  28  29
ENDBRANCH  26  28
ENDBRANCH  25  26
ENDBRANCH  24  25
ENDBRANCH   2  24
TORSDOF 10
ENDMDL
