MODEL 1
REMARK VINA RESULT:      62.0      0.000      0.000
REMARK  3 active torsions:
REMARK  status: ('A' for Active; 'I' for Inactive)
REMARK    1  A    between atoms: C_5  and  C_1 
REMARK    2  A    between atoms: N_8  and  C_5 
REMARK    3  A    between atoms: C_10  and  C_5 
ROOT
ATOM      1  C   UNL d   1     -58.045 -99.203 -44.323  0.00  0.00     0.067 C 
ENDROOT
BRANCH   1   2
ATOM      2  C   UNL d   1     -57.267 -99.481 -44.384  0.00  0.00     0.057 A 
ATOM      3  C   UNL d   1     -57.101-100.262 -44.187  0.00  0.00     0.214 A 
ATOM      4  C   UNL d   1     -56.325-100.536 -44.248  0.00  0.00     0.121 A 
ATOM      5  O   UNL d   1     -57.692-100.772 -43.931  0.00  0.00    -0.285 OA
ATOM      6  N   UNL d   1     -56.157-101.320 -44.050  0.00  0.00    -0.241 NA
ATOM      7  C   UNL d   1     -55.718-100.028 -44.506  0.00  0.00     0.032 A 
ATOM      8  C   UNL d   1     -55.386-101.589 -44.112  0.00  0.00     0.099 A 
ATOM      9  C   UNL d   1     -54.779-101.080 -44.370  0.00  0.00     0.021 A 
ATOM     10  C   UNL d   1     -54.954-100.313 -44.562  0.00  0.00     0.004 A 
ATOM     11  C   UNL d   1     -55.889 -99.247 -44.702  0.00  0.00     0.059 A 
ATOM     12  C   UNL d   1     -56.660 -98.972 -44.642  0.00  0.00     0.016 A 
ATOM     13 CL   UNL d   1     -55.285 -98.757 -44.954  0.00  0.00    -0.082 Cl
ENDBRANCH   1   2
BRANCH   1  14
ATOM     14  N   UNL d   1     -58.368 -99.036 -43.587  0.00  0.00    -0.304 N 
ATOM     15  C   UNL d   1     -59.185 -98.981 -43.499  0.00  0.00     0.080 A 
ATOM     16  C   UNL d   1     -59.518 -98.815 -42.771  0.00  0.00     0.021 A 
ATOM     17  C   UNL d   1     -58.199 -98.755 -42.193  0.00  0.00     0.021 A 
ATOM     18  C   UNL d   1     -57.874 -98.923 -42.932  0.00  0.00     0.080 A 
ENDBRANCH   1  14
BRANCH   1  19
ATOM     19  C   UNL d   1     -58.504 -99.094 -45.014  0.00  0.00     0.016 A 
ATOM     20  C   UNL d   1     -58.146 -98.889 -45.718  0.00  0.00     0.002 A 
ATOM     21  C   UNL d   1     -58.591 -98.781 -46.398  0.00  0.00     0.011 A 
ATOM     22  C   UNL d   1     -59.417 -98.880 -46.368  0.00  0.00     0.058 A 
ATOM     23  C   UNL d   1     -59.783 -99.088 -45.652  0.00  0.00     0.011 A 
ATOM     24 CL   UNL d   1     -59.870 -98.774 -47.039  0.00  0.00    -0.082 Cl
ATOM     25  C   UNL d   1     -59.317 -99.194 -44.974  0.00  0.00     0.002 A 
ENDBRANCH   1  19
TORSDOF 3
ENDMDL
