MODEL 1
REMARK VINA RESULT:      -5.6      0.000      0.000
REMARK  5 active torsions:
REMARK  status: ('A' for Active; 'I' for Inactive)
REMARK    1  A    between atoms: N_4  and  C_1 
REMARK    2  A    between atoms: S_3  and  C_9 
REMARK       I    between atoms: C_6  and  N_4 
REMARK    3  A    between atoms: C_11  and  C_5 
REMARK    4  A    between atoms: C_10  and  C_6 
REMARK    5  A    between atoms: O_25  and  C_22 
ROOT
ATOM      1  C   UNL d   1      57.807  -0.313  30.478  0.00  0.00     0.197 A 
ATOM      2  N   UNL d   1      58.339  -0.939  30.390  0.00  0.00    -0.221 NA
ATOM      3  C   UNL d   1      58.633  -0.924  29.626  0.00  0.00     0.090 A 
ATOM      4  S   UNL d   1      57.780   0.082  29.764  0.00  0.00    -0.046 SA
ATOM      5  C   UNL d   1      58.295  -0.303  29.239  0.00  0.00     0.058 A 
ENDROOT
BRANCH   1   6
ATOM      6  N   UNL d   1      57.349  -0.056  31.113  0.00  0.00    -0.183 NA
ATOM      7  C   UNL d   1      56.973  -0.606  31.600  0.00  0.00     0.281 C 
ATOM      8  O   UNL d   1      57.058  -1.404  31.449  0.00  0.00    -0.265 OA
BRANCH   7   9
ATOM      9  C   UNL d   1      56.515  -0.349  32.235  0.00  0.00     0.058 A 
ATOM     10  C   UNL d   1      55.965  -0.853  32.578  0.00  0.00     0.005 A 
ATOM     11  C   UNL d   1      55.507  -0.596  33.213  0.00  0.00     0.011 A 
ATOM     12  C   UNL d   1      55.599   0.165  33.506  0.00  0.00     0.084 A 
ATOM     13  C   UNL d   1      56.151   0.673  33.164  0.00  0.00     0.011 A 
ATOM     14  C   UNL d   1      56.609   0.416  32.529  0.00  0.00     0.005 A 
BRANCH  12  15
ATOM     15  S   UNL d   1      55.140   0.423  34.142  0.00  0.00     0.191 S 
ATOM     16  O   UNL d   1      54.462   0.357  33.679  0.00  0.00    -0.222 OA
ATOM     17  O   UNL d   1      55.820   0.489  34.605  0.00  0.00    -0.222 OA
ATOM     18  C   UNL d   1      54.682   0.680  34.777  0.00  0.00     0.145 C 
ENDBRANCH  12  15
ENDBRANCH   7   9
ENDBRANCH   1   6
BRANCH   3  19
ATOM     19  C   UNL d   1      59.181  -1.471  29.339  0.00  0.00     0.018 A 
ATOM     20  C   UNL d   1      58.906  -2.199  29.034  0.00  0.00     0.004 A 
ATOM     21  C   UNL d   1      59.455  -2.746  28.747  0.00  0.00     0.024 A 
ATOM     22  C   UNL d   1      60.272  -2.582  28.759  0.00  0.00     0.094 A 
ATOM     23  C   UNL d   1      60.535  -1.861  29.062  0.00  0.00     0.024 A 
ATOM     24  C   UNL d   1      59.984  -1.309  29.352  0.00  0.00     0.004 A 
BRANCH  22  25
ATOM     25  O   UNL d   1      60.822  -3.139  28.468  0.00  0.00    -0.328 OA
ATOM     26  C   UNL d   1      61.042  -3.792  28.933  0.00  0.00     0.181 C 
ENDBRANCH  22  25
ENDBRANCH   3  19
TORSDOF 5
ENDMDL
