MODEL 1
REMARK VINA RESULT:      22.9      0.000      0.000
REMARK  5 active torsions:
REMARK  status: ('A' for Active; 'I' for Inactive)
REMARK    1  A    between atoms: S_9  and  C_2 
REMARK    2  A    between atoms: C_7  and  C_18 
REMARK       I    between atoms: N_13  and  C_7 
REMARK    3  A    between atoms: C_18  and  S_9 
REMARK    4  A    between atoms: C_20  and  N_13 
REMARK    5  A    between atoms: C_19  and  C_20 
ROOT
ATOM      1  C   UNL d   1      15.372  12.348  -0.834  0.00  0.00     0.286 C 
ATOM      2  N   UNL d   1      15.593  13.070  -0.493  0.00  0.00    -0.206 NA
ATOM      3  O   UNL d   1      15.947  11.779  -1.008  0.00  0.00    -0.265 OA
ENDROOT
BRANCH   2   4
ATOM      4  C   UNL d   1      15.011  13.652  -0.314  0.00  0.00     0.102 C 
BRANCH   4   5
ATOM      5  C   UNL d   1      15.183  14.464  -0.437  0.00  0.00     0.021 A 
ATOM      6  C   UNL d   1      14.745  14.910  -0.986  0.00  0.00     0.028 A 
ATOM      7  C   UNL d   1      14.926  15.713  -1.097  0.00  0.00     0.119 A 
ATOM      8  O   UNL d   1      14.606  16.284  -1.583  0.00  0.00    -0.300 OA
ATOM      9  C   UNL d   1      15.535  16.060  -0.663  0.00  0.00     0.119 A 
ATOM     10  C   UNL d   1      14.999  16.986  -1.467  0.00  0.00     0.304 A 
ATOM     11  O   UNL d   1      15.588  16.843  -0.883  0.00  0.00    -0.300 OA
ATOM     12  C   UNL d   1      15.961  15.610  -0.123  0.00  0.00     0.026 A 
ATOM     13  C   UNL d   1      15.777  14.805  -0.015  0.00  0.00     0.004 A 
ENDBRANCH   4   5
ENDBRANCH   2   4
BRANCH   1  14
ATOM     14  C   UNL d   1      14.575  12.209  -0.995  0.00  0.00     0.101 C 
BRANCH  14  15
ATOM     15  S   UNL d   1      14.036  12.021  -0.399  0.00  0.00    -0.041 SA
BRANCH  15  16
ATOM     16  C   UNL d   1      14.002  11.955  -1.215  0.00  0.00     0.233 A 
ATOM     17  N   UNL d   1      13.314  11.907  -1.689  0.00  0.00    -0.029 NA
ATOM     18  C   UNL d   1      13.551  11.848  -2.471  0.00  0.00     0.788 A 
ATOM     19  N   UNL d   1      14.366  11.857  -2.499  0.00  0.00     0.050 NA
ATOM     20  N   UNL d   1      13.045  11.787  -3.129  0.00  0.00     0.064 N 
ATOM     21  N   UNL d   1      14.661  11.923  -1.736  0.00  0.00    -0.105 NA
ENDBRANCH  15  16
ENDBRANCH  14  15
ENDBRANCH   1  14
TORSDOF 5
ENDMDL
