MODEL 1
REMARK VINA RESULT:      -5.9      0.000      0.000
REMARK  4 active torsions:
REMARK  status: ('A' for Active; 'I' for Inactive)
REMARK    1  A    between atoms: O_7  and  C_2 
REMARK    2  A    between atoms: C_13  and  C_3 
REMARK    3  A    between atoms: C_11  and  O_7 
REMARK    4  A    between atoms: O_25  and  C_20 
ROOT
ATOM      1  C   UNL d   1     -38.528  13.101  18.531  0.00  0.00     0.066 A 
ATOM      2  C   UNL d   1     -38.599  13.551  19.213  0.00  0.00     0.186 A 
ATOM      3  C   UNL d   1     -38.725  13.245  17.721  0.00  0.00     0.012 A 
ATOM      4  C   UNL d   1     -38.522  12.590  17.311  0.00  0.00     0.037 A 
ATOM      5  C   UNL d   1     -38.201  12.336  18.577  0.00  0.00     0.116 A 
ATOM      6  S   UNL d   1     -38.195  12.009  17.806  0.00  0.00    -0.067 SA
ATOM      7  N   UNL d   1     -38.346  13.237  19.932  0.00  0.00    -0.200 NA
ATOM      8  N   UNL d   1     -37.947  12.022  19.297  0.00  0.00    -0.217 NA
ATOM      9  C   UNL d   1     -38.021  12.473  19.970  0.00  0.00     0.201 A 
ENDROOT
BRANCH   2  10
ATOM     10  O   UNL d   1     -38.927  14.322  19.178  0.00  0.00    -0.288 OA
BRANCH  10  11
ATOM     11  C   UNL d   1     -38.848  14.861  19.830  0.00  0.00     0.119 A 
ATOM     12  C   UNL d   1     -39.488  15.128  20.277  0.00  0.00     0.104 A 
ATOM     13  N   UNL d   1     -40.264  14.857  20.083  0.00  0.00    -0.244 NA
ATOM     14  C   UNL d   1     -39.377  15.649  20.901  0.00  0.00     0.020 A 
ATOM     15  C   UNL d   1     -40.903  15.124  20.530  0.00  0.00     0.082 A 
ATOM     16  C   UNL d   1     -41.706  14.868  20.359  0.00  0.00     0.021 C 
ATOM     17  C   UNL d   1     -40.793  15.645  21.154  0.00  0.00     0.019 A 
ATOM     18  C   UNL d   1     -40.040  15.916  21.352  0.00  0.00     0.003 A 
ATOM     19  C   UNL d   1     -38.624  15.920  21.099  0.00  0.00     0.002 A 
ATOM     20  C   UNL d   1     -37.985  15.653  20.652  0.00  0.00     0.002 A 
ATOM     21  C   UNL d   1     -38.095  15.132  20.028  0.00  0.00     0.026 A 
ENDBRANCH  10  11
ENDBRANCH   2  10
BRANCH   3  22
ATOM     22  C   UNL d   1     -39.063  13.926  17.407  0.00  0.00     0.001 A 
ATOM     23  C   UNL d   1     -38.607  14.587  17.194  0.00  0.00     0.002 A 
ATOM     24  C   UNL d   1     -38.972  15.256  16.881  0.00  0.00     0.024 A 
ATOM     25  C   UNL d   1     -39.806  15.261  16.780  0.00  0.00     0.094 A 
ATOM     26  C   UNL d   1     -40.257  14.591  16.996  0.00  0.00     0.024 A 
ATOM     27  C   UNL d   1     -39.891  13.922  17.310  0.00  0.00     0.002 A 
BRANCH  25  28
ATOM     28  O   UNL d   1     -40.237  15.921  16.463  0.00  0.00    -0.328 OA
ATOM     29  C   UNL d   1     -41.036  15.828  16.280  0.00  0.00     0.181 C 
ENDBRANCH  25  28
ENDBRANCH   3  22
TORSDOF 4
ENDMDL
MODEL 2
REMARK VINA RESULT:      -5.7      1.817      4.046
REMARK  4 active torsions:
REMARK  status: ('A' for Active; 'I' for Inactive)
REMARK    1  A    between atoms: O_7  and  C_2 
REMARK    2  A    between atoms: C_13  and  C_3 
REMARK    3  A    between atoms: C_11  and  O_7 
REMARK    4  A    between atoms: O_25  and  C_20 
ROOT
ATOM      1  C   UNL d   1     -39.326  15.218  21.117  0.00  0.00     0.066 A 
ATOM      2  C   UNL d   1     -39.188  15.113  20.315  0.00  0.00     0.186 A 
ATOM      3  C   UNL d   1     -39.961  14.991  21.628  0.00  0.00     0.012 A 
ATOM      4  C   UNL d   1     -39.777  15.253  22.361  0.00  0.00     0.037 A 
ATOM      5  C   UNL d   1     -38.765  15.623  21.580  0.00  0.00     0.116 A 
ATOM      6  S   UNL d   1     -39.046  15.648  22.368  0.00  0.00    -0.067 SA
ATOM      7  N   UNL d   1     -38.495  15.411  19.983  0.00  0.00    -0.200 NA
ATOM      8  N   UNL d   1     -38.071  15.922  21.247  0.00  0.00    -0.217 NA
ATOM      9  C   UNL d   1     -37.940  15.815  20.451  0.00  0.00     0.201 A 
ENDROOT
BRANCH   2  10
ATOM     10  O   UNL d   1     -39.747  14.706  19.840  0.00  0.00    -0.288 OA
BRANCH  10  11
ATOM     11  C   UNL d   1     -39.519  14.355  19.101  0.00  0.00     0.119 A 
ATOM     12  C   UNL d   1     -39.866  14.554  18.379  0.00  0.00     0.104 A 
ATOM     13  N   UNL d   1     -40.479  15.136  18.366  0.00  0.00    -0.244 NA
ATOM     14  C   UNL d   1     -39.623  14.197  17.682  0.00  0.00     0.020 A 
ATOM     15  C   UNL d   1     -40.825  15.334  17.645  0.00  0.00     0.082 A 
ATOM     16  C   UNL d   1     -41.451  15.922  17.597  0.00  0.00     0.021 C 
ATOM     17  C   UNL d   1     -40.582  14.977  16.948  0.00  0.00     0.019 A 
ATOM     18  C   UNL d   1     -39.985  14.409  16.949  0.00  0.00     0.003 A 
ATOM     19  C   UNL d   1     -39.025  13.628  17.683  0.00  0.00     0.002 A 
ATOM     20  C   UNL d   1     -38.679  13.430  18.405  0.00  0.00     0.002 A 
ATOM     21  C   UNL d   1     -38.922  13.787  19.102  0.00  0.00     0.026 A 
ENDBRANCH  10  11
ENDBRANCH   2  10
BRANCH   3  22
ATOM     22  C   UNL d   1     -40.641  14.578  21.421  0.00  0.00     0.001 A 
ATOM     23  C   UNL d   1     -41.329  14.964  21.159  0.00  0.00     0.002 A 
ATOM     24  C   UNL d   1     -41.997  14.526  20.957  0.00  0.00     0.024 A 
ATOM     25  C   UNL d   1     -41.974  13.688  21.019  0.00  0.00     0.094 A 
ATOM     26  C   UNL d   1     -41.277  13.308  21.284  0.00  0.00     0.024 A 
ATOM     27  C   UNL d   1     -40.609  13.747  21.485  0.00  0.00     0.002 A 
BRANCH  25  28
ATOM     28  O   UNL d   1     -42.630  13.184  20.826  0.00  0.00    -0.328 OA
ATOM     29  C   UNL d   1     -43.018  12.781  21.432  0.00  0.00     0.181 C 
ENDBRANCH  25  28
ENDBRANCH   3  22
TORSDOF 4
ENDMDL
MODEL 3
REMARK VINA RESULT:      -4.8      1.518      3.120
REMARK  4 active torsions:
REMARK  status: ('A' for Active; 'I' for Inactive)
REMARK    1  A    between atoms: O_7  and  C_2 
REMARK    2  A    between atoms: C_13  and  C_3 
REMARK    3  A    between atoms: C_11  and  O_7 
REMARK    4  A    between atoms: O_25  and  C_20 
ROOT
ATOM      1  C   UNL d   1     -40.495  14.903  17.597  0.00  0.00     0.066 A 
ATOM      2  C   UNL d   1     -40.702  14.899  18.390  0.00  0.00     0.186 A 
ATOM      3  C   UNL d   1     -39.924  14.470  17.146  0.00  0.00     0.012 A 
ATOM      4  C   UNL d   1     -39.983  14.721  16.390  0.00  0.00     0.037 A 
ATOM      5  C   UNL d   1     -40.889  15.417  17.072  0.00  0.00     0.116 A 
ATOM      6  S   UNL d   1     -40.569  15.305  16.307  0.00  0.00    -0.067 SA
ATOM      7  N   UNL d   1     -41.298  15.403  18.654  0.00  0.00    -0.200 NA
ATOM      8  N   UNL d   1     -41.486  15.922  17.337  0.00  0.00    -0.217 NA
ATOM      9  C   UNL d   1     -41.688  15.913  18.126  0.00  0.00     0.201 A 
ENDROOT
BRANCH   2  10
ATOM     10  O   UNL d   1     -40.311  14.385  18.926  0.00  0.00    -0.288 OA
BRANCH  10  11
ATOM     11  C   UNL d   1     -40.567  14.319  19.733  0.00  0.00     0.119 A 
ATOM     12  C   UNL d   1     -40.159  14.656  20.367  0.00  0.00     0.104 A 
ATOM     13  N   UNL d   1     -39.450  15.090  20.213  0.00  0.00    -0.244 NA
ATOM     14  C   UNL d   1     -40.432  14.574  21.135  0.00  0.00     0.020 A 
ATOM     15  C   UNL d   1     -39.043  15.426  20.846  0.00  0.00     0.082 A 
ATOM     16  C   UNL d   1     -38.318  15.873  20.724  0.00  0.00     0.021 C 
ATOM     17  C   UNL d   1     -39.316  15.344  21.615  0.00  0.00     0.019 A 
ATOM     18  C   UNL d   1     -40.006  14.923  21.776  0.00  0.00     0.003 A 
ATOM     19  C   UNL d   1     -41.123  14.153  21.297  0.00  0.00     0.002 A 
ATOM     20  C   UNL d   1     -41.531  13.816  20.664  0.00  0.00     0.002 A 
ATOM     21  C   UNL d   1     -41.257  13.898  19.895  0.00  0.00     0.026 A 
ENDBRANCH  10  11
ENDBRANCH   2  10
BRANCH   3  22
ATOM     22  C   UNL d   1     -39.403  13.898  17.426  0.00  0.00     0.001 A 
ATOM     23  C   UNL d   1     -38.623  14.082  17.646  0.00  0.00     0.002 A 
ATOM     24  C   UNL d   1     -38.122  13.489  17.923  0.00  0.00     0.024 A 
ATOM     25  C   UNL d   1     -38.409  12.700  17.978  0.00  0.00     0.094 A 
ATOM     26  C   UNL d   1     -39.195  12.525  17.754  0.00  0.00     0.024 A 
ATOM     27  C   UNL d   1     -39.696  13.119  17.477  0.00  0.00     0.002 A 
BRANCH  25  28
ATOM     28  O   UNL d   1     -37.940  12.048  18.255  0.00  0.00    -0.328 OA
ATOM     29  C   UNL d   1     -38.086  11.294  17.955  0.00  0.00     0.181 C 
ENDBRANCH  25  28
ENDBRANCH   3  22
TORSDOF 4
ENDMDL
MODEL 4
REMARK VINA RESULT:      -4.1      8.640     10.362
REMARK  4 active torsions:
REMARK  status: ('A' for Active; 'I' for Inactive)
REMARK    1  A    between atoms: O_7  and  C_2 
REMARK    2  A    between atoms: C_13  and  C_3 
REMARK    3  A    between atoms: C_11  and  O_7 
REMARK    4  A    between atoms: O_25  and  C_20 
ROOT
ATOM      1  C   UNL d   1     -47.667  11.881  23.349  0.00  0.00     0.066 A 
ATOM      2  C   UNL d   1     -48.457  12.057  23.214  0.00  0.00     0.186 A 
ATOM      3  C   UNL d   1     -46.956  12.336  23.295  0.00  0.00     0.012 A 
ATOM      4  C   UNL d   1     -46.353  11.853  23.498  0.00  0.00     0.037 A 
ATOM      5  C   UNL d   1     -47.454  11.112  23.591  0.00  0.00     0.116 A 
ATOM      6  S   UNL d   1     -46.623  11.090  23.687  0.00  0.00    -0.067 SA
ATOM      7  N   UNL d   1     -49.025  11.469  23.320  0.00  0.00    -0.200 NA
ATOM      8  N   UNL d   1     -48.024  10.524  23.698  0.00  0.00    -0.217 NA
ATOM      9  C   UNL d   1     -48.805  10.705  23.562  0.00  0.00     0.201 A 
ENDROOT
BRANCH   2  10
ATOM     10  O   UNL d   1     -48.681  12.827  22.970  0.00  0.00    -0.288 OA
BRANCH  10  11
ATOM     11  C   UNL d   1     -49.313  12.942  22.413  0.00  0.00     0.119 A 
ATOM     12  C   UNL d   1     -49.826  13.588  22.437  0.00  0.00     0.104 A 
ATOM     13  N   UNL d   1     -49.724  14.169  23.042  0.00  0.00    -0.244 NA
ATOM     14  C   UNL d   1     -50.426  13.671  21.884  0.00  0.00     0.020 A 
ATOM     15  C   UNL d   1     -50.237  14.814  23.066  0.00  0.00     0.082 A 
ATOM     16  C   UNL d   1     -50.161  15.423  23.669  0.00  0.00     0.021 C 
ATOM     17  C   UNL d   1     -50.837  14.897  22.513  0.00  0.00     0.019 A 
ATOM     18  C   UNL d   1     -50.945  14.336  21.918  0.00  0.00     0.003 A 
ATOM     19  C   UNL d   1     -50.534  13.109  21.289  0.00  0.00     0.002 A 
ATOM     20  C   UNL d   1     -50.021  12.464  21.265  0.00  0.00     0.002 A 
ATOM     21  C   UNL d   1     -49.421  12.382  21.818  0.00  0.00     0.026 A 
ENDBRANCH  10  11
ENDBRANCH   2  10
BRANCH   3  22
ATOM     22  C   UNL d   1     -46.889  13.126  23.077  0.00  0.00     0.001 A 
ATOM     23  C   UNL d   1     -46.953  13.744  23.630  0.00  0.00     0.002 A 
ATOM     24  C   UNL d   1     -46.882  14.527  23.383  0.00  0.00     0.024 A 
ATOM     25  C   UNL d   1     -46.745  14.692  22.570  0.00  0.00     0.094 A 
ATOM     26  C   UNL d   1     -46.682  14.064  22.022  0.00  0.00     0.024 A 
ATOM     27  C   UNL d   1     -46.753  13.281  22.269  0.00  0.00     0.002 A 
BRANCH  25  28
ATOM     28  O   UNL d   1     -46.663  15.478  22.258  0.00  0.00    -0.328 OA
ATOM     29  C   UNL d   1     -47.025  15.663  21.540  0.00  0.00     0.181 C 
ENDBRANCH  25  28
ENDBRANCH   3  22
TORSDOF 4
ENDMDL
MODEL 5
REMARK VINA RESULT:      -3.5      8.126     10.323
REMARK  4 active torsions:
REMARK  status: ('A' for Active; 'I' for Inactive)
REMARK    1  A    between atoms: O_7  and  C_2 
REMARK    2  A    between atoms: C_13  and  C_3 
REMARK    3  A    between atoms: C_11  and  O_7 
REMARK    4  A    between atoms: O_25  and  C_20 
ROOT
ATOM      1  C   UNL d   1     -46.804  13.817  22.680  0.00  0.00     0.066 A 
ATOM      2  C   UNL d   1     -47.239  13.121  22.695  0.00  0.00     0.186 A 
ATOM      3  C   UNL d   1     -47.019  14.634  22.721  0.00  0.00     0.012 A 
ATOM      4  C   UNL d   1     -46.341  15.056  22.679  0.00  0.00     0.037 A 
ATOM      5  C   UNL d   1     -45.974  13.779  22.613  0.00  0.00     0.116 A 
ATOM      6  S   UNL d   1     -45.677  14.561  22.612  0.00  0.00    -0.067 SA
ATOM      7  N   UNL d   1     -46.847  12.398  22.643  0.00  0.00    -0.200 NA
ATOM      8  N   UNL d   1     -45.582  13.054  22.561  0.00  0.00    -0.217 NA
ATOM      9  C   UNL d   1     -46.020  12.368  22.577  0.00  0.00     0.201 A 
ENDROOT
BRANCH   2  10
ATOM     10  O   UNL d   1     -48.075  13.149  22.762  0.00  0.00    -0.288 OA
BRANCH  10  11
ATOM     11  C   UNL d   1     -48.524  12.445  22.922  0.00  0.00     0.119 A 
ATOM     12  C   UNL d   1     -49.209  12.241  22.510  0.00  0.00     0.104 A 
ATOM     13  N   UNL d   1     -49.485  12.752  21.897  0.00  0.00    -0.244 NA
ATOM     14  C   UNL d   1     -49.619  11.554  22.689  0.00  0.00     0.020 A 
ATOM     15  C   UNL d   1     -50.169  12.548  21.485  0.00  0.00     0.082 A 
ATOM     16  C   UNL d   1     -50.477  13.047  20.855  0.00  0.00     0.021 C 
ATOM     17  C   UNL d   1     -50.580  11.861  21.664  0.00  0.00     0.019 A 
ATOM     18  C   UNL d   1     -50.320  11.355  22.260  0.00  0.00     0.003 A 
ATOM     19  C   UNL d   1     -49.358  11.047  23.286  0.00  0.00     0.002 A 
ATOM     20  C   UNL d   1     -48.674  11.252  23.698  0.00  0.00     0.002 A 
ATOM     21  C   UNL d   1     -48.264  11.939  23.519  0.00  0.00     0.026 A 
ENDBRANCH  10  11
ENDBRANCH   2  10
BRANCH   3  22
ATOM     22  C   UNL d   1     -47.777  14.944  22.790  0.00  0.00     0.001 A 
ATOM     23  C   UNL d   1     -48.185  14.955  23.513  0.00  0.00     0.002 A 
ATOM     24  C   UNL d   1     -48.945  15.272  23.554  0.00  0.00     0.024 A 
ATOM     25  C   UNL d   1     -49.299  15.583  22.858  0.00  0.00     0.094 A 
ATOM     26  C   UNL d   1     -48.881  15.567  22.134  0.00  0.00     0.024 A 
ATOM     27  C   UNL d   1     -48.121  15.249  22.094  0.00  0.00     0.002 A 
BRANCH  25  28
ATOM     28  O   UNL d   1     -50.078  15.922  22.838  0.00  0.00    -0.328 OA
ATOM     29  C   UNL d   1     -50.597  15.770  23.461  0.00  0.00     0.181 C 
ENDBRANCH  25  28
ENDBRANCH   3  22
TORSDOF 4
ENDMDL
MODEL 6
REMARK VINA RESULT:      -3.3      8.533     10.606
REMARK  4 active torsions:
REMARK  status: ('A' for Active; 'I' for Inactive)
REMARK    1  A    between atoms: O_7  and  C_2 
REMARK    2  A    between atoms: C_13  and  C_3 
REMARK    3  A    between atoms: C_11  and  O_7 
REMARK    4  A    between atoms: O_25  and  C_20 
ROOT
ATOM      1  C   UNL d   1     -48.309  11.948  23.372  0.00  0.00     0.066 A 
ATOM      2  C   UNL d   1     -48.955  12.437  23.242  0.00  0.00     0.186 A 
ATOM      3  C   UNL d   1     -47.474  12.069  23.326  0.00  0.00     0.012 A 
ATOM      4  C   UNL d   1     -47.125  11.376  23.519  0.00  0.00     0.037 A 
ATOM      5  C   UNL d   1     -48.435  11.156  23.599  0.00  0.00     0.116 A 
ATOM      6  S   UNL d   1     -47.687  10.790  23.693  0.00  0.00    -0.067 SA
ATOM      7  N   UNL d   1     -49.716  12.135  23.338  0.00  0.00    -0.200 NA
ATOM      8  N   UNL d   1     -49.197  10.854  23.696  0.00  0.00    -0.217 NA
ATOM      9  C   UNL d   1     -49.833  11.344  23.565  0.00  0.00     0.201 A 
ENDROOT
BRANCH   2  10
ATOM     10  O   UNL d   1     -48.839  13.236  23.013  0.00  0.00    -0.288 OA
BRANCH  10  11
ATOM     11  C   UNL d   1     -49.488  13.784  22.997  0.00  0.00     0.119 A 
ATOM     12  C   UNL d   1     -49.958  13.911  22.331  0.00  0.00     0.104 A 
ATOM     13  N   UNL d   1     -49.790  13.478  21.624  0.00  0.00    -0.244 NA
ATOM     14  C   UNL d   1     -50.578  14.447  22.348  0.00  0.00     0.020 A 
ATOM     15  C   UNL d   1     -50.259  13.605  20.958  0.00  0.00     0.082 A 
ATOM     16  C   UNL d   1     -50.116  13.181  20.224  0.00  0.00     0.021 C 
ATOM     17  C   UNL d   1     -50.879  14.142  20.975  0.00  0.00     0.019 A 
ATOM     18  C   UNL d   1     -51.052  14.569  21.659  0.00  0.00     0.003 A 
ATOM     19  C   UNL d   1     -50.750  14.875  23.032  0.00  0.00     0.002 A 
ATOM     20  C   UNL d   1     -50.281  14.747  23.698  0.00  0.00     0.002 A 
ATOM     21  C   UNL d   1     -49.661  14.211  23.681  0.00  0.00     0.026 A 
ENDBRANCH  10  11
ENDBRANCH   2  10
BRANCH   3  22
ATOM     22  C   UNL d   1     -47.085  12.765  23.123  0.00  0.00     0.001 A 
ATOM     23  C   UNL d   1     -46.923  13.359  23.681  0.00  0.00     0.002 A 
ATOM     24  C   UNL d   1     -46.531  14.046  23.450  0.00  0.00     0.024 A 
ATOM     25  C   UNL d   1     -46.299  14.138  22.647  0.00  0.00     0.094 A 
ATOM     26  C   UNL d   1     -46.466  13.535  22.092  0.00  0.00     0.024 A 
ATOM     27  C   UNL d   1     -46.858  12.847  22.325  0.00  0.00     0.002 A 
BRANCH  25  28
ATOM     28  O   UNL d   1     -45.894  14.823  22.350  0.00  0.00    -0.328 OA
ATOM     29  C   UNL d   1     -46.308  15.532  22.273  0.00  0.00     0.181 C 
ENDBRANCH  25  28
ENDBRANCH   3  22
TORSDOF 4
ENDMDL
MODEL 7
REMARK VINA RESULT:      -3.0      8.480     10.634
REMARK  4 active torsions:
REMARK  status: ('A' for Active; 'I' for Inactive)
REMARK    1  A    between atoms: O_7  and  C_2 
REMARK    2  A    between atoms: C_13  and  C_3 
REMARK    3  A    between atoms: C_11  and  O_7 
REMARK    4  A    between atoms: O_25  and  C_20 
ROOT
ATOM      1  C   UNL d   1     -49.764  14.647  22.907  0.00  0.00     0.066 A 
ATOM      2  C   UNL d   1     -48.949  14.675  22.992  0.00  0.00     0.186 A 
ATOM      3  C   UNL d   1     -50.289  14.091  22.543  0.00  0.00     0.012 A 
ATOM      4  C   UNL d   1     -51.031  14.371  22.641  0.00  0.00     0.037 A 
ATOM      5  C   UNL d   1     -50.231  15.262  23.221  0.00  0.00     0.116 A 
ATOM      6  S   UNL d   1     -51.033  15.092  23.055  0.00  0.00    -0.067 SA
ATOM      7  N   UNL d   1     -48.606  15.312  23.387  0.00  0.00    -0.200 NA
ATOM      8  N   UNL d   1     -49.886  15.900  23.617  0.00  0.00    -0.217 NA
ATOM      9  C   UNL d   1     -49.077  15.921  23.698  0.00  0.00     0.201 A 
ENDROOT
BRANCH   2  10
ATOM     10  O   UNL d   1     -48.471  14.060  22.679  0.00  0.00    -0.288 OA
BRANCH  10  11
ATOM     11  C   UNL d   1     -47.631  14.157  22.602  0.00  0.00     0.119 A 
ATOM     12  C   UNL d   1     -47.086  13.579  22.824  0.00  0.00     0.104 A 
ATOM     13  N   UNL d   1     -47.370  12.851  23.145  0.00  0.00    -0.244 NA
ATOM     14  C   UNL d   1     -46.280  13.703  22.737  0.00  0.00     0.020 A 
ATOM     15  C   UNL d   1     -46.825  12.273  23.367  0.00  0.00     0.082 A 
ATOM     16  C   UNL d   1     -47.081  11.521  23.697  0.00  0.00     0.021 C 
ATOM     17  C   UNL d   1     -46.019  12.398  23.280  0.00  0.00     0.019 A 
ATOM     18  C   UNL d   1     -45.731  13.104  22.967  0.00  0.00     0.003 A 
ATOM     19  C   UNL d   1     -45.992  14.411  22.424  0.00  0.00     0.002 A 
ATOM     20  C   UNL d   1     -46.536  14.988  22.202  0.00  0.00     0.002 A 
ATOM     21  C   UNL d   1     -47.342  14.864  22.290  0.00  0.00     0.026 A 
ENDBRANCH  10  11
ENDBRANCH   2  10
BRANCH   3  22
ATOM     22  C   UNL d   1     -50.083  13.394  22.160  0.00  0.00     0.001 A 
ATOM     23  C   UNL d   1     -49.749  13.390  21.399  0.00  0.00     0.002 A 
ATOM     24  C   UNL d   1     -49.552  12.676  21.038  0.00  0.00     0.024 A 
ATOM     25  C   UNL d   1     -49.693  11.955  21.447  0.00  0.00     0.094 A 
ATOM     26  C   UNL d   1     -50.030  11.968  22.213  0.00  0.00     0.024 A 
ATOM     27  C   UNL d   1     -50.226  12.683  22.573  0.00  0.00     0.002 A 
BRANCH  25  28
ATOM     28  O   UNL d   1     -49.511  11.189  21.127  0.00  0.00    -0.328 OA
ATOM     29  C   UNL d   1     -48.728  11.008  20.942  0.00  0.00     0.181 C 
ENDBRANCH  25  28
ENDBRANCH   3  22
TORSDOF 4
ENDMDL
