MODEL 1
REMARK VINA RESULT:      41.1      0.000      0.000
REMARK  3 active torsions:
REMARK  status: ('A' for Active; 'I' for Inactive)
REMARK    1  A    between atoms: C_16  and  N_3 
REMARK    2  A    between atoms: C_10  and  C_5 
REMARK    3  A    between atoms: C_26  and  C_16 
ROOT
ATOM      1  C   UNL d   1      46.068 -17.664  43.346  0.00  0.00     0.083 A 
ATOM      2  C   UNL d   1      46.218 -17.797  44.145  0.00  0.00     0.161 A 
ATOM      3  N   UNL d   1      46.375 -18.962  43.504  0.00  0.00    -0.268 N 
ATOM      4  C   UNL d   1      46.408 -18.599  44.248  0.00  0.00     0.288 A 
ATOM      5  C   UNL d   1      46.164 -18.383  42.946  0.00  0.00     0.072 A 
ATOM      6  C   UNL d   1      45.865 -16.912  43.079  0.00  0.00     0.201 A 
ATOM      7  O   UNL d   1      46.163 -17.168  44.685  0.00  0.00    -0.302 OA
ATOM      8  C   UNL d   1      45.811 -16.289  43.618  0.00  0.00     0.062 A 
ATOM      9  C   UNL d   1      45.960 -16.418  44.417  0.00  0.00     0.103 A 
ATOM     10  O   UNL d   1      46.595 -18.967  44.955  0.00  0.00    -0.264 OA
ATOM     11  O   UNL d   1      45.715 -16.777  42.281  0.00  0.00    -0.286 OA
ATOM     12  C   UNL d   1      45.606 -15.532  43.352  0.00  0.00     0.012 A 
ATOM     13  C   UNL d   1      45.903 -15.784  44.955  0.00  0.00     0.025 A 
ATOM     14  C   UNL d   1      45.551 -14.908  43.884  0.00  0.00     0.035 A 
ATOM     15  C   UNL d   1      45.700 -15.034  44.687  0.00  0.00     0.009 A 
ATOM     16 BR   UNL d   1      45.348 -14.160  43.620  0.00  0.00    -0.049 Br
ENDROOT
BRANCH   5  17
ATOM     17  C   UNL d   1      46.015 -18.253  42.147  0.00  0.00     0.019 A 
ATOM     18  C   UNL d   1      45.239 -18.194  41.868  0.00  0.00     0.031 A 
ATOM     19  C   UNL d   1      45.094 -18.065  41.070  0.00  0.00     0.140 A 
ATOM     20  F   UNL d   1      44.319 -18.007  40.799  0.00  0.00    -0.204 F 
ATOM     21  C   UNL d   1      45.727 -17.992  40.535  0.00  0.00     0.030 A 
ATOM     22  C   UNL d   1      46.505 -18.052  40.814  0.00  0.00     0.002 A 
ATOM     23  C   UNL d   1      46.646 -18.183  41.622  0.00  0.00     0.002 A 
ENDBRANCH   5  17
BRANCH   3  24
ATOM     24  C   UNL d   1      46.523 -19.756  43.344  0.00  0.00     0.129 C 
BRANCH  24  25
ATOM     25  C   UNL d   1      45.987 -20.330  43.590  0.00  0.00     0.253 C 
ATOM     26  O   UNL d   1      45.640 -20.277  44.334  0.00  0.00    -0.281 OA
ENDBRANCH  24  25
ENDBRANCH   3  24
TORSDOF 3
ENDMDL
