MODEL 1
REMARK VINA RESULT:      -4.7      0.000      0.000
REMARK  3 active torsions:
REMARK  status: ('A' for Active; 'I' for Inactive)
REMARK    1  A    between atoms: N_2  and  S_1 
REMARK    2  A    between atoms: C_3  and  S_1 
REMARK    3  A    between atoms: C_5  and  N_4 
ROOT
ATOM      1  N   UNL d   1      57.229  -0.251  31.573  0.00  0.00    -0.226 N 
ATOM      2  N   UNL d   1      56.198   0.059  32.811  0.00  0.00    -0.301 N 
ATOM      3  C   UNL d   1      56.850  -0.871  31.958  0.00  0.00     0.111 A 
ATOM      4  C   UNL d   1      57.091   0.525  31.809  0.00  0.00     0.111 A 
ATOM      5  C   UNL d   1      56.331  -0.715  32.580  0.00  0.00     0.100 A 
ATOM      6  C   UNL d   1      56.573   0.680  32.432  0.00  0.00     0.100 A 
ENDROOT
BRANCH   1   7
ATOM      7  S   UNL d   1      57.748  -0.406  30.950  0.00  0.00     0.271 S 
ATOM      8  O   UNL d   1      58.108   0.326  31.067  0.00  0.00    -0.200 OA
ATOM      9  O   UNL d   1      57.388  -1.139  30.833  0.00  0.00    -0.200 OA
BRANCH   7  10
ATOM     10  C   UNL d   1      58.266  -0.562  30.327  0.00  0.00     0.104 A 
ATOM     11  C   UNL d   1      58.341  -1.327  30.033  0.00  0.00     0.015 A 
ATOM     12  C   UNL d   1      58.859  -1.483  29.411  0.00  0.00     0.028 A 
ATOM     13  C   UNL d   1      58.932  -2.253  29.118  0.00  0.00     0.002 C 
ATOM     14  C   UNL d   1      59.303  -0.874  29.082  0.00  0.00     0.140 A 
ATOM     15  C   UNL d   1      59.229  -0.109  29.375  0.00  0.00     0.030 A 
ATOM     16  F   UNL d   1      59.822  -1.029  28.460  0.00  0.00    -0.204 F 
ATOM     17  C   UNL d   1      58.711   0.047  29.998  0.00  0.00     0.015 A 
ENDBRANCH   7  10
ENDBRANCH   1   7
BRANCH   2  18
ATOM     18  C   UNL d   1      55.680   0.215  33.434  0.00  0.00     0.064 A 
ATOM     19  C   UNL d   1      55.968   0.498  34.150  0.00  0.00     0.016 A 
ATOM     20  C   UNL d   1      55.450   0.654  34.773  0.00  0.00     0.001 A 
ATOM     21  C   UNL d   1      56.780   0.628  34.246  0.00  0.00     0.002 C 
ATOM     22  C   UNL d   1      54.642   0.526  34.679  0.00  0.00     0.000 A 
ATOM     23  C   UNL d   1      54.354   0.242  33.963  0.00  0.00     0.002 A 
ATOM     24  C   UNL d   1      54.124   0.682  35.301  0.00  0.00     0.000 C 
ATOM     25  C   UNL d   1      54.872   0.087  33.340  0.00  0.00     0.018 A 
ENDBRANCH   2  18
TORSDOF 3
ENDMDL
MODEL 2
REMARK VINA RESULT:      -4.1      2.100      5.278
REMARK  3 active torsions:
REMARK  status: ('A' for Active; 'I' for Inactive)
REMARK    1  A    between atoms: N_2  and  S_1 
REMARK    2  A    between atoms: C_3  and  S_1 
REMARK    3  A    between atoms: C_5  and  N_4 
ROOT
ATOM      1  N   UNL d   1      56.829   0.049  32.213  0.00  0.00    -0.226 N 
ATOM      2  N   UNL d   1      57.865  -0.202  30.965  0.00  0.00    -0.301 N 
ATOM      3  C   UNL d   1      56.938  -0.709  31.914  0.00  0.00     0.111 A 
ATOM      4  C   UNL d   1      57.240   0.682  31.885  0.00  0.00     0.111 A 
ATOM      5  C   UNL d   1      57.459  -0.836  31.287  0.00  0.00     0.100 A 
ATOM      6  C   UNL d   1      57.761   0.555  31.258  0.00  0.00     0.100 A 
ENDROOT
BRANCH   1   7
ATOM      7  S   UNL d   1      56.308   0.176  32.840  0.00  0.00     0.271 S 
ATOM      8  O   UNL d   1      56.777  -0.299  33.325  0.00  0.00    -0.200 OA
ATOM      9  O   UNL d   1      55.839   0.651  32.355  0.00  0.00    -0.200 OA
BRANCH   7  10
ATOM     10  C   UNL d   1      55.787   0.302  33.467  0.00  0.00     0.104 A 
ATOM     11  C   UNL d   1      56.076   0.393  34.232  0.00  0.00     0.015 A 
ATOM     12  C   UNL d   1      55.555   0.519  34.859  0.00  0.00     0.028 A 
ATOM     13  C   UNL d   1      55.849   0.610  35.627  0.00  0.00     0.002 C 
ATOM     14  C   UNL d   1      54.745   0.555  34.721  0.00  0.00     0.140 A 
ATOM     15  C   UNL d   1      54.455   0.465  33.957  0.00  0.00     0.030 A 
ATOM     16  F   UNL d   1      54.224   0.682  35.348  0.00  0.00    -0.204 F 
ATOM     17  C   UNL d   1      54.976   0.339  33.329  0.00  0.00     0.015 A 
ENDBRANCH   7  10
ENDBRANCH   1   7
BRANCH   2  18
ATOM     18  C   UNL d   1      58.386  -0.329  30.338  0.00  0.00     0.064 A 
ATOM     19  C   UNL d   1      59.143  -0.007  30.359  0.00  0.00     0.016 A 
ATOM     20  C   UNL d   1      59.664  -0.133  29.732  0.00  0.00     0.001 A 
ATOM     21  C   UNL d   1      59.382   0.444  31.010  0.00  0.00     0.002 C 
ATOM     22  C   UNL d   1      59.428  -0.582  29.083  0.00  0.00     0.000 A 
ATOM     23  C   UNL d   1      58.671  -0.904  29.062  0.00  0.00     0.002 A 
ATOM     24  C   UNL d   1      59.949  -0.708  28.457  0.00  0.00     0.000 C 
ATOM     25  C   UNL d   1      58.150  -0.777  29.689  0.00  0.00     0.018 A 
ENDBRANCH   2  18
TORSDOF 3
ENDMDL
