MODEL 1
REMARK VINA RESULT:      -4.1      0.000      0.000
REMARK  4 active torsions:
REMARK  status: ('A' for Active; 'I' for Inactive)
REMARK    1  A    between atoms: N_2  and  S_1 
REMARK    2  A    between atoms: C_7  and  S_1 
REMARK    3  A    between atoms: S_9  and  C_3 
REMARK    4  A    between atoms: C_13  and  S_9 
ROOT
ATOM      1  S   UNL d   1      59.476  -9.033  35.333  0.00  0.00     0.273 S 
ATOM      2  O   UNL d   1      59.294  -9.792  35.079  0.00  0.00    -0.200 OA
ATOM      3  O   UNL d   1      58.923  -9.317  35.882  0.00  0.00    -0.200 OA
ENDROOT
BRANCH   1   4
ATOM      4  N   UNL d   1      59.992  -8.980  34.684  0.00  0.00    -0.208 N 
ATOM      5  C   UNL d   1      59.807  -9.183  33.896  0.00  0.00     0.189 A 
ATOM      6  N   UNL d   1      60.479  -9.046  33.429  0.00  0.00    -0.219 NA
ATOM      7  C   UNL d   1      61.078  -8.758  33.929  0.00  0.00     0.121 A 
ATOM      8  C   UNL d   1      60.783  -8.716  34.701  0.00  0.00     0.114 A 
BRANCH   5   9
ATOM      9  S   UNL d   1      59.074  -9.474  33.627  0.00  0.00    -0.049 SA
BRANCH   9  10
ATOM     10  C   UNL d   1      59.004  -9.756  32.852  0.00  0.00     0.038 C 
ATOM     11  C   UNL d   1      58.264  -9.762  32.485  0.00  0.00     0.008 C 
ENDBRANCH   9  10
ENDBRANCH   5   9
ENDBRANCH   1   4
BRANCH   1  12
ATOM     12  C   UNL d   1      59.648  -8.270  35.604  0.00  0.00     0.104 A 
ATOM     13  C   UNL d   1      60.319  -8.146  36.061  0.00  0.00     0.013 A 
ATOM     14  C   UNL d   1      60.489  -7.386  36.330  0.00  0.00     0.001 A 
ATOM     15  C   UNL d   1      59.989  -6.758  36.140  0.00  0.00     0.000 A 
ATOM     16  C   UNL d   1      59.320  -6.888  35.682  0.00  0.00     0.001 A 
ATOM     17  C   UNL d   1      59.150  -7.654  35.413  0.00  0.00     0.013 A 
ENDBRANCH   1  12
TORSDOF 4
ENDMDL
MODEL 2
REMARK VINA RESULT:      -4.0      9.207      9.604
REMARK  4 active torsions:
REMARK  status: ('A' for Active; 'I' for Inactive)
REMARK    1  A    between atoms: N_2  and  S_1 
REMARK    2  A    between atoms: C_7  and  S_1 
REMARK    3  A    between atoms: S_9  and  C_3 
REMARK    4  A    between atoms: C_13  and  S_9 
ROOT
ATOM      1  S   UNL d   1      56.254  -0.679  32.850  0.00  0.00     0.273 S 
ATOM      2  O   UNL d   1      56.748  -1.144  32.389  0.00  0.00    -0.200 OA
ATOM      3  O   UNL d   1      55.796  -1.338  32.641  0.00  0.00    -0.200 OA
ENDROOT
BRANCH   1   4
ATOM      4  N   UNL d   1      56.885  -0.143  32.920  0.00  0.00    -0.208 N 
ATOM      5  C   UNL d   1      57.332   0.169  32.289  0.00  0.00     0.189 A 
ATOM      6  N   UNL d   1      57.905   0.679  32.606  0.00  0.00    -0.219 NA
ATOM      7  C   UNL d   1      57.810   0.682  33.431  0.00  0.00     0.121 A 
ATOM      8  C   UNL d   1      57.185   0.178  33.630  0.00  0.00     0.114 A 
BRANCH   5   9
ATOM      9  S   UNL d   1      57.223  -0.004  31.482  0.00  0.00    -0.049 SA
BRANCH   9  10
ATOM     10  C   UNL d   1      57.588   0.467  30.907  0.00  0.00     0.038 C 
ATOM     11  C   UNL d   1      57.698   0.169  30.145  0.00  0.00     0.008 C 
ENDBRANCH   9  10
ENDBRANCH   5   9
ENDBRANCH   1   4
BRANCH   1  12
ATOM     12  C   UNL d   1      55.741  -0.222  33.313  0.00  0.00     0.104 A 
ATOM     13  C   UNL d   1      55.826  -0.225  34.130  0.00  0.00     0.013 A 
ATOM     14  C   UNL d   1      55.316   0.229  34.590  0.00  0.00     0.001 A 
ATOM     15  C   UNL d   1      54.727   0.682  34.231  0.00  0.00     0.000 A 
ATOM     16  C   UNL d   1      54.646   0.681  33.414  0.00  0.00     0.001 A 
ATOM     17  C   UNL d   1      55.161   0.222  32.953  0.00  0.00     0.013 A 
ENDBRANCH   1  12
TORSDOF 4
ENDMDL
MODEL 3
REMARK VINA RESULT:      -3.3      8.977      9.806
REMARK  4 active torsions:
REMARK  status: ('A' for Active; 'I' for Inactive)
REMARK    1  A    between atoms: N_2  and  S_1 
REMARK    2  A    between atoms: C_7  and  S_1 
REMARK    3  A    between atoms: S_9  and  C_3 
REMARK    4  A    between atoms: C_13  and  S_9 
ROOT
ATOM      1  S   UNL d   1      56.245  -0.738  32.771  0.00  0.00     0.273 S 
ATOM      2  O   UNL d   1      55.839  -1.143  33.357  0.00  0.00    -0.200 OA
ATOM      3  O   UNL d   1      55.892  -1.380  32.384  0.00  0.00    -0.200 OA
ENDROOT
BRANCH   1   4
ATOM      4  N   UNL d   1      56.482  -0.201  33.360  0.00  0.00    -0.208 N 
ATOM      5  C   UNL d   1      55.976   0.202  33.885  0.00  0.00     0.189 A 
ATOM      6  N   UNL d   1      56.441   0.681  34.378  0.00  0.00    -0.219 NA
ATOM      7  C   UNL d   1      57.235   0.573  34.156  0.00  0.00     0.121 A 
ATOM      8  C   UNL d   1      57.265   0.032  33.530  0.00  0.00     0.114 A 
BRANCH   5   9
ATOM      9  S   UNL d   1      55.145   0.135  33.910  0.00  0.00    -0.049 SA
BRANCH   9  10
ATOM     10  C   UNL d   1      54.723   0.483  34.530  0.00  0.00     0.038 C 
ATOM     11  C   UNL d   1      53.928   0.681  34.423  0.00  0.00     0.008 C 
ENDBRANCH   9  10
ENDBRANCH   5   9
ENDBRANCH   1   4
BRANCH   1  12
ATOM     12  C   UNL d   1      56.649  -0.341  32.167  0.00  0.00     0.104 A 
ATOM     13  C   UNL d   1      56.283   0.284  31.780  0.00  0.00     0.013 A 
ATOM     14  C   UNL d   1      56.686   0.678  31.179  0.00  0.00     0.001 A 
ATOM     15  C   UNL d   1      57.450   0.444  30.971  0.00  0.00     0.000 A 
ATOM     16  C   UNL d   1      57.811  -0.182  31.361  0.00  0.00     0.001 A 
ATOM     17  C   UNL d   1      57.403  -0.577  31.966  0.00  0.00     0.013 A 
ENDBRANCH   1  12
TORSDOF 4
ENDMDL
MODEL 4
REMARK VINA RESULT:      -2.6      9.193      9.746
REMARK  4 active torsions:
REMARK  status: ('A' for Active; 'I' for Inactive)
REMARK    1  A    between atoms: N_2  and  S_1 
REMARK    2  A    between atoms: C_7  and  S_1 
REMARK    3  A    between atoms: S_9  and  C_3 
REMARK    4  A    between atoms: C_13  and  S_9 
ROOT
ATOM      1  S   UNL d   1      56.948   0.353  31.195  0.00  0.00     0.273 S 
ATOM      2  O   UNL d   1      57.169   0.682  30.477  0.00  0.00    -0.200 OA
ATOM      3  O   UNL d   1      56.246   0.405  30.758  0.00  0.00    -0.200 OA
ENDROOT
BRANCH   1   4
ATOM      4  N   UNL d   1      57.747   0.403  31.420  0.00  0.00    -0.208 N 
ATOM      5  C   UNL d   1      58.400   0.183  30.952  0.00  0.00     0.189 A 
ATOM      6  N   UNL d   1      59.091   0.323  31.390  0.00  0.00    -0.219 NA
ATOM      7  C   UNL d   1      58.863   0.630  32.127  0.00  0.00     0.121 A 
ATOM      8  C   UNL d   1      58.038   0.681  32.152  0.00  0.00     0.114 A 
BRANCH   5   9
ATOM      9  S   UNL d   1      58.364  -0.125  30.178  0.00  0.00    -0.049 SA
BRANCH   9  10
ATOM     10  C   UNL d   1      59.059  -0.210  29.737  0.00  0.00     0.038 C 
ATOM     11  C   UNL d   1      59.094  -0.773  29.134  0.00  0.00     0.008 C 
ENDBRANCH   9  10
ENDBRANCH   5   9
ENDBRANCH   1   4
BRANCH   1  12
ATOM     12  C   UNL d   1      56.708   0.020  31.914  0.00  0.00     0.104 A 
ATOM     13  C   UNL d   1      56.525   0.512  32.546  0.00  0.00     0.013 A 
ATOM     14  C   UNL d   1      56.287   0.180  33.261  0.00  0.00     0.001 A 
ATOM     15  C   UNL d   1      56.233  -0.640  33.338  0.00  0.00     0.000 A 
ATOM     16  C   UNL d   1      56.417  -1.128  32.704  0.00  0.00     0.001 A 
ATOM     17  C   UNL d   1      56.657  -0.791  31.985  0.00  0.00     0.013 A 
ENDBRANCH   1  12
TORSDOF 4
ENDMDL
MODEL 5
REMARK VINA RESULT:      -2.1      9.190      9.790
REMARK  4 active torsions:
REMARK  status: ('A' for Active; 'I' for Inactive)
REMARK    1  A    between atoms: N_2  and  S_1 
REMARK    2  A    between atoms: C_7  and  S_1 
REMARK    3  A    between atoms: S_9  and  C_3 
REMARK    4  A    between atoms: C_13  and  S_9 
ROOT
ATOM      1  S   UNL d   1      57.342  -0.745  31.289  0.00  0.00     0.273 S 
ATOM      2  O   UNL d   1      56.948  -1.153  31.882  0.00  0.00    -0.200 OA
ATOM      3  O   UNL d   1      57.010  -1.404  30.912  0.00  0.00    -0.200 OA
ENDROOT
BRANCH   1   4
ATOM      4  N   UNL d   1      57.561  -0.191  31.869  0.00  0.00    -0.208 N 
ATOM      5  C   UNL d   1      57.070   0.100  32.477  0.00  0.00     0.189 A 
ATOM      6  N   UNL d   1      57.510   0.640  32.928  0.00  0.00    -0.219 NA
ATOM      7  C   UNL d   1      58.271   0.682  32.599  0.00  0.00     0.121 A 
ATOM      8  C   UNL d   1      58.308   0.173  31.947  0.00  0.00     0.114 A 
BRANCH   5   9
ATOM      9  S   UNL d   1      56.276  -0.115  32.606  0.00  0.00    -0.049 SA
BRANCH   9  10
ATOM     10  C   UNL d   1      55.873   0.179  33.267  0.00  0.00     0.038 C 
ATOM     11  C   UNL d   1      55.066   0.025  33.355  0.00  0.00     0.008 C 
ENDBRANCH   9  10
ENDBRANCH   5   9
ENDBRANCH   1   4
BRANCH   1  12
ATOM     12  C   UNL d   1      57.734  -0.345  30.679  0.00  0.00     0.104 A 
ATOM     13  C   UNL d   1      58.487  -0.587  30.458  0.00  0.00     0.013 A 
ATOM     14  C   UNL d   1      58.877  -0.189  29.851  0.00  0.00     0.001 A 
ATOM     15  C   UNL d   1      58.511   0.445  29.470  0.00  0.00     0.000 A 
ATOM     16  C   UNL d   1      57.757   0.682  29.695  0.00  0.00     0.001 A 
ATOM     17  C   UNL d   1      57.367   0.280  30.307  0.00  0.00     0.013 A 
ENDBRANCH   1  12
TORSDOF 4
ENDMDL
MODEL 6
REMARK VINA RESULT:      -1.7      1.370      1.825
REMARK  4 active torsions:
REMARK  status: ('A' for Active; 'I' for Inactive)
REMARK    1  A    between atoms: N_2  and  S_1 
REMARK    2  A    between atoms: C_7  and  S_1 
REMARK    3  A    between atoms: S_9  and  C_3 
REMARK    4  A    between atoms: C_13  and  S_9 
ROOT
ATOM      1  S   UNL d   1      60.318  -9.439  34.277  0.00  0.00     0.273 S 
ATOM      2  O   UNL d   1      60.669  -9.818  33.639  0.00  0.00    -0.200 OA
ATOM      3  O   UNL d   1      61.132  -9.418  34.434  0.00  0.00    -0.200 OA
ENDROOT
BRANCH   1   4
ATOM      4  N   UNL d   1      59.586  -9.582  33.911  0.00  0.00    -0.208 N 
ATOM      5  C   UNL d   1      59.462  -9.687  33.093  0.00  0.00     0.189 A 
ATOM      6  N   UNL d   1      58.651  -9.815  32.969  0.00  0.00    -0.219 NA
ATOM      7  C   UNL d   1      58.276  -9.788  33.710  0.00  0.00     0.121 A 
ATOM      8  C   UNL d   1      58.847  -9.646  34.292  0.00  0.00     0.114 A 
BRANCH   5   9
ATOM      9  S   UNL d   1      60.050  -9.667  32.504  0.00  0.00    -0.049 SA
BRANCH   9  10
ATOM     10  C   UNL d   1      59.848  -9.813  31.715  0.00  0.00     0.038 C 
ATOM     11  C   UNL d   1      60.410  -9.699  31.120  0.00  0.00     0.008 C 
ENDBRANCH   9  10
ENDBRANCH   5   9
ENDBRANCH   1   4
BRANCH   1  12
ATOM     12  C   UNL d   1      59.982  -9.054  34.928  0.00  0.00     0.104 A 
ATOM     13  C   UNL d   1      59.701  -9.499  35.559  0.00  0.00     0.013 A 
ATOM     14  C   UNL d   1      59.366  -9.116  36.206  0.00  0.00     0.001 A 
ATOM     15  C   UNL d   1      59.314  -8.292  36.218  0.00  0.00     0.000 A 
ATOM     16  C   UNL d   1      59.596  -7.852  35.584  0.00  0.00     0.001 A 
ATOM     17  C   UNL d   1      59.933  -8.241  34.933  0.00  0.00     0.013 A 
ENDBRANCH   1  12
TORSDOF 4
ENDMDL
