MODEL 1
REMARK VINA RESULT:      -4.9      0.000      0.000
REMARK  5 active torsions:
REMARK  status: ('A' for Active; 'I' for Inactive)
REMARK    1  A    between atoms: C_3  and  S_1 
REMARK    2  A    between atoms: C_7  and  S_1 
REMARK    3  A    between atoms: C_2  and  C_3 
REMARK    4  A    between atoms: C_9  and  C_3 
REMARK    5  A    between atoms: N_8  and  C_4 
ROOT
ATOM      1  C   UNL d   1     -48.470  12.904  22.181  0.00  0.00     0.128 A 
ATOM      2  C   UNL d   1     -48.439  12.351  22.783  0.00  0.00     0.166 A 
ATOM      3  N   UNL d   1     -47.794  13.334  21.971  0.00  0.00    -0.240 NA
ATOM      4  N   UNL d   1     -47.725  12.219  23.189  0.00  0.00    -0.225 NA
ATOM      5  C   UNL d   1     -47.090  13.200  22.375  0.00  0.00     0.099 A 
ATOM      6  C   UNL d   1     -47.056  12.648  22.978  0.00  0.00     0.101 A 
ATOM      7  C   UNL d   1     -46.341  12.523  23.377  0.00  0.00     0.021 A 
ATOM      8  C   UNL d   1     -46.422  13.629  22.164  0.00  0.00     0.021 A 
ATOM      9  C   UNL d   1     -45.672  12.946  23.172  0.00  0.00     0.002 A 
ATOM     10  C   UNL d   1     -45.715  13.499  22.565  0.00  0.00     0.002 A 
ENDROOT
BRANCH   1  11
ATOM     11  C   UNL d   1     -49.173  13.038  21.778  0.00  0.00     0.129 C 
BRANCH  11  12
ATOM     12  S   UNL d   1     -49.413  13.886  21.611  0.00  0.00     0.213 S 
ATOM     13  O   UNL d   1     -49.175  14.230  20.831  0.00  0.00    -0.217 OA
ATOM     14  O   UNL d   1     -48.998  13.626  20.937  0.00  0.00    -0.217 OA
BRANCH  12  15
ATOM     15  C   UNL d   1     -49.833  14.446  22.055  0.00  0.00     0.088 A 
ATOM     16  C   UNL d   1     -50.637  14.580  21.886  0.00  0.00     0.011 A 
ATOM     17  C   UNL d   1     -51.064  15.140  22.326  0.00  0.00     0.001 A 
ATOM     18  C   UNL d   1     -51.008  14.161  21.285  0.00  0.00     0.001 C 
ATOM     19  C   UNL d   1     -50.684  15.561  22.933  0.00  0.00     0.000 A 
ATOM     20  C   UNL d   1     -49.880  15.422  23.097  0.00  0.00     0.001 A 
ATOM     21  C   UNL d   1     -49.461  14.865  22.656  0.00  0.00     0.011 A 
ATOM     22  C   UNL d   1     -49.509  15.841  23.698  0.00  0.00     0.000 C 
ENDBRANCH  12  15
ENDBRANCH  11  12
BRANCH  11  23
ATOM     23  C   UNL d   1     -49.750  12.473  21.470  0.00  0.00     0.135 C 
ATOM     24  N   UNL d   1     -49.863  12.211  20.623  0.00  0.00    -0.146 N 
ENDBRANCH  11  23
ENDBRANCH   1  11
BRANCH   2  25
ATOM     25  N   UNL d   1     -49.120  11.919  22.993  0.00  0.00    -0.284 N 
ATOM     26  C   UNL d   1     -49.228  11.144  22.706  0.00  0.00     0.108 A 
ATOM     27  C   UNL d   1     -49.907  10.719  22.917  0.00  0.00     0.142 A 
ATOM     28  O   UNL d   1     -50.481  11.056  23.411  0.00  0.00    -0.300 OA
ATOM     29  C   UNL d   1     -50.374  11.832  23.698  0.00  0.00     0.142 A 
ATOM     30  C   UNL d   1     -49.692  12.272  23.492  0.00  0.00     0.108 A 
ENDBRANCH   2  25
TORSDOF 5
ENDMDL
MODEL 2
REMARK VINA RESULT:      -3.0      7.400      9.771
REMARK  5 active torsions:
REMARK  status: ('A' for Active; 'I' for Inactive)
REMARK    1  A    between atoms: C_3  and  S_1 
REMARK    2  A    between atoms: C_7  and  S_1 
REMARK    3  A    between atoms: C_2  and  C_3 
REMARK    4  A    between atoms: C_9  and  C_3 
REMARK    5  A    between atoms: N_8  and  C_4 
ROOT
ATOM      1  C   UNL d   1     -39.956  15.112  20.748  0.00  0.00     0.128 A 
ATOM      2  C   UNL d   1     -40.326  14.651  21.314  0.00  0.00     0.166 A 
ATOM      3  N   UNL d   1     -39.271  15.539  20.937  0.00  0.00    -0.240 NA
ATOM      4  N   UNL d   1     -40.013  14.610  22.084  0.00  0.00    -0.225 NA
ATOM      5  C   UNL d   1     -38.967  15.495  21.699  0.00  0.00     0.099 A 
ATOM      6  C   UNL d   1     -39.334  15.035  22.267  0.00  0.00     0.101 A 
ATOM      7  C   UNL d   1     -39.017  14.999  23.032  0.00  0.00     0.021 A 
ATOM      8  C   UNL d   1     -38.288  15.920  21.882  0.00  0.00     0.021 A 
ATOM      9  C   UNL d   1     -38.342  15.419  23.220  0.00  0.00     0.002 A 
ATOM     10  C   UNL d   1     -37.979  15.879  22.644  0.00  0.00     0.002 A 
ENDROOT
BRANCH   1  11
ATOM     11  C   UNL d   1     -40.260  15.156  19.986  0.00  0.00     0.129 C 
BRANCH  11  12
ATOM     12  S   UNL d   1     -39.686  15.127  19.296  0.00  0.00     0.213 S 
ATOM     13  O   UNL d   1     -39.300  15.887  19.058  0.00  0.00    -0.217 OA
ATOM     14  O   UNL d   1     -39.705  15.921  19.550  0.00  0.00    -0.217 OA
BRANCH  12  15
ATOM     15  C   UNL d   1     -39.428  14.509  18.809  0.00  0.00     0.088 A 
ATOM     16  C   UNL d   1     -39.703  14.467  18.025  0.00  0.00     0.011 A 
ATOM     17  C   UNL d   1     -39.449  13.850  17.530  0.00  0.00     0.001 A 
ATOM     18  C   UNL d   1     -40.224  15.034  17.738  0.00  0.00     0.001 C 
ATOM     19  C   UNL d   1     -38.922  13.279  17.824  0.00  0.00     0.000 A 
ATOM     20  C   UNL d   1     -38.651  13.327  18.610  0.00  0.00     0.001 A 
ATOM     21  C   UNL d   1     -38.908  13.942  19.096  0.00  0.00     0.011 A 
ATOM     22  C   UNL d   1     -38.130  12.760  18.896  0.00  0.00     0.000 C 
ENDBRANCH  12  15
ENDBRANCH  11  12
BRANCH  11  23
ATOM     23  C   UNL d   1     -41.078  15.230  19.721  0.00  0.00     0.135 C 
ATOM     24  N   UNL d   1     -41.453  15.911  19.279  0.00  0.00    -0.146 N 
ENDBRANCH  11  23
ENDBRANCH   1  11
BRANCH   2  25
ATOM     25  N   UNL d   1     -41.014  14.223  21.122  0.00  0.00    -0.284 N 
ATOM     26  C   UNL d   1     -41.743  14.619  21.040  0.00  0.00     0.108 A 
ATOM     27  C   UNL d   1     -42.424  14.187  20.849  0.00  0.00     0.142 A 
ATOM     28  O   UNL d   1     -42.390  13.367  20.738  0.00  0.00    -0.300 OA
ATOM     29  C   UNL d   1     -41.660  12.970  20.820  0.00  0.00     0.142 A 
ATOM     30  C   UNL d   1     -40.964  13.395  21.013  0.00  0.00     0.108 A 
ENDBRANCH   2  25
TORSDOF 5
ENDMDL
MODEL 3
REMARK VINA RESULT:      -2.4      8.900     10.513
REMARK  5 active torsions:
REMARK  status: ('A' for Active; 'I' for Inactive)
REMARK    1  A    between atoms: C_3  and  S_1 
REMARK    2  A    between atoms: C_7  and  S_1 
REMARK    3  A    between atoms: C_2  and  C_3 
REMARK    4  A    between atoms: C_9  and  C_3 
REMARK    5  A    between atoms: N_8  and  C_4 
ROOT
ATOM      1  C   UNL d   1     -39.344  13.931  18.572  0.00  0.00     0.128 A 
ATOM      2  C   UNL d   1     -39.476  13.958  17.765  0.00  0.00     0.166 A 
ATOM      3  N   UNL d   1     -38.926  13.300  18.909  0.00  0.00    -0.240 NA
ATOM      4  N   UNL d   1     -39.187  13.348  17.278  0.00  0.00    -0.225 NA
ATOM      5  C   UNL d   1     -38.643  12.701  18.423  0.00  0.00     0.099 A 
ATOM      6  C   UNL d   1     -38.772  12.724  17.616  0.00  0.00     0.101 A 
ATOM      7  C   UNL d   1     -38.482  12.113  17.137  0.00  0.00     0.021 A 
ATOM      8  C   UNL d   1     -38.228  12.077  18.761  0.00  0.00     0.021 A 
ATOM      9  C   UNL d   1     -38.069  11.490  17.466  0.00  0.00     0.002 A 
ATOM     10  C   UNL d   1     -37.943  11.474  18.279  0.00  0.00     0.002 A 
ENDROOT
BRANCH   1  11
ATOM     11  C   UNL d   1     -39.627  14.531  19.057  0.00  0.00     0.129 C 
BRANCH  11  12
ATOM     12  S   UNL d   1     -40.041  14.302  19.820  0.00  0.00     0.213 S 
ATOM     13  O   UNL d   1     -40.817  13.882  19.750  0.00  0.00    -0.217 OA
ATOM     14  O   UNL d   1     -40.533  14.039  19.200  0.00  0.00    -0.217 OA
BRANCH  12  15
ATOM     15  C   UNL d   1     -39.841  14.404  20.618  0.00  0.00     0.088 A 
ATOM     16  C   UNL d   1     -40.346  14.849  21.109  0.00  0.00     0.011 A 
ATOM     17  C   UNL d   1     -40.153  14.956  21.910  0.00  0.00     0.001 A 
ATOM     18  C   UNL d   1     -41.033  15.181  20.805  0.00  0.00     0.001 C 
ATOM     19  C   UNL d   1     -39.457  14.619  22.213  0.00  0.00     0.000 A 
ATOM     20  C   UNL d   1     -38.958  14.176  21.716  0.00  0.00     0.001 A 
ATOM     21  C   UNL d   1     -39.155  14.073  20.921  0.00  0.00     0.011 A 
ATOM     22  C   UNL d   1     -38.271  13.844  22.020  0.00  0.00     0.000 C 
ENDBRANCH  12  15
ENDBRANCH  11  12
BRANCH  11  23
ATOM     23  C   UNL d   1     -39.592  15.387  18.955  0.00  0.00     0.135 C 
ATOM     24  N   UNL d   1     -38.864  15.905  18.898  0.00  0.00    -0.146 N 
ENDBRANCH  11  23
ENDBRANCH   1  11
BRANCH   2  25
ATOM     25  N   UNL d   1     -39.897  14.593  17.429  0.00  0.00    -0.284 N 
ATOM     26  C   UNL d   1     -39.487  15.262  17.145  0.00  0.00     0.108 A 
ATOM     27  C   UNL d   1     -39.911  15.891  16.812  0.00  0.00     0.142 A 
ATOM     28  O   UNL d   1     -40.738  15.863  16.756  0.00  0.00    -0.300 OA
ATOM     29  C   UNL d   1     -41.147  15.194  17.040  0.00  0.00     0.142 A 
ATOM     30  C   UNL d   1     -40.731  14.552  17.379  0.00  0.00     0.108 A 
ENDBRANCH   2  25
TORSDOF 5
ENDMDL
