MODEL 1
REMARK VINA RESULT:      12.7      0.000      0.000
REMARK  2 active torsions:
REMARK  status: ('A' for Active; 'I' for Inactive)
REMARK    1  A    between atoms: C_5  and  N_2 
REMARK    2  A    between atoms: C_4  and  C_5 
ROOT
ATOM      1  C   UNL d   1     -58.906 -98.764 -44.650  0.00  0.00     0.206 A 
ATOM      2  N   UNL d   1     -58.101 -98.781 -44.453  0.00  0.00    -0.279 N 
ATOM      3  N   UNL d   1     -59.342 -98.755 -43.939  0.00  0.00    -0.215 NA
ATOM      4  C   UNL d   1     -58.803 -98.767 -43.316  0.00  0.00     0.120 A 
ATOM      5  C   UNL d   1     -58.039 -98.783 -43.630  0.00  0.00     0.103 A 
ATOM      6  S   UNL d   1     -59.220 -98.756 -45.415  0.00  0.00    -0.038 SA
ENDROOT
BRANCH   2   7
ATOM      7  C   UNL d   1     -57.466 -98.794 -44.989  0.00  0.00     0.089 C 
BRANCH   7   8
ATOM      8  C   UNL d   1     -56.695 -98.782 -44.712  0.00  0.00     0.047 A 
ATOM      9  S   UNL d   1     -56.466 -98.787 -43.924  0.00  0.00    -0.085 SA
ATOM     10  C   UNL d   1     -55.641 -98.771 -43.891  0.00  0.00     0.035 A 
ATOM     11  C   UNL d   1     -55.363 -98.756 -44.672  0.00  0.00     0.007 A 
ATOM     12  C   UNL d   1     -56.014 -98.763 -45.176  0.00  0.00     0.009 A 
ENDBRANCH   7   8
ENDBRANCH   2   7
TORSDOF 2
ENDMDL
MODEL 2
REMARK VINA RESULT:      15.2      1.592      3.000
REMARK  2 active torsions:
REMARK  status: ('A' for Active; 'I' for Inactive)
REMARK    1  A    between atoms: C_5  and  N_2 
REMARK    2  A    between atoms: C_4  and  C_5 
ROOT
ATOM      1  C   UNL d   1     -55.207 -99.434 -44.389  0.00  0.00     0.206 A 
ATOM      2  N   UNL d   1     -56.027 -99.430 -44.269  0.00  0.00    -0.279 N 
ATOM      3  N   UNL d   1     -54.971-100.227 -44.502  0.00  0.00    -0.215 NA
ATOM      4  C   UNL d   1     -55.645-100.697 -44.450  0.00  0.00     0.120 A 
ATOM      5  C   UNL d   1     -56.296-100.209 -44.306  0.00  0.00     0.103 A 
ATOM      6  S   UNL d   1     -54.711 -98.772 -44.397  0.00  0.00    -0.038 SA
ENDROOT
BRANCH   2   7
ATOM      7  C   UNL d   1     -56.498 -98.758 -44.134  0.00  0.00     0.089 C 
BRANCH   7   8
ATOM      8  C   UNL d   1     -57.299 -98.778 -44.303  0.00  0.00     0.047 A 
ATOM      9  S   UNL d   1     -57.908 -98.800 -43.753  0.00  0.00    -0.085 SA
ATOM     10  C   UNL d   1     -58.626 -98.816 -44.159  0.00  0.00     0.035 A 
ATOM     11  C   UNL d   1     -58.452 -98.804 -44.970  0.00  0.00     0.007 A 
ATOM     12  C   UNL d   1     -57.634 -98.781 -45.056  0.00  0.00     0.009 A 
ENDBRANCH   7   8
ENDBRANCH   2   7
TORSDOF 2
ENDMDL
