MODEL 1
REMARK VINA RESULT:      37.6      0.000      0.000
REMARK  2 active torsions:
REMARK  status: ('A' for Active; 'I' for Inactive)
REMARK       I    between atoms: N_3  and  C_1 
REMARK    1  A    between atoms: C_4  and  C_1 
REMARK    2  A    between atoms: C_10  and  N_3 
ROOT
ATOM      1  C   UNL d   1     -54.774-101.053 -42.111  0.00  0.00     0.279 C 
ATOM      2  N   UNL d   1     -54.763-101.832 -41.835  0.00  0.00    -0.208 NA
ATOM      3  O   UNL d   1     -54.802-100.424 -41.574  0.00  0.00    -0.265 OA
ENDROOT
BRANCH   1   4
ATOM      4  C   UNL d   1     -54.757-100.911 -42.923  0.00  0.00     0.059 A 
ATOM      5  C   UNL d   1     -54.767-100.138 -43.201  0.00  0.00     0.013 A 
ATOM      6  C   UNL d   1     -54.751 -99.984 -44.005  0.00  0.00     0.049 A 
ATOM      7  S   UNL d   1     -54.755 -99.275 -44.438  0.00  0.00    -0.064 SA
ATOM      8  C   UNL d   1     -54.724-100.622 -44.551  0.00  0.00     0.088 A 
ATOM      9  C   UNL d   1     -54.731 -99.483 -45.241  0.00  0.00     0.135 A 
ATOM     10  N   UNL d   1     -54.712-100.300 -45.322  0.00  0.00    -0.236 NA
ATOM     11  C   UNL d   1     -54.714-101.408 -44.283  0.00  0.00     0.020 A 
ATOM     12  C   UNL d   1     -54.731-101.548 -43.470  0.00  0.00     0.006 A 
ENDBRANCH   1   4
BRANCH   2  13
ATOM     13  C   UNL d   1     -54.780-101.971 -40.992  0.00  0.00     0.087 A 
ATOM     14  C   UNL d   1     -54.740-101.341 -40.464  0.00  0.00     0.049 A 
ATOM     15  C   UNL d   1     -54.757-101.480 -39.660  0.00  0.00     0.142 A 
ATOM     16  F   UNL d   1     -54.717-100.849 -39.120  0.00  0.00    -0.204 F 
ATOM     17  C   UNL d   1     -54.815-102.246 -39.380  0.00  0.00     0.030 A 
ATOM     18  C   UNL d   1     -54.855-102.878 -39.905  0.00  0.00     0.004 A 
ATOM     19  C   UNL d   1     -54.838-102.740 -40.721  0.00  0.00     0.019 A 
ENDBRANCH   2  13
TORSDOF 2
ENDMDL
