MODEL 1
REMARK VINA RESULT:      -9.1      0.000      0.000
REMARK  2 active torsions:
REMARK  status: ('A' for Active; 'I' for Inactive)
REMARK    1  A    between atoms: N_2  and  S_1 
REMARK    2  A    between atoms: C_3  and  S_1 
ROOT
ATOM      1  N   UNL d   1      52.324  33.559  53.347  0.00  0.00    -0.229 N 
ATOM      2  C   UNL d   1      52.677  33.986  53.946  0.00  0.00     0.092 A 
ATOM      3  C   UNL d   1      53.395  33.721  54.255  0.00  0.00     0.018 A 
ATOM      4  C   UNL d   1      52.671  32.870  53.048  0.00  0.00     0.092 A 
ATOM      5  C   UNL d   1      53.748  33.020  53.950  0.00  0.00     0.003 A 
ATOM      6  C   UNL d   1      53.371  32.609  53.347  0.00  0.00     0.020 A 
ATOM      7  C   UNL d   1      53.771  34.139  54.863  0.00  0.00     0.002 A 
ATOM      8  C   UNL d   1      54.465  32.762  54.264  0.00  0.00     0.000 A 
ATOM      9  C   UNL d   1      54.482  33.869  55.163  0.00  0.00     0.000 A 
ATOM     10  C   UNL d   1      54.829  33.180  54.863  0.00  0.00     0.000 A 
ENDROOT
BRANCH   1  11
ATOM     11  S   UNL d   1      51.585  33.834  53.032  0.00  0.00     0.277 S 
ATOM     12  O   UNL d   1      51.182  33.228  53.451  0.00  0.00    -0.199 OA
ATOM     13  O   UNL d   1      51.981  34.440  52.612  0.00  0.00    -0.199 OA
BRANCH  11  14
ATOM     14  C   UNL d   1      50.882  34.111  52.719  0.00  0.00     0.133 A 
ATOM     15  S   UNL d   1      50.283  34.427  53.159  0.00  0.00    -0.074 SA
ATOM     16  C   UNL d   1      49.643  34.651  52.628  0.00  0.00     0.036 A 
ATOM     17  C   UNL d   1      49.891  34.454  51.838  0.00  0.00     0.008 A 
ATOM     18  C   UNL d   1      50.635  34.130  51.897  0.00  0.00     0.020 A 
ENDBRANCH  11  14
ENDBRANCH   1  11
TORSDOF 2
ENDMDL
MODEL 2
REMARK VINA RESULT:      -9.0      1.943      2.964
REMARK  2 active torsions:
REMARK  status: ('A' for Active; 'I' for Inactive)
REMARK    1  A    between atoms: N_2  and  S_1 
REMARK    2  A    between atoms: C_3  and  S_1 
ROOT
ATOM      1  N   UNL d   1      52.956  32.570  53.528  0.00  0.00    -0.229 N 
ATOM      2  C   UNL d   1      53.343  31.987  53.947  0.00  0.00     0.092 A 
ATOM      3  C   UNL d   1      53.272  31.204  53.698  0.00  0.00     0.018 A 
ATOM      4  C   UNL d   1      52.497  32.391  52.864  0.00  0.00     0.092 A 
ATOM      5  C   UNL d   1      52.805  31.021  53.021  0.00  0.00     0.003 A 
ATOM      6  C   UNL d   1      52.426  31.628  52.618  0.00  0.00     0.020 A 
ATOM      7  C   UNL d   1      53.656  30.596  54.108  0.00  0.00     0.002 A 
ATOM      8  C   UNL d   1      52.739  30.237  52.778  0.00  0.00     0.000 A 
ATOM      9  C   UNL d   1      53.580  29.822  53.854  0.00  0.00     0.000 A 
ATOM     10  C   UNL d   1      53.122  29.643  53.189  0.00  0.00     0.000 A 
ENDROOT
BRANCH   1  11
ATOM     11  S   UNL d   1      53.031  33.376  53.788  0.00  0.00     0.277 S 
ATOM     12  O   UNL d   1      53.811  33.402  53.476  0.00  0.00    -0.199 OA
ATOM     13  O   UNL d   1      52.255  33.357  54.099  0.00  0.00    -0.199 OA
BRANCH  11  14
ATOM     14  C   UNL d   1      53.087  34.150  54.043  0.00  0.00     0.133 A 
ATOM     15  S   UNL d   1      53.404  34.373  54.752  0.00  0.00    -0.074 SA
ATOM     16  C   UNL d   1      53.362  35.231  54.813  0.00  0.00     0.036 A 
ATOM     17  C   UNL d   1      52.999  35.516  54.098  0.00  0.00     0.008 A 
ATOM     18  C   UNL d   1      52.835  34.865  53.639  0.00  0.00     0.020 A 
ENDBRANCH  11  14
ENDBRANCH   1  11
TORSDOF 2
ENDMDL
MODEL 3
REMARK VINA RESULT:      -8.8      2.024      3.391
REMARK  2 active torsions:
REMARK  status: ('A' for Active; 'I' for Inactive)
REMARK    1  A    between atoms: N_2  and  S_1 
REMARK    2  A    between atoms: C_3  and  S_1 
ROOT
ATOM      1  N   UNL d   1      53.426  32.500  53.957  0.00  0.00    -0.229 N 
ATOM      2  C   UNL d   1      52.876  33.032  53.675  0.00  0.00     0.092 A 
ATOM      3  C   UNL d   1      52.954  33.829  53.875  0.00  0.00     0.018 A 
ATOM      4  C   UNL d   1      54.056  32.743  54.435  0.00  0.00     0.092 A 
ATOM      5  C   UNL d   1      53.594  34.077  54.362  0.00  0.00     0.003 A 
ATOM      6  C   UNL d   1      54.134  33.520  54.632  0.00  0.00     0.020 A 
ATOM      7  C   UNL d   1      52.408  34.387  53.600  0.00  0.00     0.002 A 
ATOM      8  C   UNL d   1      53.666  34.874  54.557  0.00  0.00     0.000 A 
ATOM      9  C   UNL d   1      52.492  35.174  53.803  0.00  0.00     0.000 A 
ATOM     10  C   UNL d   1      53.121  35.418  54.282  0.00  0.00     0.000 A 
ENDROOT
BRANCH   1  11
ATOM     11  S   UNL d   1      53.343  31.680  53.749  0.00  0.00     0.277 S 
ATOM     12  O   UNL d   1      53.288  31.893  52.938  0.00  0.00    -0.199 OA
ATOM     13  O   UNL d   1      53.398  31.462  54.555  0.00  0.00    -0.199 OA
BRANCH  11  14
ATOM     14  C   UNL d   1      53.265  30.887  53.566  0.00  0.00     0.133 A 
ATOM     15  S   UNL d   1      52.858  30.607  52.927  0.00  0.00    -0.074 SA
ATOM     16  C   UNL d   1      52.905  29.747  52.929  0.00  0.00     0.036 A 
ATOM     17  C   UNL d   1      53.365  29.522  53.608  0.00  0.00     0.008 A 
ATOM     18  C   UNL d   1      53.579  30.208  53.988  0.00  0.00     0.020 A 
ENDBRANCH  11  14
ENDBRANCH   1  11
TORSDOF 2
ENDMDL
