MODEL 1
REMARK VINA RESULT:      -6.8      0.000      0.000
REMARK  5 active torsions:
REMARK  status: ('A' for Active; 'I' for Inactive)
REMARK    1  A    between atoms: N_2  and  C_1 
REMARK    2  A    between atoms: C_10  and  C_5 
REMARK       I    between atoms: N_6  and  C_7 
REMARK    3  A    between atoms: C_8  and  N_6 
REMARK    4  A    between atoms: C_7  and  C_11 
REMARK    5  A    between atoms: C_11  and  C_10 
ROOT
ATOM      1  N   UNL d   1     -48.574  13.775  22.810  0.00  0.00    -0.208 NA
ATOM      2  C   UNL d   1     -47.806  14.074  22.767  0.00  0.00     0.279 C 
ATOM      3  O   UNL d   1     -47.660  14.856  22.932  0.00  0.00    -0.265 OA
ENDROOT
BRANCH   2   4
ATOM      4  C   UNL d   1     -47.186  13.574  22.554  0.00  0.00     0.063 C 
BRANCH   4   5
ATOM      5  C   UNL d   1     -46.416  13.762  22.750  0.00  0.00     0.011 C 
BRANCH   5   6
ATOM      6  C   UNL d   1     -45.796  13.211  22.618  0.00  0.00     0.031 A 
ATOM      7  S   UNL d   1     -45.104  13.264  22.177  0.00  0.00    -0.064 SA
ATOM      8  C   UNL d   1     -44.719  12.550  22.259  0.00  0.00     0.156 A 
ATOM      9  C   UNL d   1     -45.147  12.058  22.734  0.00  0.00     0.031 A 
ATOM     10  C   UNL d   1     -45.826  12.475  22.960  0.00  0.00     0.009 A 
BRANCH   8  11
ATOM     11  N   UNL d   1     -43.998  12.374  21.901  0.00  0.00    -0.107 N 
ATOM     12  O   UNL d   1     -43.782  12.715  21.182  0.00  0.00    -0.531 OA
ATOM     13  O   UNL d   1     -43.490  11.850  22.272  0.00  0.00    -0.531 OA
ENDBRANCH   8  11
ENDBRANCH   5   6
ENDBRANCH   4   5
ENDBRANCH   2   4
BRANCH   1  14
ATOM     14  C   UNL d   1     -49.195  14.275  23.022  0.00  0.00     0.085 A 
ATOM     15  C   UNL d   1     -49.895  13.955  23.325  0.00  0.00     0.018 A 
ATOM     16  C   UNL d   1     -50.502  14.445  23.533  0.00  0.00     0.002 A 
ATOM     17  C   UNL d   1     -49.964  13.126  23.411  0.00  0.00     0.002 C 
ATOM     18  C   UNL d   1     -50.422  15.265  23.443  0.00  0.00     0.000 A 
ATOM     19  C   UNL d   1     -49.715  15.588  23.138  0.00  0.00     0.002 A 
ATOM     20  C   UNL d   1     -51.052  15.751  23.660  0.00  0.00     0.000 C 
ATOM     21  C   UNL d   1     -49.120  15.082  22.935  0.00  0.00     0.019 A 
ENDBRANCH   1  14
TORSDOF 5
ENDMDL
MODEL 2
REMARK VINA RESULT:      -6.4      1.712      2.033
REMARK  5 active torsions:
REMARK  status: ('A' for Active; 'I' for Inactive)
REMARK    1  A    between atoms: N_2  and  C_1 
REMARK    2  A    between atoms: C_10  and  C_5 
REMARK       I    between atoms: N_6  and  C_7 
REMARK    3  A    between atoms: C_8  and  N_6 
REMARK    4  A    between atoms: C_7  and  C_11 
REMARK    5  A    between atoms: C_11  and  C_10 
ROOT
ATOM      1  N   UNL d   1     -48.214  12.577  22.205  0.00  0.00    -0.208 NA
ATOM      2  C   UNL d   1     -47.550  12.764  22.657  0.00  0.00     0.279 C 
ATOM      3  O   UNL d   1     -47.597  12.782  23.468  0.00  0.00    -0.265 OA
ENDROOT
BRANCH   2   4
ATOM      4  C   UNL d   1     -46.835  12.934  22.281  0.00  0.00     0.063 C 
BRANCH   4   5
ATOM      5  C   UNL d   1     -46.152  13.033  22.715  0.00  0.00     0.011 C 
BRANCH   5   6
ATOM      6  C   UNL d   1     -45.401  13.014  22.338  0.00  0.00     0.031 A 
ATOM      7  S   UNL d   1     -44.823  12.431  22.303  0.00  0.00    -0.064 SA
ATOM      8  C   UNL d   1     -44.213  12.733  21.855  0.00  0.00     0.156 A 
ATOM      9  C   UNL d   1     -44.392  13.481  21.612  0.00  0.00     0.031 A 
ATOM     10  C   UNL d   1     -45.141  13.658  21.917  0.00  0.00     0.009 A 
BRANCH   8  11
ATOM     11  N   UNL d   1     -43.521  12.320  21.684  0.00  0.00    -0.107 N 
ATOM     12  O   UNL d   1     -43.215  11.761  22.209  0.00  0.00    -0.531 OA
ATOM     13  O   UNL d   1     -43.132  12.471  20.979  0.00  0.00    -0.531 OA
ENDBRANCH   8  11
ENDBRANCH   5   6
ENDBRANCH   4   5
ENDBRANCH   2   4
BRANCH   1  14
ATOM     14  C   UNL d   1     -48.928  12.408  22.581  0.00  0.00     0.085 A 
ATOM     15  C   UNL d   1     -49.641  12.655  22.241  0.00  0.00     0.018 A 
ATOM     16  C   UNL d   1     -50.340  12.490  22.610  0.00  0.00     0.002 A 
ATOM     17  C   UNL d   1     -49.626  13.075  21.518  0.00  0.00     0.002 C 
ATOM     18  C   UNL d   1     -50.341  12.073  23.326  0.00  0.00     0.000 A 
ATOM     19  C   UNL d   1     -49.623  11.823  23.670  0.00  0.00     0.002 A 
ATOM     20  C   UNL d   1     -51.064  11.912  23.690  0.00  0.00     0.000 C 
ATOM     21  C   UNL d   1     -48.934  11.999  23.286  0.00  0.00     0.019 A 
ENDBRANCH   1  14
TORSDOF 5
ENDMDL
MODEL 3
REMARK VINA RESULT:      -6.4      1.369      1.567
REMARK  5 active torsions:
REMARK  status: ('A' for Active; 'I' for Inactive)
REMARK    1  A    between atoms: N_2  and  C_1 
REMARK    2  A    between atoms: C_10  and  C_5 
REMARK       I    between atoms: N_6  and  C_7 
REMARK    3  A    between atoms: C_8  and  N_6 
REMARK    4  A    between atoms: C_7  and  C_11 
REMARK    5  A    between atoms: C_11  and  C_10 
ROOT
ATOM      1  N   UNL d   1     -48.562  13.045  22.403  0.00  0.00    -0.208 NA
ATOM      2  C   UNL d   1     -47.862  13.207  22.811  0.00  0.00     0.279 C 
ATOM      3  O   UNL d   1     -47.789  13.887  23.248  0.00  0.00    -0.265 OA
ENDROOT
BRANCH   2   4
ATOM      4  C   UNL d   1     -47.236  12.671  22.771  0.00  0.00     0.063 C 
BRANCH   4   5
ATOM      5  C   UNL d   1     -46.743  12.562  23.411  0.00  0.00     0.011 C 
BRANCH   5   6
ATOM      6  C   UNL d   1     -46.241  11.890  23.454  0.00  0.00     0.031 A 
ATOM      7  S   UNL d   1     -45.441  11.794  23.286  0.00  0.00    -0.064 SA
ATOM      8  C   UNL d   1     -45.264  11.012  23.433  0.00  0.00     0.156 A 
ATOM      9  C   UNL d   1     -45.923  10.621  23.685  0.00  0.00     0.031 A 
ATOM     10  C   UNL d   1     -46.539  11.175  23.698  0.00  0.00     0.009 A 
BRANCH   8  11
ATOM     11  N   UNL d   1     -44.514  10.686  23.332  0.00  0.00    -0.107 N 
ATOM     12  O   UNL d   1     -43.855  11.162  23.190  0.00  0.00    -0.531 OA
ATOM     13  O   UNL d   1     -44.427   9.873  23.375  0.00  0.00    -0.531 OA
ENDBRANCH   8  11
ENDBRANCH   5   6
ENDBRANCH   4   5
ENDBRANCH   2   4
BRANCH   1  14
ATOM     14  C   UNL d   1     -49.188  13.581  22.443  0.00  0.00     0.085 A 
ATOM     15  C   UNL d   1     -49.915  13.389  22.098  0.00  0.00     0.018 A 
ATOM     16  C   UNL d   1     -50.528  13.913  22.137  0.00  0.00     0.002 A 
ATOM     17  C   UNL d   1     -50.004  12.653  21.711  0.00  0.00     0.002 C 
ATOM     18  C   UNL d   1     -50.427  14.640  22.522  0.00  0.00     0.000 A 
ATOM     19  C   UNL d   1     -49.694  14.834  22.871  0.00  0.00     0.002 A 
ATOM     20  C   UNL d   1     -51.064  15.164  22.553  0.00  0.00     0.000 C 
ATOM     21  C   UNL d   1     -49.094  14.297  22.822  0.00  0.00     0.019 A 
ENDBRANCH   1  14
TORSDOF 5
ENDMDL
MODEL 4
REMARK VINA RESULT:      -5.7      2.319      5.331
REMARK  5 active torsions:
REMARK  status: ('A' for Active; 'I' for Inactive)
REMARK    1  A    between atoms: N_2  and  C_1 
REMARK    2  A    between atoms: C_10  and  C_5 
REMARK       I    between atoms: N_6  and  C_7 
REMARK    3  A    between atoms: C_8  and  N_6 
REMARK    4  A    between atoms: C_7  and  C_11 
REMARK    5  A    between atoms: C_11  and  C_10 
ROOT
ATOM      1  N   UNL d   1     -46.864  12.302  23.040  0.00  0.00    -0.208 NA
ATOM      2  C   UNL d   1     -47.625  12.103  23.289  0.00  0.00     0.279 C 
ATOM      3  O   UNL d   1     -47.761  11.399  23.672  0.00  0.00    -0.265 OA
ENDROOT
BRANCH   2   4
ATOM      4  C   UNL d   1     -48.249  12.624  23.148  0.00  0.00     0.063 C 
BRANCH   4   5
ATOM      5  C   UNL d   1     -48.788  12.474  22.554  0.00  0.00     0.011 C 
BRANCH   5   6
ATOM      6  C   UNL d   1     -49.364  13.049  22.346  0.00  0.00     0.031 A 
ATOM      7  S   UNL d   1     -49.378  13.866  22.437  0.00  0.00    -0.064 SA
ATOM      8  C   UNL d   1     -50.086  14.124  22.128  0.00  0.00     0.156 A 
ATOM      9  C   UNL d   1     -50.512  13.497  21.850  0.00  0.00     0.031 A 
ATOM     10  C   UNL d   1     -50.056  12.820  21.988  0.00  0.00     0.009 A 
BRANCH   8  11
ATOM     11  N   UNL d   1     -50.318  14.914  22.111  0.00  0.00    -0.107 N 
ATOM     12  O   UNL d   1     -49.814  15.514  22.370  0.00  0.00    -0.531 OA
ATOM     13  O   UNL d   1     -51.064  15.102  21.830  0.00  0.00    -0.531 OA
ENDBRANCH   8  11
ENDBRANCH   5   6
ENDBRANCH   4   5
ENDBRANCH   2   4
BRANCH   1  14
ATOM     14  C   UNL d   1     -46.240  11.781  23.181  0.00  0.00     0.085 A 
ATOM     15  C   UNL d   1     -45.474  11.984  22.945  0.00  0.00     0.018 A 
ATOM     16  C   UNL d   1     -44.864  11.474  23.083  0.00  0.00     0.002 A 
ATOM     17  C   UNL d   1     -45.342  12.717  22.565  0.00  0.00     0.002 C 
ATOM     18  C   UNL d   1     -45.006  10.750  23.460  0.00  0.00     0.000 A 
ATOM     19  C   UNL d   1     -45.780  10.544  23.698  0.00  0.00     0.002 A 
ATOM     20  C   UNL d   1     -44.371  10.240  23.593  0.00  0.00     0.000 C 
ATOM     21  C   UNL d   1     -46.377  11.067  23.551  0.00  0.00     0.019 A 
ENDBRANCH   1  14
TORSDOF 5
ENDMDL
MODEL 5
REMARK VINA RESULT:      -5.3      8.431      8.984
REMARK  5 active torsions:
REMARK  status: ('A' for Active; 'I' for Inactive)
REMARK    1  A    between atoms: N_2  and  C_1 
REMARK    2  A    between atoms: C_10  and  C_5 
REMARK       I    between atoms: N_6  and  C_7 
REMARK    3  A    between atoms: C_8  and  N_6 
REMARK    4  A    between atoms: C_7  and  C_11 
REMARK    5  A    between atoms: C_11  and  C_10 
ROOT
ATOM      1  N   UNL d   1     -39.691  15.192  18.606  0.00  0.00    -0.208 NA
ATOM      2  C   UNL d   1     -39.942  15.254  19.390  0.00  0.00     0.279 C 
ATOM      3  O   UNL d   1     -40.699  15.492  19.561  0.00  0.00    -0.265 OA
ENDROOT
BRANCH   2   4
ATOM      4  C   UNL d   1     -39.417  15.072  20.001  0.00  0.00     0.063 C 
BRANCH   4   5
ATOM      5  C   UNL d   1     -39.668  15.080  20.777  0.00  0.00     0.011 C 
BRANCH   5   6
ATOM      6  C   UNL d   1     -39.198  14.731  21.380  0.00  0.00     0.031 A 
ATOM      7  S   UNL d   1     -39.248  14.003  21.758  0.00  0.00    -0.064 SA
ATOM      8  C   UNL d   1     -38.636  13.975  22.296  0.00  0.00     0.156 A 
ATOM      9  C   UNL d   1     -38.209  14.659  22.264  0.00  0.00     0.031 A 
ATOM     10  C   UNL d   1     -38.563  15.135  21.686  0.00  0.00     0.009 A 
BRANCH   8  11
ATOM     11  N   UNL d   1     -38.490  13.334  22.792  0.00  0.00    -0.107 N 
ATOM     12  O   UNL d   1     -38.795  13.307  23.558  0.00  0.00    -0.531 OA
ATOM     13  O   UNL d   1     -38.033  12.714  22.513  0.00  0.00    -0.531 OA
ENDBRANCH   8  11
ENDBRANCH   5   6
ENDBRANCH   4   5
ENDBRANCH   2   4
BRANCH   1  14
ATOM     14  C   UNL d   1     -40.215  15.373  17.996  0.00  0.00     0.085 A 
ATOM     15  C   UNL d   1     -40.017  15.186  17.215  0.00  0.00     0.018 A 
ATOM     16  C   UNL d   1     -40.530  15.363  16.617  0.00  0.00     0.002 A 
ATOM     17  C   UNL d   1     -39.286  14.813  17.055  0.00  0.00     0.002 C 
ATOM     18  C   UNL d   1     -41.253  15.732  16.788  0.00  0.00     0.000 A 
ATOM     19  C   UNL d   1     -41.453  15.922  17.576  0.00  0.00     0.002 A 
ATOM     20  C   UNL d   1     -41.765  15.907  16.165  0.00  0.00     0.000 C 
ATOM     21  C   UNL d   1     -40.927  15.736  18.159  0.00  0.00     0.019 A 
ENDBRANCH   1  14
TORSDOF 5
ENDMDL
MODEL 6
REMARK VINA RESULT:      -5.3      8.578      9.502
REMARK  5 active torsions:
REMARK  status: ('A' for Active; 'I' for Inactive)
REMARK    1  A    between atoms: N_2  and  C_1 
REMARK    2  A    between atoms: C_10  and  C_5 
REMARK       I    between atoms: N_6  and  C_7 
REMARK    3  A    between atoms: C_8  and  N_6 
REMARK    4  A    between atoms: C_7  and  C_11 
REMARK    5  A    between atoms: C_11  and  C_10 
ROOT
ATOM      1  N   UNL d   1     -39.150  14.648  20.633  0.00  0.00    -0.208 NA
ATOM      2  C   UNL d   1     -39.071  14.263  19.908  0.00  0.00     0.279 C 
ATOM      3  O   UNL d   1     -38.764  13.511  19.873  0.00  0.00    -0.265 OA
ENDROOT
BRANCH   2   4
ATOM      4  C   UNL d   1     -39.307  14.645  19.216  0.00  0.00     0.063 C 
BRANCH   4   5
ATOM      5  C   UNL d   1     -39.646  14.224  18.605  0.00  0.00     0.011 C 
BRANCH   5   6
ATOM      6  C   UNL d   1     -39.966  14.623  17.939  0.00  0.00     0.031 A 
ATOM      7  S   UNL d   1     -40.692  14.992  17.820  0.00  0.00    -0.064 SA
ATOM      8  C   UNL d   1     -40.686  15.281  17.059  0.00  0.00     0.156 A 
ATOM      9  C   UNL d   1     -39.984  15.106  16.702  0.00  0.00     0.031 A 
ATOM     10  C   UNL d   1     -39.531  14.690  17.256  0.00  0.00     0.009 A 
BRANCH   8  11
ATOM     11  N   UNL d   1     -41.314  15.692  16.719  0.00  0.00    -0.107 N 
ATOM     12  O   UNL d   1     -41.989  15.879  17.155  0.00  0.00    -0.531 OA
ATOM     13  O   UNL d   1     -41.263  15.916  15.933  0.00  0.00    -0.531 OA
ENDBRANCH   8  11
ENDBRANCH   5   6
ENDBRANCH   4   5
ENDBRANCH   2   4
BRANCH   1  14
ATOM     14  C   UNL d   1     -38.915  14.266  21.325  0.00  0.00     0.085 A 
ATOM     15  C   UNL d   1     -39.094  14.600  22.061  0.00  0.00     0.018 A 
ATOM     16  C   UNL d   1     -38.864  14.226  22.738  0.00  0.00     0.002 A 
ATOM     17  C   UNL d   1     -39.513  15.323  22.092  0.00  0.00     0.002 C 
ATOM     18  C   UNL d   1     -38.449  13.509  22.694  0.00  0.00     0.000 A 
ATOM     19  C   UNL d   1     -38.268  13.172  21.952  0.00  0.00     0.002 A 
ATOM     20  C   UNL d   1     -38.221  13.140  23.396  0.00  0.00     0.000 C 
ATOM     21  C   UNL d   1     -38.507  13.561  21.287  0.00  0.00     0.019 A 
ENDBRANCH   1  14
TORSDOF 5
ENDMDL
MODEL 7
REMARK VINA RESULT:      -4.1      8.282     10.183
REMARK  5 active torsions:
REMARK  status: ('A' for Active; 'I' for Inactive)
REMARK    1  A    between atoms: N_2  and  C_1 
REMARK    2  A    between atoms: C_10  and  C_5 
REMARK       I    between atoms: N_6  and  C_7 
REMARK    3  A    between atoms: C_8  and  N_6 
REMARK    4  A    between atoms: C_7  and  C_11 
REMARK    5  A    between atoms: C_11  and  C_10 
ROOT
ATOM      1  N   UNL d   1     -39.272  14.776  19.605  0.00  0.00    -0.208 NA
ATOM      2  C   UNL d   1     -38.780  14.401  19.059  0.00  0.00     0.279 C 
ATOM      3  O   UNL d   1     -38.321  13.770  19.286  0.00  0.00    -0.265 OA
ENDROOT
BRANCH   2   4
ATOM      4  C   UNL d   1     -38.757  14.670  18.280  0.00  0.00     0.063 C 
BRANCH   4   5
ATOM      5  C   UNL d   1     -38.047  14.720  17.880  0.00  0.00     0.011 C 
BRANCH   5   6
ATOM      6  C   UNL d   1     -38.022  15.006  17.091  0.00  0.00     0.031 A 
ATOM      7  S   UNL d   1     -38.055  14.617  16.368  0.00  0.00    -0.064 SA
ATOM      8  C   UNL d   1     -38.005  15.190  15.791  0.00  0.00     0.156 A 
ATOM      9  C   UNL d   1     -37.942  15.919  16.129  0.00  0.00     0.031 A 
ATOM     10  C   UNL d   1     -37.953  15.803  16.949  0.00  0.00     0.009 A 
BRANCH   8  11
ATOM     11  N   UNL d   1     -38.019  15.029  14.983  0.00  0.00    -0.107 N 
ATOM     12  O   UNL d   1     -38.110  15.632  14.427  0.00  0.00    -0.531 OA
ATOM     13  O   UNL d   1     -37.940  14.253  14.732  0.00  0.00    -0.531 OA
ENDBRANCH   8  11
ENDBRANCH   5   6
ENDBRANCH   4   5
ENDBRANCH   2   4
BRANCH   1  14
ATOM     14  C   UNL d   1     -39.296  14.506  20.385  0.00  0.00     0.085 A 
ATOM     15  C   UNL d   1     -39.984  14.603  20.833  0.00  0.00     0.018 A 
ATOM     16  C   UNL d   1     -40.007  14.340  21.595  0.00  0.00     0.002 A 
ATOM     17  C   UNL d   1     -40.649  14.975  20.487  0.00  0.00     0.002 C 
ATOM     18  C   UNL d   1     -39.342  13.973  21.926  0.00  0.00     0.000 A 
ATOM     19  C   UNL d   1     -38.646  13.875  21.475  0.00  0.00     0.002 A 
ATOM     20  C   UNL d   1     -39.382  13.709  22.707  0.00  0.00     0.000 C 
ATOM     21  C   UNL d   1     -38.643  14.145  20.714  0.00  0.00     0.019 A 
ENDBRANCH   1  14
TORSDOF 5
ENDMDL
