MODEL 1
REMARK VINA RESULT:       2.6      0.000      0.000
REMARK  10 active torsions:
REMARK  status: ('A' for Active; 'I' for Inactive)
REMARK    1  A    between atoms: C_3  and  C_1 
REMARK    2  A    between atoms: C_4  and  C_1 
REMARK    3  A    between atoms: N_2  and  C_8 
REMARK    4  A    between atoms: O_19  and  C_3 
REMARK    5  A    between atoms: C_14  and  C_4 
REMARK    6  A    between atoms: C_20  and  N_7 
REMARK    7  A    between atoms: C_9  and  C_20 
REMARK    8  A    between atoms: C_13  and  C_9 
REMARK    9  A    between atoms: C_23  and  C_13 
REMARK   10  A    between atoms: C_24  and  O_19 
ROOT
ATOM      1  C   UNL d   1     -42.344-123.054 -47.416  0.00  0.00     0.132 C 
ATOM      2  C   UNL d   1     -42.379-122.305 -47.069  0.00  0.00     0.106 C 
ATOM      3  N   UNL d   1     -42.416-121.556 -46.720  0.00  0.00    -0.191 NA
ENDROOT
BRANCH   1   4
ATOM      4  C   UNL d   1     -42.984-123.559 -47.387  0.00  0.00     0.310 C 
ATOM      5  O   UNL d   1     -43.288-123.810 -46.681  0.00  0.00    -0.258 OA
BRANCH   4   6
ATOM      6  O   UNL d   1     -43.323-123.817 -48.087  0.00  0.00    -0.271 OA
BRANCH   6   7
ATOM      7  C   UNL d   1     -44.140-123.747 -48.197  0.00  0.00     0.126 C 
ATOM      8  C   UNL d   1     -44.446-123.767 -48.970  0.00  0.00     0.029 C 
ENDBRANCH   6   7
ENDBRANCH   4   6
ENDBRANCH   1   4
BRANCH   1   9
ATOM      9  C   UNL d   1     -41.659-123.295 -47.796  0.00  0.00     0.016 C 
BRANCH   9  10
ATOM     10  C   UNL d   1     -41.583-123.161 -48.628  0.00  0.00     0.001 A 
ATOM     11  C   UNL d   1     -41.708-122.397 -48.961  0.00  0.00     0.002 A 
ATOM     12  C   UNL d   1     -41.629-122.290 -49.762  0.00  0.00     0.018 A 
ATOM     13  C   UNL d   1     -41.431-122.905 -50.261  0.00  0.00     0.064 A 
ATOM     14  C   UNL d   1     -41.308-123.647 -49.946  0.00  0.00     0.018 A 
ATOM     15  C   UNL d   1     -41.384-123.775 -49.130  0.00  0.00     0.002 A 
BRANCH  13  16
ATOM     16  N   UNL d   1     -41.355-122.776 -51.078  0.00  0.00    -0.301 N 
ATOM     17  C   UNL d   1     -41.309-122.017 -51.379  0.00  0.00     0.100 A 
ATOM     18  C   UNL d   1     -41.233-121.888 -52.195  0.00  0.00     0.100 A 
ATOM     19  N   UNL d   1     -41.203-122.518 -52.712  0.00  0.00    -0.300 N 
ATOM     20  C   UNL d   1     -41.249-123.311 -52.412  0.00  0.00     0.100 A 
ATOM     21  C   UNL d   1     -41.324-123.422 -51.597  0.00  0.00     0.100 A 
BRANCH  19  22
ATOM     22  C   UNL d   1     -41.127-122.390 -53.529  0.00  0.00     0.080 C 
BRANCH  22  23
ATOM     23  C   UNL d   1     -41.633-122.781 -54.066  0.00  0.00     0.019 C 
BRANCH  23  24
ATOM     24  C   UNL d   1     -41.544-122.958 -54.805  0.00  0.00     0.002 C 
BRANCH  24  25
ATOM     25  C   UNL d   1     -41.888-122.488 -55.374  0.00  0.00     0.000 A 
ATOM     26  C   UNL d   1     -42.657-122.628 -55.588  0.00  0.00     0.000 A 
ATOM     27  C   UNL d   1     -43.019-122.160 -56.163  0.00  0.00     0.000 A 
ATOM     28  C   UNL d   1     -42.604-121.553 -56.520  0.00  0.00     0.000 A 
ATOM     29  C   UNL d   1     -41.816-121.415 -56.296  0.00  0.00     0.000 A 
ATOM     30  C   UNL d   1     -41.460-121.888 -55.720  0.00  0.00     0.000 A 
ENDBRANCH  24  25
ENDBRANCH  23  24
ENDBRANCH  22  23
ENDBRANCH  19  22
ENDBRANCH  13  16
ENDBRANCH   9  10
ENDBRANCH   1   9
TORSDOF 10
ENDMDL
