MODEL 1
REMARK VINA RESULT:      14.0      0.000      0.000
REMARK  8 active torsions:
REMARK  status: ('A' for Active; 'I' for Inactive)
REMARK    1  A    between atoms: C_5  and  C_1 
REMARK       I    between atoms: C_2  and  N_4 
REMARK    2  A    between atoms: C_7  and  C_2 
REMARK    3  A    between atoms: N_4  and  C_3 
REMARK    4  A    between atoms: N_6  and  C_5 
REMARK    5  A    between atoms: C_13  and  C_5 
REMARK    6  A    between atoms: C_15  and  N_6 
REMARK    7  A    between atoms: C_9  and  C_15 
REMARK    8  A    between atoms: O_19  and  C_9 
ROOT
ATOM      1  C   UNL d   1     -41.952-122.381 -51.344  0.00  0.00     0.035 A 
ATOM      2  C   UNL d   1     -41.737-122.771 -52.050  0.00  0.00     0.086 A 
ATOM      3  C   UNL d   1     -41.748-122.716 -50.618  0.00  0.00     0.003 A 
ATOM      4  C   UNL d   1     -41.321-123.491 -52.019  0.00  0.00     0.019 A 
ATOM      5  C   UNL d   1     -41.333-123.436 -50.587  0.00  0.00     0.000 A 
ATOM      6  C   UNL d   1     -41.123-123.817 -51.282  0.00  0.00     0.002 A 
ATOM      7  C   UNL d   1     -41.134-123.762 -49.855  0.00  0.00     0.000 C 
ENDROOT
BRANCH   1   8
ATOM      8  C   UNL d   1     -42.362-121.669 -51.375  0.00  0.00     0.083 C 
BRANCH   8   9
ATOM      9  N   UNL d   1     -43.193-121.665 -51.393  0.00  0.00    -0.238 NA
BRANCH   9  10
ATOM     10  C   UNL d   1     -43.614-121.714 -50.689  0.00  0.00     0.167 C 
BRANCH  10  11
ATOM     11  C   UNL d   1     -44.390-121.991 -50.690  0.00  0.00     0.315 C 
ATOM     12  O   UNL d   1     -44.847-121.982 -51.385  0.00  0.00    -0.257 OA
BRANCH  11  13
ATOM     13  O   UNL d   1     -44.730-122.287 -49.986  0.00  0.00    -0.295 OA
ATOM     14  C   UNL d   1     -44.442-121.948 -49.236  0.00  0.00     0.185 C 
ENDBRANCH  11  13
ENDBRANCH  10  11
ENDBRANCH   9  10
ENDBRANCH   8   9
BRANCH   8  15
ATOM     15  C   UNL d   1     -41.951-120.960 -51.388  0.00  0.00     0.018 A 
ATOM     16  C   UNL d   1     -41.616-120.658 -50.696  0.00  0.00     0.002 A 
ATOM     17  C   UNL d   1     -41.207-119.954 -50.707  0.00  0.00     0.000 A 
ATOM     18  C   UNL d   1     -41.123-119.529 -51.422  0.00  0.00     0.000 A 
ATOM     19  C   UNL d   1     -41.455-119.827 -52.112  0.00  0.00     0.000 A 
ATOM     20  C   UNL d   1     -41.869-120.540 -52.102  0.00  0.00     0.002 A 
ENDBRANCH   8  15
ENDBRANCH   1   8
BRANCH   2  21
ATOM     21  N   UNL d   1     -41.941-122.436 -52.772  0.00  0.00    -0.208 NA
ATOM     22  C   UNL d   1     -41.713-122.814 -53.487  0.00  0.00     0.279 C 
ATOM     23  O   UNL d   1     -41.285-123.520 -53.457  0.00  0.00    -0.265 OA
BRANCH  22  24
ATOM     24  C   UNL d   1     -41.917-122.478 -54.214  0.00  0.00     0.059 A 
ATOM     25  C   UNL d   1     -42.526-122.808 -54.661  0.00  0.00     0.016 A 
ATOM     26  C   UNL d   1     -42.730-122.474 -55.388  0.00  0.00     0.058 A 
ATOM     27 CL   UNL d   1     -43.339-122.811 -55.824  0.00  0.00    -0.082 Cl
ATOM     28  C   UNL d   1     -42.326-121.813 -55.666  0.00  0.00     0.011 A 
ATOM     29  C   UNL d   1     -41.717-121.484 -55.219  0.00  0.00     0.001 A 
ATOM     30  C   UNL d   1     -41.513-121.818 -54.492  0.00  0.00     0.005 A 
ENDBRANCH  22  24
ENDBRANCH   2  21
TORSDOF 8
ENDMDL
MODEL 2
REMARK VINA RESULT:      14.9      1.324      2.325
REMARK  8 active torsions:
REMARK  status: ('A' for Active; 'I' for Inactive)
REMARK    1  A    between atoms: C_5  and  C_1 
REMARK       I    between atoms: C_2  and  N_4 
REMARK    2  A    between atoms: C_7  and  C_2 
REMARK    3  A    between atoms: N_4  and  C_3 
REMARK    4  A    between atoms: N_6  and  C_5 
REMARK    5  A    between atoms: C_13  and  C_5 
REMARK    6  A    between atoms: C_15  and  N_6 
REMARK    7  A    between atoms: C_9  and  C_15 
REMARK    8  A    between atoms: O_19  and  C_9 
ROOT
ATOM      1  C   UNL d   1     -42.055-122.444 -50.993  0.00  0.00     0.035 A 
ATOM      2  C   UNL d   1     -41.829-122.881 -51.667  0.00  0.00     0.086 A 
ATOM      3  C   UNL d   1     -41.818-122.702 -50.245  0.00  0.00     0.003 A 
ATOM      4  C   UNL d   1     -41.369-123.569 -51.584  0.00  0.00     0.019 A 
ATOM      5  C   UNL d   1     -41.357-123.390 -50.162  0.00  0.00     0.000 A 
ATOM      6  C   UNL d   1     -41.137-123.817 -50.827  0.00  0.00     0.002 A 
ATOM      7  C   UNL d   1     -41.125-123.639 -49.410  0.00  0.00     0.000 C 
ENDROOT
BRANCH   1   8
ATOM      8  C   UNL d   1     -42.510-121.764 -51.075  0.00  0.00     0.083 C 
BRANCH   8   9
ATOM      9  N   UNL d   1     -42.216-121.112 -51.497  0.00  0.00    -0.238 NA
BRANCH   9  10
ATOM     10  C   UNL d   1     -42.116-120.392 -51.113  0.00  0.00     0.167 C 
BRANCH  10  11
ATOM     11  C   UNL d   1     -41.571-119.843 -51.398  0.00  0.00     0.315 C 
ATOM     12  O   UNL d   1     -41.127-119.373 -50.875  0.00  0.00    -0.257 OA
BRANCH  11  13
ATOM     13  O   UNL d   1     -41.457-119.752 -52.220  0.00  0.00    -0.295 OA
ATOM     14  C   UNL d   1     -41.127-118.991 -52.490  0.00  0.00     0.185 C 
ENDBRANCH  11  13
ENDBRANCH  10  11
ENDBRANCH   9  10
ENDBRANCH   8   9
BRANCH   8  15
ATOM     15  C   UNL d   1     -43.257-121.729 -50.738  0.00  0.00     0.018 A 
ATOM     16  C   UNL d   1     -43.347-121.545 -49.939  0.00  0.00     0.002 A 
ATOM     17  C   UNL d   1     -44.088-121.509 -49.603  0.00  0.00     0.000 A 
ATOM     18  C   UNL d   1     -44.767-121.660 -50.068  0.00  0.00     0.000 A 
ATOM     19  C   UNL d   1     -44.680-121.844 -50.863  0.00  0.00     0.000 A 
ATOM     20  C   UNL d   1     -43.930-121.880 -51.204  0.00  0.00     0.002 A 
ENDBRANCH   8  15
ENDBRANCH   1   8
BRANCH   2  21
ATOM     21  N   UNL d   1     -42.067-122.623 -52.410  0.00  0.00    -0.208 NA
ATOM     22  C   UNL d   1     -41.714-122.950 -53.099  0.00  0.00     0.279 C 
ATOM     23  O   UNL d   1     -41.129-123.530 -53.021  0.00  0.00    -0.265 OA
BRANCH  22  24
ATOM     24  C   UNL d   1     -41.951-122.692 -53.847  0.00  0.00     0.059 A 
ATOM     25  C   UNL d   1     -42.667-122.293 -53.935  0.00  0.00     0.016 A 
ATOM     26  C   UNL d   1     -42.905-122.036 -54.682  0.00  0.00     0.058 A 
ATOM     27 CL   UNL d   1     -43.621-121.639 -54.757  0.00  0.00    -0.082 Cl
ATOM     28  C   UNL d   1     -42.428-122.176 -55.338  0.00  0.00     0.011 A 
ATOM     29  C   UNL d   1     -41.712-122.575 -55.249  0.00  0.00     0.001 A 
ATOM     30  C   UNL d   1     -41.475-122.833 -54.502  0.00  0.00     0.005 A 
ENDBRANCH  22  24
ENDBRANCH   2  21
TORSDOF 8
ENDMDL
