MODEL 1
REMARK VINA RESULT:      65.8      0.000      0.000
REMARK  9 active torsions:
REMARK  status: ('A' for Active; 'I' for Inactive)
REMARK    1  A    between atoms: C_6  and  C_1 
REMARK    2  A    between atoms: C_2  and  O_5 
REMARK    3  A    between atoms: C_4  and  C_2 
REMARK    4  A    between atoms: O_5  and  C_3 
REMARK    5  A    between atoms: C_7  and  C_6 
REMARK    6  A    between atoms: C_10  and  C_7 
REMARK    7  A    between atoms: O_25  and  C_8 
REMARK    8  A    between atoms: C_20  and  C_10 
REMARK    9  A    between atoms: O_27  and  C_14 
ROOT
ATOM      1  C   UNL d   1     -55.238-100.686 -43.669  0.00  0.00     0.062 A 
ATOM      2  C   UNL d   1     -54.971-101.019 -42.951  0.00  0.00     0.106 A 
ATOM      3  C   UNL d   1     -55.434-101.181 -44.297  0.00  0.00     0.012 A 
ATOM      4  C   UNL d   1     -54.908-101.835 -42.883  0.00  0.00     0.025 A 
ATOM      5  C   UNL d   1     -55.368-101.996 -44.220  0.00  0.00     0.035 A 
ATOM      6  C   UNL d   1     -55.104-102.327 -43.510  0.00  0.00     0.009 A 
ATOM      7 BR   UNL d   1     -55.566-102.490 -44.853  0.00  0.00    -0.049 Br
ENDROOT
BRANCH   1   8
ATOM      8  C   UNL d   1     -55.303 -99.867 -43.744  0.00  0.00     0.198 C 
ATOM      9  O   UNL d   1     -54.719 -99.444 -44.148  0.00  0.00    -0.286 OA
BRANCH   8  10
ATOM     10  C   UNL d   1     -55.948 -99.472 -43.419  0.00  0.00     0.042 C 
BRANCH  10  11
ATOM     11  C   UNL d   1     -56.245 -98.794 -43.782  0.00  0.00     0.003 C 
BRANCH  11  12
ATOM     12  C   UNL d   1     -56.966 -98.822 -44.195  0.00  0.00     0.002 A 
ATOM     13  C   UNL d   1     -57.672 -98.843 -43.744  0.00  0.00     0.026 A 
ATOM     14  C   UNL d   1     -58.393 -98.871 -44.183  0.00  0.00     0.116 A 
ATOM     15  C   UNL d   1     -58.398 -98.879 -45.010  0.00  0.00     0.116 A 
ATOM     16  C   UNL d   1     -57.671 -98.858 -45.427  0.00  0.00     0.026 A 
ATOM     17  C   UNL d   1     -56.958 -98.829 -45.013  0.00  0.00     0.002 A 
BRANCH  14  18
ATOM     18  O   UNL d   1     -59.107 -98.893 -43.783  0.00  0.00    -0.326 OA
ATOM     19  C   UNL d   1     -59.125 -98.983 -42.961  0.00  0.00     0.181 C 
ENDBRANCH  14  18
BRANCH  15  20
ATOM     20  O   UNL d   1     -59.110 -98.907 -45.423  0.00  0.00    -0.326 OA
ATOM     21  C   UNL d   1     -59.124 -98.758 -46.236  0.00  0.00     0.181 C 
ENDBRANCH  15  20
ENDBRANCH  11  12
ENDBRANCH  10  11
ENDBRANCH   8  10
ENDBRANCH   1   8
BRANCH   2  22
ATOM     22  O   UNL d   1     -54.775-100.527 -42.324  0.00  0.00    -0.271 OA
BRANCH  22  23
ATOM     23  C   UNL d   1     -54.817-100.816 -41.550  0.00  0.00     0.323 C 
ATOM     24  O   UNL d   1     -54.865-101.632 -41.406  0.00  0.00    -0.257 OA
BRANCH  23  25
ATOM     25  C   UNL d   1     -54.813-100.293 -40.913  0.00  0.00     0.163 A 
ATOM     26  O   UNL d   1     -54.714-100.499 -40.121  0.00  0.00    -0.300 OA
ATOM     27  C   UNL d   1     -54.747 -99.796 -39.669  0.00  0.00     0.123 A 
ATOM     28  C   UNL d   1     -54.864 -99.165 -40.187  0.00  0.00     0.029 A 
ATOM     29  C   UNL d   1     -54.905 -99.471 -40.955  0.00  0.00     0.032 A 
ENDBRANCH  23  25
ENDBRANCH  22  23
ENDBRANCH   2  22
TORSDOF 9
ENDMDL
