MODEL 1
REMARK VINA RESULT:      73.5      0.000      0.000
REMARK  6 active torsions:
REMARK  status: ('A' for Active; 'I' for Inactive)
REMARK    1  A    between atoms: N_3  and  C_1 
REMARK    2  A    between atoms: S_2  and  C_9 
REMARK    3  A    between atoms: N_10  and  S_2 
REMARK       I    between atoms: C_8  and  N_3 
REMARK    4  A    between atoms: C_20  and  N_4 
REMARK    5  A    between atoms: C_13  and  C_8 
REMARK    6  A    between atoms: O_22  and  C_14 
ROOT
ATOM      1  N   UNL d   1     -49.405  28.038  34.709  0.00  0.00    -0.184 NA
ATOM      2  C   UNL d   1     -49.426  27.658  33.970  0.00  0.00     0.281 C 
ATOM      3  O   UNL d   1     -48.968  27.946  33.348  0.00  0.00    -0.265 OA
ENDROOT
BRANCH   1   4
ATOM      4  C   UNL d   1     -48.920  28.708  34.814  0.00  0.00     0.182 A 
ATOM      5  N   UNL d   1     -48.420  28.839  35.447  0.00  0.00    -0.283 N 
ATOM      6  C   UNL d   1     -48.042  29.564  35.340  0.00  0.00     0.094 A 
ATOM      7  C   UNL d   1     -47.480  29.978  35.801  0.00  0.00     0.111 A 
ATOM      8  C   UNL d   1     -48.307  29.887  34.636  0.00  0.00     0.050 A 
ATOM      9  C   UNL d   1     -47.203  30.704  35.539  0.00  0.00     0.026 A 
ATOM     10  C   UNL d   1     -47.465  31.034  34.834  0.00  0.00     0.003 A 
ATOM     11  C   UNL d   1     -48.021  30.622  34.380  0.00  0.00     0.008 A 
ATOM     12  S   UNL d   1     -48.852  29.364  34.303  0.00  0.00    -0.048 SA
BRANCH   5  13
ATOM     13  C   UNL d   1     -48.307  28.336  36.089  0.00  0.00     0.082 C 
ATOM     14  C   UNL d   1     -48.878  28.478  36.664  0.00  0.00     0.021 C 
ENDBRANCH   5  13
BRANCH   7  15
ATOM     15  O   UNL d   1     -47.216  29.659  36.500  0.00  0.00    -0.327 OA
ATOM     16  C   UNL d   1     -46.696  30.076  36.972  0.00  0.00     0.181 C 
ENDBRANCH   7  15
ENDBRANCH   1   4
BRANCH   2  17
ATOM     17  C   UNL d   1     -49.906  26.992  33.861  0.00  0.00     0.058 A 
ATOM     18  C   UNL d   1     -49.625  26.359  33.419  0.00  0.00     0.005 A 
ATOM     19  C   UNL d   1     -50.098  25.693  33.307  0.00  0.00     0.013 A 
ATOM     20  C   UNL d   1     -50.858  25.665  33.643  0.00  0.00     0.104 A 
ATOM     21  C   UNL d   1     -51.133  26.312  34.089  0.00  0.00     0.013 A 
ATOM     22  C   UNL d   1     -50.659  26.978  34.201  0.00  0.00     0.005 A 
BRANCH  20  23
ATOM     23  S   UNL d   1     -51.334  25.002  33.533  0.00  0.00     0.271 S 
ATOM     24  O   UNL d   1     -50.638  24.583  33.339  0.00  0.00    -0.200 OA
ATOM     25  O   UNL d   1     -52.013  25.415  33.724  0.00  0.00    -0.200 OA
BRANCH  23  26
ATOM     26  N   UNL d   1     -51.804  24.337  33.423  0.00  0.00    -0.226 N 
ATOM     27  C   UNL d   1     -52.624  24.425  33.311  0.00  0.00     0.111 C 
ATOM     28  C   UNL d   1     -51.486  23.584  33.420  0.00  0.00     0.111 C 
ENDBRANCH  23  26
ENDBRANCH  20  23
ENDBRANCH   2  17
TORSDOF 6
ENDMDL
MODEL 2
REMARK VINA RESULT:      75.2      1.219      5.710
REMARK  6 active torsions:
REMARK  status: ('A' for Active; 'I' for Inactive)
REMARK    1  A    between atoms: N_3  and  C_1 
REMARK    2  A    between atoms: S_2  and  C_9 
REMARK    3  A    between atoms: N_10  and  S_2 
REMARK       I    between atoms: C_8  and  N_3 
REMARK    4  A    between atoms: C_20  and  N_4 
REMARK    5  A    between atoms: C_13  and  C_8 
REMARK    6  A    between atoms: O_22  and  C_14 
ROOT
ATOM      1  N   UNL d   1     -50.128  26.981  33.935  0.00  0.00    -0.184 NA
ATOM      2  C   UNL d   1     -49.967  27.223  34.714  0.00  0.00     0.281 C 
ATOM      3  O   UNL d   1     -50.377  26.882  35.342  0.00  0.00    -0.265 OA
ENDROOT
BRANCH   1   4
ATOM      4  C   UNL d   1     -50.704  26.393  33.798  0.00  0.00     0.182 A 
ATOM      5  N   UNL d   1     -50.569  25.588  33.791  0.00  0.00    -0.283 N 
ATOM      6  C   UNL d   1     -51.280  25.202  33.635  0.00  0.00     0.094 A 
ATOM      7  C   UNL d   1     -51.475  24.391  33.563  0.00  0.00     0.111 A 
ATOM      8  C   UNL d   1     -51.862  25.769  33.543  0.00  0.00     0.050 A 
ATOM      9  C   UNL d   1     -52.250  24.178  33.402  0.00  0.00     0.026 A 
ATOM     10  C   UNL d   1     -52.839  24.742  33.308  0.00  0.00     0.003 A 
ATOM     11  C   UNL d   1     -52.644  25.544  33.380  0.00  0.00     0.008 A 
ATOM     12  S   UNL d   1     -51.515  26.511  33.642  0.00  0.00    -0.048 SA
BRANCH   5  13
ATOM     13  C   UNL d   1     -49.845  25.215  33.919  0.00  0.00     0.082 C 
ATOM     14  C   UNL d   1     -49.696  24.674  33.318  0.00  0.00     0.021 C 
ENDBRANCH   5  13
BRANCH   7  15
ATOM     15  O   UNL d   1     -50.899  23.826  33.654  0.00  0.00    -0.327 OA
ATOM     16  C   UNL d   1     -51.013  23.200  34.166  0.00  0.00     0.181 C 
ENDBRANCH   7  15
ENDBRANCH   1   4
BRANCH   2  17
ATOM     17  C   UNL d   1     -49.396  27.806  34.856  0.00  0.00     0.058 A 
ATOM     18  C   UNL d   1     -48.990  28.137  34.222  0.00  0.00     0.005 A 
ATOM     19  C   UNL d   1     -48.420  28.718  34.357  0.00  0.00     0.013 A 
ATOM     20  C   UNL d   1     -48.260  28.966  35.134  0.00  0.00     0.104 A 
ATOM     21  C   UNL d   1     -48.677  28.625  35.768  0.00  0.00     0.013 A 
ATOM     22  C   UNL d   1     -49.247  28.044  35.633  0.00  0.00     0.005 A 
BRANCH  20  23
ATOM     23  S   UNL d   1     -47.692  29.546  35.272  0.00  0.00     0.271 S 
ATOM     24  O   UNL d   1     -48.240  30.100  34.974  0.00  0.00    -0.200 OA
ATOM     25  O   UNL d   1     -47.157  29.001  35.564  0.00  0.00    -0.200 OA
BRANCH  23  26
ATOM     26  N   UNL d   1     -47.128  30.129  35.409  0.00  0.00    -0.226 N 
ATOM     27  C   UNL d   1     -47.325  30.795  35.864  0.00  0.00     0.111 C 
ATOM     28  C   UNL d   1     -46.371  30.069  35.106  0.00  0.00     0.111 C 
ENDBRANCH  23  26
ENDBRANCH  20  23
ENDBRANCH   2  17
TORSDOF 6
ENDMDL
