MODEL 1
REMARK VINA RESULT:      -8.5      0.000      0.000
REMARK  5 active torsions:
REMARK  status: ('A' for Active; 'I' for Inactive)
REMARK    1  A    between atoms: N_8  and  S_1 
REMARK    2  A    between atoms: C_18  and  S_1 
REMARK    3  A    between atoms: C_13  and  C_3 
REMARK    4  A    between atoms: C_5  and  C_11 
REMARK    5  A    between atoms: C_17  and  N_8 
ROOT
ATOM      1  N   UNL d   1     -47.901  12.257  22.991  0.00  0.00    -0.246 NA
ATOM      2  C   UNL d   1     -48.900  13.575  22.938  0.00  0.00     0.003 A 
ATOM      3  C   UNL d   1     -49.200  12.833  23.145  0.00  0.00     0.018 A 
ATOM      4  C   UNL d   1     -47.598  12.997  22.784  0.00  0.00     0.081 A 
ATOM      5  C   UNL d   1     -48.096  13.654  22.758  0.00  0.00     0.019 A 
ATOM      6  C   UNL d   1     -48.702  12.176  23.171  0.00  0.00     0.081 A 
ATOM      7  C   UNL d   1     -50.003  12.755  23.325  0.00  0.00     0.002 A 
ATOM      8  C   UNL d   1     -49.005  11.437  23.377  0.00  0.00     0.019 A 
ATOM      9  C   UNL d   1     -50.304  12.012  23.531  0.00  0.00     0.000 A 
ATOM     10  C   UNL d   1     -49.806  11.355  23.558  0.00  0.00     0.002 A 
ATOM     11  C   UNL d   1     -51.064  11.966  23.696  0.00  0.00     0.000 C 
ENDROOT
BRANCH   4  12
ATOM     12  C   UNL d   1     -46.798  13.078  22.604  0.00  0.00     0.018 A 
ATOM     13  C   UNL d   1     -46.284  13.417  23.152  0.00  0.00     0.003 A 
ATOM     14  C   UNL d   1     -45.483  13.498  22.972  0.00  0.00     0.020 A 
ATOM     15  C   UNL d   1     -45.196  13.240  22.242  0.00  0.00     0.094 A 
ATOM     16  C   UNL d   1     -45.710  12.901  21.695  0.00  0.00     0.020 A 
ATOM     17  C   UNL d   1     -46.512  12.820  21.875  0.00  0.00     0.003 A 
BRANCH  15  18
ATOM     18  N   UNL d   1     -44.395  13.321  22.062  0.00  0.00    -0.158 NA
BRANCH  18  19
ATOM     19  S   UNL d   1     -43.944  12.655  21.877  0.00  0.00     0.286 S 
ATOM     20  O   UNL d   1     -43.521  12.032  21.704  0.00  0.00    -0.198 OA
ATOM     21  O   UNL d   1     -44.220  12.279  22.560  0.00  0.00    -0.198 OA
BRANCH  19  22
ATOM     22  C   UNL d   1     -43.669  13.031  21.196  0.00  0.00     0.117 C 
ATOM     23  C   UNL d   1     -42.873  12.824  21.138  0.00  0.00     0.014 C 
ENDBRANCH  19  22
ENDBRANCH  18  19
ENDBRANCH  15  18
ENDBRANCH   4  12
BRANCH   2  24
ATOM     24  C   UNL d   1     -49.391  14.224  22.913  0.00  0.00     0.000 A 
ATOM     25  C   UNL d   1     -49.476  14.702  23.578  0.00  0.00     0.000 A 
ATOM     26  C   UNL d   1     -49.975  15.361  23.552  0.00  0.00     0.000 A 
ATOM     27  C   UNL d   1     -50.388  15.540  22.860  0.00  0.00     0.000 A 
ATOM     28  C   UNL d   1     -50.302  15.059  22.194  0.00  0.00     0.000 A 
ATOM     29  C   UNL d   1     -49.803  14.400  22.220  0.00  0.00     0.000 A 
ENDBRANCH   2  24
TORSDOF 5
ENDMDL
MODEL 2
REMARK VINA RESULT:      -6.0      1.632      2.572
REMARK  5 active torsions:
REMARK  status: ('A' for Active; 'I' for Inactive)
REMARK    1  A    between atoms: N_8  and  S_1 
REMARK    2  A    between atoms: C_18  and  S_1 
REMARK    3  A    between atoms: C_13  and  C_3 
REMARK    4  A    between atoms: C_5  and  C_11 
REMARK    5  A    between atoms: C_17  and  N_8 
ROOT
ATOM      1  N   UNL d   1     -47.046  13.561  22.929  0.00  0.00    -0.246 NA
ATOM      2  C   UNL d   1     -48.606  13.010  22.903  0.00  0.00     0.003 A 
ATOM      3  C   UNL d   1     -48.449  13.819  22.844  0.00  0.00     0.018 A 
ATOM      4  C   UNL d   1     -47.200  12.752  22.988  0.00  0.00     0.081 A 
ATOM      5  C   UNL d   1     -47.978  12.477  22.975  0.00  0.00     0.019 A 
ATOM      6  C   UNL d   1     -47.671  14.094  22.856  0.00  0.00     0.081 A 
ATOM      7  C   UNL d   1     -49.077  14.352  22.771  0.00  0.00     0.002 A 
ATOM      8  C   UNL d   1     -47.518  14.902  22.797  0.00  0.00     0.019 A 
ATOM      9  C   UNL d   1     -48.921  15.162  22.712  0.00  0.00     0.000 A 
ATOM     10  C   UNL d   1     -48.143  15.436  22.725  0.00  0.00     0.002 A 
ATOM     11  C   UNL d   1     -49.530  15.642  22.645  0.00  0.00     0.000 C 
ENDROOT
BRANCH   4  12
ATOM     12  C   UNL d   1     -46.575  12.218  23.060  0.00  0.00     0.018 A 
ATOM     13  C   UNL d   1     -45.916  12.285  22.570  0.00  0.00     0.003 A 
ATOM     14  C   UNL d   1     -45.291  11.752  22.642  0.00  0.00     0.020 A 
ATOM     15  C   UNL d   1     -45.326  11.151  23.207  0.00  0.00     0.094 A 
ATOM     16  C   UNL d   1     -45.984  11.084  23.698  0.00  0.00     0.020 A 
ATOM     17  C   UNL d   1     -46.610  11.618  23.625  0.00  0.00     0.003 A 
BRANCH  15  18
ATOM     18  N   UNL d   1     -44.701  10.617  23.279  0.00  0.00    -0.158 NA
BRANCH  18  19
ATOM     19  S   UNL d   1     -43.924  10.875  23.174  0.00  0.00     0.286 S 
ATOM     20  O   UNL d   1     -43.196  11.116  23.075  0.00  0.00    -0.198 OA
ATOM     21  O   UNL d   1     -44.192  11.485  22.685  0.00  0.00    -0.198 OA
BRANCH  19  22
ATOM     22  C   UNL d   1     -43.656  10.265  23.661  0.00  0.00     0.117 C 
ATOM     23  C   UNL d   1     -42.837  10.358  23.697  0.00  0.00     0.014 C 
ENDBRANCH  19  22
ENDBRANCH  18  19
ENDBRANCH  15  18
ENDBRANCH   4  12
BRANCH   2  24
ATOM     24  C   UNL d   1     -49.373  12.739  22.890  0.00  0.00     0.000 A 
ATOM     25  C   UNL d   1     -49.731  12.551  22.172  0.00  0.00     0.000 A 
ATOM     26  C   UNL d   1     -50.511  12.276  22.159  0.00  0.00     0.000 A 
ATOM     27  C   UNL d   1     -50.931  12.189  22.864  0.00  0.00     0.000 A 
ATOM     28  C   UNL d   1     -50.571  12.379  23.583  0.00  0.00     0.000 A 
ATOM     29  C   UNL d   1     -49.791  12.654  23.596  0.00  0.00     0.000 A 
ENDBRANCH   2  24
TORSDOF 5
ENDMDL
