MODEL 1
REMARK VINA RESULT:      -8.9      0.000      0.000
REMARK  1 active torsions:
REMARK  status: ('A' for Active; 'I' for Inactive)
REMARK    1  A    between atoms: C_9  and  C_1 
ROOT
ATOM      1  C   UNL d   1     -48.280  13.810  22.911  0.00  0.00     0.064 A 
ATOM      2  C   UNL d   1     -48.317  13.025  23.182  0.00  0.00     0.199 A 
ATOM      3  C   UNL d   1     -47.607  12.609  23.305  0.00  0.00     0.062 A 
ATOM      4  C   UNL d   1     -47.555  14.169  22.767  0.00  0.00     0.126 A 
ATOM      5  C   UNL d   1     -46.882  12.968  23.162  0.00  0.00     0.106 A 
ATOM      6  O   UNL d   1     -46.852  13.750  22.892  0.00  0.00    -0.305 OA
ATOM      7  C   UNL d   1     -47.647  11.830  23.574  0.00  0.00     0.009 A 
ATOM      8  C   UNL d   1     -46.183  12.555  23.285  0.00  0.00     0.067 A 
ATOM      9  O   UNL d   1     -49.039  12.667  23.325  0.00  0.00    -0.286 OA
ATOM     10  C   UNL d   1     -46.212  11.773  23.554  0.00  0.00     0.198 A 
ATOM     11  C   UNL d   1     -46.938  11.414  23.698  0.00  0.00     0.042 A 
ATOM     12  O   UNL d   1     -45.500  11.337  23.685  0.00  0.00    -0.286 OA
ENDROOT
BRANCH   1  13
ATOM     13  C   UNL d   1     -48.988  14.222  22.789  0.00  0.00     0.005 A 
ATOM     14  C   UNL d   1     -49.444  14.082  22.124  0.00  0.00     0.000 A 
ATOM     15  C   UNL d   1     -50.155  14.498  22.003  0.00  0.00     0.000 A 
ATOM     16  C   UNL d   1     -50.389  15.052  22.567  0.00  0.00     0.000 A 
ATOM     17  C   UNL d   1     -49.933  15.192  23.232  0.00  0.00     0.000 A 
ATOM     18  C   UNL d   1     -49.228  14.783  23.355  0.00  0.00     0.000 A 
ENDBRANCH   1  13
TORSDOF 1
ENDMDL
MODEL 2
REMARK VINA RESULT:      -8.6      1.007      1.500
REMARK  1 active torsions:
REMARK  status: ('A' for Active; 'I' for Inactive)
REMARK    1  A    between atoms: C_9  and  C_1 
ROOT
ATOM      1  C   UNL d   1     -49.000  12.613  22.939  0.00  0.00     0.064 A 
ATOM      2  C   UNL d   1     -48.269  12.999  22.847  0.00  0.00     0.199 A 
ATOM      3  C   UNL d   1     -47.573  12.597  23.062  0.00  0.00     0.062 A 
ATOM      4  C   UNL d   1     -49.034  11.848  23.237  0.00  0.00     0.126 A 
ATOM      5  C   UNL d   1     -47.608  11.832  23.360  0.00  0.00     0.106 A 
ATOM      6  O   UNL d   1     -48.338  11.453  23.449  0.00  0.00    -0.305 OA
ATOM      7  C   UNL d   1     -46.849  12.983  22.970  0.00  0.00     0.009 A 
ATOM      8  C   UNL d   1     -46.919  11.437  23.572  0.00  0.00     0.067 A 
ATOM      9  O   UNL d   1     -48.234  13.760  22.550  0.00  0.00    -0.286 OA
ATOM     10  C   UNL d   1     -46.188  11.815  23.483  0.00  0.00     0.198 A 
ATOM     11  C   UNL d   1     -46.154  12.581  23.185  0.00  0.00     0.042 A 
ATOM     12  O   UNL d   1     -45.472  11.421  23.697  0.00  0.00    -0.286 OA
ENDROOT
BRANCH   1  13
ATOM     13  C   UNL d   1     -49.691  13.015  22.724  0.00  0.00     0.005 A 
ATOM     14  C   UNL d   1     -49.999  12.943  21.969  0.00  0.00     0.000 A 
ATOM     15  C   UNL d   1     -50.694  13.348  21.756  0.00  0.00     0.000 A 
ATOM     16  C   UNL d   1     -51.064  13.822  22.320  0.00  0.00     0.000 A 
ATOM     17  C   UNL d   1     -50.757  13.894  23.075  0.00  0.00     0.000 A 
ATOM     18  C   UNL d   1     -50.068  13.495  23.291  0.00  0.00     0.000 A 
ENDBRANCH   1  13
TORSDOF 1
ENDMDL
MODEL 3
REMARK VINA RESULT:      -7.6      1.450      3.239
REMARK  1 active torsions:
REMARK  status: ('A' for Active; 'I' for Inactive)
REMARK    1  A    between atoms: C_9  and  C_1 
ROOT
ATOM      1  C   UNL d   1     -47.580  12.772  23.058  0.00  0.00     0.064 A 
ATOM      2  C   UNL d   1     -48.327  13.085  22.869  0.00  0.00     0.199 A 
ATOM      3  C   UNL d   1     -49.008  12.655  23.080  0.00  0.00     0.062 A 
ATOM      4  C   UNL d   1     -47.516  12.050  23.447  0.00  0.00     0.126 A 
ATOM      5  C   UNL d   1     -48.943  11.934  23.469  0.00  0.00     0.106 A 
ATOM      6  O   UNL d   1     -48.197  11.628  23.654  0.00  0.00    -0.305 OA
ATOM      7  C   UNL d   1     -49.747  12.969  22.891  0.00  0.00     0.009 A 
ATOM      8  C   UNL d   1     -49.617  11.512  23.676  0.00  0.00     0.067 A 
ATOM      9  O   UNL d   1     -48.392  13.803  22.482  0.00  0.00    -0.286 OA
ATOM     10  C   UNL d   1     -50.363  11.818  23.490  0.00  0.00     0.198 A 
ATOM     11  C   UNL d   1     -50.428  12.540  23.102  0.00  0.00     0.042 A 
ATOM     12  O   UNL d   1     -51.064  11.394  23.698  0.00  0.00    -0.286 OA
ENDROOT
BRANCH   1  13
ATOM     13  C   UNL d   1     -46.904  13.201  22.847  0.00  0.00     0.005 A 
ATOM     14  C   UNL d   1     -46.313  12.856  22.399  0.00  0.00     0.000 A 
ATOM     15  C   UNL d   1     -45.635  13.289  22.188  0.00  0.00     0.000 A 
ATOM     16  C   UNL d   1     -45.571  14.072  22.441  0.00  0.00     0.000 A 
ATOM     17  C   UNL d   1     -46.162  14.417  22.889  0.00  0.00     0.000 A 
ATOM     18  C   UNL d   1     -46.836  13.991  23.100  0.00  0.00     0.000 A 
ENDBRANCH   1  13
TORSDOF 1
ENDMDL
MODEL 4
REMARK VINA RESULT:      -6.3      8.450      9.793
REMARK  1 active torsions:
REMARK  status: ('A' for Active; 'I' for Inactive)
REMARK    1  A    between atoms: C_9  and  C_1 
ROOT
ATOM      1  C   UNL d   1     -40.166  14.818  18.813  0.00  0.00     0.064 A 
ATOM      2  C   UNL d   1     -39.495  14.332  18.743  0.00  0.00     0.199 A 
ATOM      3  C   UNL d   1     -39.206  14.154  17.984  0.00  0.00     0.062 A 
ATOM      4  C   UNL d   1     -40.538  15.116  18.144  0.00  0.00     0.126 A 
ATOM      5  C   UNL d   1     -39.577  14.453  17.315  0.00  0.00     0.106 A 
ATOM      6  O   UNL d   1     -40.245  14.935  17.391  0.00  0.00    -0.305 OA
ATOM      7  C   UNL d   1     -38.539  13.672  17.918  0.00  0.00     0.009 A 
ATOM      8  C   UNL d   1     -39.289  14.275  16.566  0.00  0.00     0.067 A 
ATOM      9  O   UNL d   1     -39.125  14.035  19.410  0.00  0.00    -0.286 OA
ATOM     10  C   UNL d   1     -38.621  13.792  16.490  0.00  0.00     0.198 A 
ATOM     11  C   UNL d   1     -38.250  13.494  17.159  0.00  0.00     0.042 A 
ATOM     12  O   UNL d   1     -38.315  13.602  15.725  0.00  0.00    -0.286 OA
ENDROOT
BRANCH   1  13
ATOM     13  C   UNL d   1     -40.453  14.994  19.570  0.00  0.00     0.005 A 
ATOM     14  C   UNL d   1     -40.875  14.438  19.997  0.00  0.00     0.000 A 
ATOM     15  C   UNL d   1     -41.161  14.618  20.758  0.00  0.00     0.000 A 
ATOM     16  C   UNL d   1     -41.011  15.366  21.070  0.00  0.00     0.000 A 
ATOM     17  C   UNL d   1     -40.589  15.922  20.643  0.00  0.00     0.000 A 
ATOM     18  C   UNL d   1     -40.303  15.748  19.889  0.00  0.00     0.000 A 
ENDBRANCH   1  13
TORSDOF 1
ENDMDL
MODEL 5
REMARK VINA RESULT:      -6.2      8.602      9.570
REMARK  1 active torsions:
REMARK  status: ('A' for Active; 'I' for Inactive)
REMARK    1  A    between atoms: C_9  and  C_1 
ROOT
ATOM      1  C   UNL d   1     -39.917  14.884  19.985  0.00  0.00     0.064 A 
ATOM      2  C   UNL d   1     -39.865  14.466  19.268  0.00  0.00     0.199 A 
ATOM      3  C   UNL d   1     -40.218  14.790  18.589  0.00  0.00     0.062 A 
ATOM      4  C   UNL d   1     -40.312  15.605  20.022  0.00  0.00     0.126 A 
ATOM      5  C   UNL d   1     -40.613  15.510  18.625  0.00  0.00     0.106 A 
ATOM      6  O   UNL d   1     -40.661  15.921  19.342  0.00  0.00    -0.305 OA
ATOM      7  C   UNL d   1     -40.165  14.372  17.878  0.00  0.00     0.009 A 
ATOM      8  C   UNL d   1     -40.961  15.827  17.952  0.00  0.00     0.067 A 
ATOM      9  O   UNL d   1     -39.473  13.750  19.232  0.00  0.00    -0.286 OA
ATOM     10  C   UNL d   1     -40.912  15.416  17.235  0.00  0.00     0.198 A 
ATOM     11  C   UNL d   1     -40.518  14.696  17.199  0.00  0.00     0.042 A 
ATOM     12  O   UNL d   1     -41.266  15.731  16.535  0.00  0.00    -0.286 OA
ENDROOT
BRANCH   1  13
ATOM     13  C   UNL d   1     -39.565  14.561  20.661  0.00  0.00     0.005 A 
ATOM     14  C   UNL d   1     -38.762  14.642  20.793  0.00  0.00     0.000 A 
ATOM     15  C   UNL d   1     -38.409  14.316  21.473  0.00  0.00     0.000 A 
ATOM     16  C   UNL d   1     -38.887  13.910  22.009  0.00  0.00     0.000 A 
ATOM     17  C   UNL d   1     -39.690  13.828  21.877  0.00  0.00     0.000 A 
ATOM     18  C   UNL d   1     -40.043  14.150  21.205  0.00  0.00     0.000 A 
ENDBRANCH   1  13
TORSDOF 1
ENDMDL
MODEL 6
REMARK VINA RESULT:      -6.2      8.649     10.281
REMARK  1 active torsions:
REMARK  status: ('A' for Active; 'I' for Inactive)
REMARK    1  A    between atoms: C_9  and  C_1 
ROOT
ATOM      1  C   UNL d   1     -39.529  14.216  18.029  0.00  0.00     0.064 A 
ATOM      2  C   UNL d   1     -39.245  14.782  18.568  0.00  0.00     0.199 A 
ATOM      3  C   UNL d   1     -39.721  14.991  19.217  0.00  0.00     0.062 A 
ATOM      4  C   UNL d   1     -40.267  13.870  18.136  0.00  0.00     0.126 A 
ATOM      5  C   UNL d   1     -40.458  14.645  19.325  0.00  0.00     0.106 A 
ATOM      6  O   UNL d   1     -40.735  14.083  18.784  0.00  0.00    -0.305 OA
ATOM      7  C   UNL d   1     -39.436  15.553  19.751  0.00  0.00     0.009 A 
ATOM      8  C   UNL d   1     -40.925  14.854  19.967  0.00  0.00     0.067 A 
ATOM      9  O   UNL d   1     -38.511  15.126  18.461  0.00  0.00    -0.286 OA
ATOM     10  C   UNL d   1     -40.649  15.417  20.507  0.00  0.00     0.198 A 
ATOM     11  C   UNL d   1     -39.911  15.763  20.400  0.00  0.00     0.042 A 
ATOM     12  O   UNL d   1     -41.119  15.640  21.172  0.00  0.00    -0.286 OA
ENDROOT
BRANCH   1  13
ATOM     13  C   UNL d   1     -39.055  14.008  17.383  0.00  0.00     0.005 A 
ATOM     14  C   UNL d   1     -39.057  14.460  16.700  0.00  0.00     0.000 A 
ATOM     15  C   UNL d   1     -38.579  14.249  16.052  0.00  0.00     0.000 A 
ATOM     16  C   UNL d   1     -38.104  13.578  16.113  0.00  0.00     0.000 A 
ATOM     17  C   UNL d   1     -38.102  13.126  16.795  0.00  0.00     0.000 A 
ATOM     18  C   UNL d   1     -38.574  13.331  17.440  0.00  0.00     0.000 A 
ENDBRANCH   1  13
TORSDOF 1
ENDMDL
