MODEL 1
REMARK VINA RESULT:       6.7      0.000      0.000
REMARK  1 active torsions:
REMARK  status: ('A' for Active; 'I' for Inactive)
REMARK    1  A    between atoms: C_6  and  C_3 
ROOT
ATOM      1  N   UNL d   1      14.061  11.966  -3.031  0.00  0.00    -0.228 NA
ATOM      2  C   UNL d   1      13.515  11.953  -3.648  0.00  0.00     0.166 A 
ATOM      3  C   UNL d   1      13.645  11.859  -2.327  0.00  0.00     0.089 A 
ATOM      4  S   UNL d   1      12.771  11.841  -3.331  0.00  0.00    -0.055 SA
ATOM      5  C   UNL d   1      12.840  11.781  -2.508  0.00  0.00     0.057 A 
ATOM      6  S   UNL d   1      13.695  12.040  -4.450  0.00  0.00    -0.050 SA
ENDROOT
BRANCH   3   7
ATOM      7  C   UNL d   1      13.973  11.834  -1.567  0.00  0.00     0.018 A 
ATOM      8  C   UNL d   1      14.789  11.836  -1.475  0.00  0.00     0.002 A 
ATOM      9  C   UNL d   1      15.120  11.812  -0.723  0.00  0.00     0.000 A 
ATOM     10  C   UNL d   1      14.625  11.785  -0.053  0.00  0.00     0.000 A 
ATOM     11  C   UNL d   1      13.812  11.784  -0.154  0.00  0.00     0.000 A 
ATOM     12  C   UNL d   1      13.481  11.809  -0.909  0.00  0.00     0.002 A 
ENDBRANCH   3   7
TORSDOF 1
ENDMDL
MODEL 2
REMARK VINA RESULT:       7.1      1.543      3.014
REMARK  1 active torsions:
REMARK  status: ('A' for Active; 'I' for Inactive)
REMARK    1  A    between atoms: C_6  and  C_3 
ROOT
ATOM      1  N   UNL d   1      14.569  12.359  -2.012  0.00  0.00    -0.228 NA
ATOM      2  C   UNL d   1      14.614  12.096  -1.232  0.00  0.00     0.166 A 
ATOM      3  C   UNL d   1      13.806  12.202  -2.284  0.00  0.00     0.089 A 
ATOM      4  S   UNL d   1      13.890  11.783  -1.024  0.00  0.00    -0.055 SA
ATOM      5  C   UNL d   1      13.378  11.843  -1.671  0.00  0.00     0.057 A 
ATOM      6  S   UNL d   1      15.282  12.146  -0.747  0.00  0.00    -0.050 SA
ENDROOT
BRANCH   3   7
ATOM      7  C   UNL d   1      13.514  12.374  -3.040  0.00  0.00     0.018 A 
ATOM      8  C   UNL d   1      13.147  11.786  -3.478  0.00  0.00     0.002 A 
ATOM      9  C   UNL d   1      12.855  11.951  -4.229  0.00  0.00     0.000 A 
ATOM     10  C   UNL d   1      12.934  12.718  -4.545  0.00  0.00     0.000 A 
ATOM     11  C   UNL d   1      13.302  13.300  -4.100  0.00  0.00     0.000 A 
ATOM     12  C   UNL d   1      13.594  13.132  -3.347  0.00  0.00     0.002 A 
ENDBRANCH   3   7
TORSDOF 1
ENDMDL
