MODEL 1
REMARK VINA RESULT:       1.6      0.000      0.000
REMARK  6 active torsions:
REMARK  status: ('A' for Active; 'I' for Inactive)
REMARK    1  A    between atoms: C_3  and  N_1 
REMARK    2  A    between atoms: N_7  and  C_3 
REMARK    3  A    between atoms: C_10  and  C_4 
REMARK    4  A    between atoms: C_9  and  C_5 
REMARK    5  A    between atoms: C_13  and  N_7 
REMARK    6  A    between atoms: O_17  and  C_14 
ROOT
ATOM      1  N   UNL d   1      31.996  18.663 -24.553  0.00  0.00    -0.203 N 
ATOM      2  N   UNL d   1      32.043  19.457 -24.737  0.00  0.00    -0.163 NA
ATOM      3  C   UNL d   1      32.620  19.788 -24.286  0.00  0.00     0.103 A 
ATOM      4  C   UNL d   1      32.557  18.485 -23.970  0.00  0.00     0.087 A 
ATOM      5  C   UNL d   1      32.942  19.192 -23.810  0.00  0.00     0.040 A 
ENDROOT
BRANCH   1   6
ATOM      6  C   UNL d   1      31.451  18.126 -24.914  0.00  0.00     0.222 C 
ATOM      7  S   UNL d   1      31.683  17.346 -25.089  0.00  0.00    -0.037 SA
BRANCH   6   8
ATOM      8  N   UNL d   1      30.690  18.367 -25.096  0.00  0.00    -0.217 NA
BRANCH   8   9
ATOM      9  C   UNL d   1      30.032  17.922 -24.857  0.00  0.00     0.084 A 
ATOM     10  C   UNL d   1      29.978  17.133 -25.068  0.00  0.00     0.019 A 
ATOM     11  C   UNL d   1      29.316  16.685 -24.828  0.00  0.00     0.002 A 
ATOM     12  C   UNL d   1      28.724  17.045 -24.379  0.00  0.00     0.000 A 
ATOM     13  C   UNL d   1      28.801  17.833 -24.181  0.00  0.00     0.002 A 
ATOM     14  C   UNL d   1      29.453  18.281 -24.416  0.00  0.00     0.019 A 
ENDBRANCH   8   9
ENDBRANCH   6   8
ENDBRANCH   1   6
BRANCH   4  15
ATOM     15  C   UNL d   1      32.713  17.758 -23.613  0.00  0.00     0.018 A 
ATOM     16  C   UNL d   1      33.085  17.159 -24.052  0.00  0.00     0.004 A 
ATOM     17  C   UNL d   1      33.240  16.446 -23.708  0.00  0.00     0.024 A 
ATOM     18  C   UNL d   1      33.032  16.295 -22.910  0.00  0.00     0.094 A 
ATOM     19  C   UNL d   1      32.669  16.891 -22.492  0.00  0.00     0.024 A 
ATOM     20  C   UNL d   1      32.504  17.632 -22.839  0.00  0.00     0.004 A 
BRANCH  18  21
ATOM     21  O   UNL d   1      33.197  15.554 -22.563  0.00  0.00    -0.328 OA
ATOM     22  C   UNL d   1      33.240  15.453 -21.737  0.00  0.00     0.181 C 
ENDBRANCH  18  21
ENDBRANCH   4  15
BRANCH   3  23
ATOM     23  C   UNL d   1      32.825  20.574 -24.319  0.00  0.00     0.019 A 
ATOM     24  C   UNL d   1      32.930  20.950 -25.051  0.00  0.00     0.002 A 
ATOM     25  C   UNL d   1      33.139  21.753 -25.080  0.00  0.00     0.000 A 
ATOM     26  C   UNL d   1      33.241  22.173 -24.385  0.00  0.00     0.000 A 
ATOM     27  C   UNL d   1      33.135  21.796 -23.654  0.00  0.00     0.000 A 
ATOM     28  C   UNL d   1      32.926  20.994 -23.626  0.00  0.00     0.002 A 
ENDBRANCH   3  23
TORSDOF 6
ENDMDL
MODEL 2
REMARK VINA RESULT:       2.6      4.060      6.130
REMARK  6 active torsions:
REMARK  status: ('A' for Active; 'I' for Inactive)
REMARK    1  A    between atoms: C_3  and  N_1 
REMARK    2  A    between atoms: N_7  and  C_3 
REMARK    3  A    between atoms: C_10  and  C_4 
REMARK    4  A    between atoms: C_9  and  C_5 
REMARK    5  A    between atoms: C_13  and  N_7 
REMARK    6  A    between atoms: O_17  and  C_14 
ROOT
ATOM      1  N   UNL d   1      32.978  22.097 -21.141  0.00  0.00    -0.203 N 
ATOM      2  N   UNL d   1      32.986  21.511 -21.709  0.00  0.00    -0.163 NA
ATOM      3  C   UNL d   1      33.108  20.805 -21.344  0.00  0.00     0.103 A 
ATOM      4  C   UNL d   1      33.096  21.755 -20.396  0.00  0.00     0.087 A 
ATOM      5  C   UNL d   1      33.176  20.950 -20.531  0.00  0.00     0.040 A 
ENDROOT
BRANCH   1   6
ATOM      6  C   UNL d   1      32.863  22.918 -21.311  0.00  0.00     0.222 C 
ATOM      7  S   UNL d   1      32.368  23.382 -20.829  0.00  0.00    -0.037 SA
BRANCH   6   8
ATOM      8  N   UNL d   1      33.237  23.265 -21.951  0.00  0.00    -0.217 NA
BRANCH   8   9
ATOM      9  C   UNL d   1      32.828  23.410 -22.658  0.00  0.00     0.084 A 
ATOM     10  C   UNL d   1      33.240  23.440 -23.366  0.00  0.00     0.019 A 
ATOM     11  C   UNL d   1      32.828  23.586 -24.077  0.00  0.00     0.002 A 
ATOM     12  C   UNL d   1      32.011  23.698 -24.057  0.00  0.00     0.000 A 
ATOM     13  C   UNL d   1      31.623  23.664 -23.339  0.00  0.00     0.002 A 
ATOM     14  C   UNL d   1      32.025  23.520 -22.632  0.00  0.00     0.019 A 
ENDBRANCH   8   9
ENDBRANCH   6   8
ENDBRANCH   1   6
BRANCH   4  15
ATOM     15  C   UNL d   1      33.130  22.128 -19.660  0.00  0.00     0.018 A 
ATOM     16  C   UNL d   1      33.206  22.953 -19.624  0.00  0.00     0.004 A 
ATOM     17  C   UNL d   1      33.239  23.323 -18.907  0.00  0.00     0.024 A 
ATOM     18  C   UNL d   1      33.199  22.888 -18.192  0.00  0.00     0.094 A 
ATOM     19  C   UNL d   1      33.126  22.079 -18.243  0.00  0.00     0.024 A 
ATOM     20  C   UNL d   1      33.090  21.688 -18.979  0.00  0.00     0.004 A 
BRANCH  18  21
ATOM     21  O   UNL d   1      33.235  23.279 -17.456  0.00  0.00    -0.328 OA
ATOM     22  C   UNL d   1      32.577  23.320 -16.946  0.00  0.00     0.181 C 
ENDBRANCH  18  21
ENDBRANCH   4  15
BRANCH   3  23
ATOM     23  C   UNL d   1      33.150  20.095 -21.735  0.00  0.00     0.019 A 
ATOM     24  C   UNL d   1      33.195  19.383 -21.312  0.00  0.00     0.002 A 
ATOM     25  C   UNL d   1      33.238  18.660 -21.716  0.00  0.00     0.000 A 
ATOM     26  C   UNL d   1      33.235  18.649 -22.535  0.00  0.00     0.000 A 
ATOM     27  C   UNL d   1      33.190  19.362 -22.958  0.00  0.00     0.000 A 
ATOM     28  C   UNL d   1      33.147  20.084 -22.553  0.00  0.00     0.002 A 
ENDBRANCH   3  23
TORSDOF 6
ENDMDL
MODEL 3
REMARK VINA RESULT:       3.4      2.790      4.586
REMARK  6 active torsions:
REMARK  status: ('A' for Active; 'I' for Inactive)
REMARK    1  A    between atoms: C_3  and  N_1 
REMARK    2  A    between atoms: N_7  and  C_3 
REMARK    3  A    between atoms: C_10  and  C_4 
REMARK    4  A    between atoms: C_9  and  C_5 
REMARK    5  A    between atoms: C_13  and  N_7 
REMARK    6  A    between atoms: O_17  and  C_14 
ROOT
ATOM      1  N   UNL d   1      33.003  21.135 -22.017  0.00  0.00    -0.203 N 
ATOM      2  N   UNL d   1      33.012  21.700 -21.427  0.00  0.00    -0.163 NA
ATOM      3  C   UNL d   1      33.123  21.329 -20.723  0.00  0.00     0.103 A 
ATOM      4  C   UNL d   1      33.112  20.387 -21.679  0.00  0.00     0.087 A 
ATOM      5  C   UNL d   1      33.186  20.517 -20.872  0.00  0.00     0.040 A 
ENDROOT
BRANCH   1   6
ATOM      6  C   UNL d   1      32.898  21.312 -22.838  0.00  0.00     0.222 C 
ATOM      7  S   UNL d   1      33.239  20.823 -23.420  0.00  0.00    -0.037 SA
BRANCH   6   8
ATOM      8  N   UNL d   1      32.462  21.964 -23.069  0.00  0.00    -0.217 NA
BRANCH   8   9
ATOM      9  C   UNL d   1      32.712  22.446 -23.697  0.00  0.00     0.084 A 
ATOM     10  C   UNL d   1      32.754  22.136 -24.453  0.00  0.00     0.019 A 
ATOM     11  C   UNL d   1      33.006  22.620 -25.085  0.00  0.00     0.002 A 
ATOM     12  C   UNL d   1      33.210  23.406 -24.937  0.00  0.00     0.000 A 
ATOM     13  C   UNL d   1      33.160  23.692 -24.173  0.00  0.00     0.002 A 
ATOM     14  C   UNL d   1      32.911  23.218 -23.545  0.00  0.00     0.019 A 
ENDBRANCH   8   9
ENDBRANCH   6   8
ENDBRANCH   1   6
BRANCH   4  15
ATOM     15  C   UNL d   1      33.143  19.654 -22.056  0.00  0.00     0.018 A 
ATOM     16  C   UNL d   1      33.167  18.961 -21.599  0.00  0.00     0.004 A 
ATOM     17  C   UNL d   1      33.197  18.240 -21.962  0.00  0.00     0.024 A 
ATOM     18  C   UNL d   1      33.205  18.176 -22.797  0.00  0.00     0.094 A 
ATOM     19  C   UNL d   1      33.181  18.863 -23.232  0.00  0.00     0.024 A 
ATOM     20  C   UNL d   1      33.150  19.612 -22.867  0.00  0.00     0.004 A 
BRANCH  18  21
ATOM     21  O   UNL d   1      33.237  17.427 -23.163  0.00  0.00    -0.328 OA
ATOM     22  C   UNL d   1      32.597  17.123 -23.604  0.00  0.00     0.181 C 
ENDBRANCH  18  21
ENDBRANCH   4  15
BRANCH   3  23
ATOM     23  C   UNL d   1      33.162  21.715 -20.009  0.00  0.00     0.019 A 
ATOM     24  C   UNL d   1      33.191  22.544 -19.982  0.00  0.00     0.002 A 
ATOM     25  C   UNL d   1      33.231  22.935 -19.251  0.00  0.00     0.000 A 
ATOM     26  C   UNL d   1      33.241  22.501 -18.556  0.00  0.00     0.000 A 
ATOM     27  C   UNL d   1      33.212  21.673 -18.585  0.00  0.00     0.000 A 
ATOM     28  C   UNL d   1      33.172  21.283 -19.316  0.00  0.00     0.002 A 
ENDBRANCH   3  23
TORSDOF 6
ENDMDL
