MODEL 1
REMARK VINA RESULT:      69.4      0.000      0.000
REMARK  9 active torsions:
REMARK  status: ('A' for Active; 'I' for Inactive)
REMARK    1  A    between atoms: C_6  and  C_1 
REMARK    2  A    between atoms: C_2  and  O_5 
REMARK    3  A    between atoms: C_4  and  C_2 
REMARK    4  A    between atoms: O_5  and  C_3 
REMARK    5  A    between atoms: C_7  and  C_6 
REMARK    6  A    between atoms: C_10  and  C_7 
REMARK    7  A    between atoms: O_25  and  C_8 
REMARK    8  A    between atoms: C_20  and  C_10 
REMARK    9  A    between atoms: O_27  and  C_14 
ROOT
ATOM      1  C   UNL d   1     -47.931  29.644  35.313  0.00  0.00     0.062 A 
ATOM      2  C   UNL d   1     -47.671  30.433  35.399  0.00  0.00     0.106 A 
ATOM      3  C   UNL d   1     -47.949  29.149  35.971  0.00  0.00     0.012 A 
ATOM      4  C   UNL d   1     -47.439  30.704  36.139  0.00  0.00     0.025 A 
ATOM      5  C   UNL d   1     -47.715  29.428  36.708  0.00  0.00     0.035 A 
ATOM      6  C   UNL d   1     -47.458  30.209  36.794  0.00  0.00     0.009 A 
ATOM      7 BR   UNL d   1     -47.735  28.929  37.366  0.00  0.00    -0.049 Br
ENDROOT
BRANCH   1   8
ATOM      8  C   UNL d   1     -48.165  29.365  34.572  0.00  0.00     0.198 C 
ATOM      9  O   UNL d   1     -47.721  29.556  33.902  0.00  0.00    -0.286 OA
BRANCH   8  10
ATOM     10  C   UNL d   1     -48.840  28.899  34.501  0.00  0.00     0.042 C 
BRANCH  10  11
ATOM     11  C   UNL d   1     -48.775  28.077  34.482  0.00  0.00     0.003 C 
BRANCH  11  12
ATOM     12  C   UNL d   1     -49.400  27.615  34.186  0.00  0.00     0.002 A 
ATOM     13  C   UNL d   1     -49.215  26.851  33.897  0.00  0.00     0.026 A 
ATOM     14  C   UNL d   1     -49.864  26.398  33.601  0.00  0.00     0.116 A 
ATOM     15  C   UNL d   1     -50.635  26.696  33.599  0.00  0.00     0.116 A 
ATOM     16  C   UNL d   1     -50.782  27.466  33.897  0.00  0.00     0.026 A 
ATOM     17  C   UNL d   1     -50.159  27.921  34.189  0.00  0.00     0.002 A 
BRANCH  14  18
ATOM     18  O   UNL d   1     -49.730  25.645  33.308  0.00  0.00    -0.326 OA
ATOM     19  C   UNL d   1     -49.042  25.233  33.511  0.00  0.00     0.181 C 
ENDBRANCH  14  18
BRANCH  15  20
ATOM     20  O   UNL d   1     -51.257  26.241  33.307  0.00  0.00    -0.326 OA
ATOM     21  C   UNL d   1     -52.022  26.343  33.606  0.00  0.00     0.181 C 
ENDBRANCH  15  20
ENDBRANCH  11  12
ENDBRANCH  10  11
ENDBRANCH   8  10
ENDBRANCH   1   8
BRANCH   2  22
ATOM     22  O   UNL d   1     -47.652  30.927  34.744  0.00  0.00    -0.271 OA
BRANCH  22  23
ATOM     23  C   UNL d   1     -47.384  31.705  34.828  0.00  0.00     0.323 C 
ATOM     24  O   UNL d   1     -46.836  31.901  35.419  0.00  0.00    -0.257 OA
BRANCH  23  25
ATOM     25  C   UNL d   1     -47.662  32.294  34.322  0.00  0.00     0.163 A 
ATOM     26  O   UNL d   1     -48.414  32.631  34.342  0.00  0.00    -0.300 OA
ATOM     27  C   UNL d   1     -48.454  33.202  33.732  0.00  0.00     0.123 A 
ATOM     28  C   UNL d   1     -47.727  33.211  33.344  0.00  0.00     0.029 A 
ATOM     29  C   UNL d   1     -47.237  32.651  33.708  0.00  0.00     0.032 A 
ENDBRANCH  23  25
ENDBRANCH  22  23
ENDBRANCH   2  22
TORSDOF 9
ENDMDL
MODEL 2
REMARK VINA RESULT:      70.8      1.454      2.467
REMARK  9 active torsions:
REMARK  status: ('A' for Active; 'I' for Inactive)
REMARK    1  A    between atoms: C_6  and  C_1 
REMARK    2  A    between atoms: C_2  and  O_5 
REMARK    3  A    between atoms: C_4  and  C_2 
REMARK    4  A    between atoms: O_5  and  C_3 
REMARK    5  A    between atoms: C_7  and  C_6 
REMARK    6  A    between atoms: C_10  and  C_7 
REMARK    7  A    between atoms: O_25  and  C_8 
REMARK    8  A    between atoms: C_20  and  C_10 
REMARK    9  A    between atoms: O_27  and  C_14 
ROOT
ATOM      1  C   UNL d   1     -49.200  27.779  35.109  0.00  0.00     0.062 A 
ATOM      2  C   UNL d   1     -48.751  28.360  35.506  0.00  0.00     0.106 A 
ATOM      3  C   UNL d   1     -49.742  27.325  35.533  0.00  0.00     0.012 A 
ATOM      4  C   UNL d   1     -48.856  28.471  36.313  0.00  0.00     0.025 A 
ATOM      5  C   UNL d   1     -49.840  27.443  36.340  0.00  0.00     0.035 A 
ATOM      6  C   UNL d   1     -49.396  28.019  36.734  0.00  0.00     0.009 A 
ATOM      7 BR   UNL d   1     -50.384  26.987  36.762  0.00  0.00    -0.049 Br
ENDROOT
BRANCH   1   8
ATOM      8  C   UNL d   1     -49.099  27.662  34.298  0.00  0.00     0.198 C 
ATOM      9  O   UNL d   1     -48.401  27.911  33.931  0.00  0.00    -0.286 OA
BRANCH   8  10
ATOM     10  C   UNL d   1     -49.691  27.300  33.856  0.00  0.00     0.042 C 
BRANCH  10  11
ATOM     11  C   UNL d   1     -49.505  26.684  33.341  0.00  0.00     0.003 C 
BRANCH  11  12
ATOM     12  C   UNL d   1     -49.967  25.992  33.332  0.00  0.00     0.002 A 
ATOM     13  C   UNL d   1     -50.800  26.081  33.333  0.00  0.00     0.026 A 
ATOM     14  C   UNL d   1     -51.251  25.367  33.324  0.00  0.00     0.116 A 
ATOM     15  C   UNL d   1     -50.887  24.624  33.315  0.00  0.00     0.116 A 
ATOM     16  C   UNL d   1     -50.049  24.575  33.314  0.00  0.00     0.026 A 
ATOM     17  C   UNL d   1     -49.595  25.264  33.323  0.00  0.00     0.002 A 
BRANCH  14  18
ATOM     18  O   UNL d   1     -52.068  25.406  33.325  0.00  0.00    -0.326 OA
ATOM     19  C   UNL d   1     -52.454  26.117  33.500  0.00  0.00     0.181 C 
ENDBRANCH  14  18
BRANCH  15  20
ATOM     20  O   UNL d   1     -51.340  23.937  33.306  0.00  0.00    -0.326 OA
ATOM     21  C   UNL d   1     -50.987  23.205  33.457  0.00  0.00     0.181 C 
ENDBRANCH  15  20
ENDBRANCH  11  12
ENDBRANCH  10  11
ENDBRANCH   8  10
ENDBRANCH   1   8
BRANCH   2  22
ATOM     22  O   UNL d   1     -48.211  28.813  35.085  0.00  0.00    -0.271 OA
BRANCH  22  23
ATOM     23  C   UNL d   1     -47.811  29.429  35.465  0.00  0.00     0.323 C 
ATOM     24  O   UNL d   1     -47.462  29.311  36.208  0.00  0.00    -0.257 OA
BRANCH  23  25
ATOM     25  C   UNL d   1     -47.756  30.169  35.105  0.00  0.00     0.163 A 
ATOM     26  O   UNL d   1     -48.391  30.650  34.892  0.00  0.00    -0.300 OA
ATOM     27  C   UNL d   1     -48.079  31.345  34.547  0.00  0.00     0.123 A 
ATOM     28  C   UNL d   1     -47.257  31.285  34.550  0.00  0.00     0.029 A 
ATOM     29  C   UNL d   1     -47.056  30.559  34.895  0.00  0.00     0.032 A 
ENDBRANCH  23  25
ENDBRANCH  22  23
ENDBRANCH   2  22
TORSDOF 9
ENDMDL
