MODEL 1
REMARK VINA RESULT:      -8.4      0.000      0.000
REMARK  3 active torsions:
REMARK  status: ('A' for Active; 'I' for Inactive)
REMARK    1  A    between atoms: S_10  and  C_3 
REMARK    2  A    between atoms: C_14  and  S_10 
REMARK    3  A    between atoms: C_16  and  C_14 
ROOT
ATOM      1  C   UNL d   1     -48.225  12.234  23.338  0.00  0.00     0.155 A 
ATOM      2  C   UNL d   1     -48.231  13.047  23.191  0.00  0.00     0.107 A 
ATOM      3  C   UNL d   1     -49.642  13.064  23.383  0.00  0.00     0.182 A 
ATOM      4  N   UNL d   1     -49.639  12.258  23.529  0.00  0.00    -0.250 N 
ATOM      5  N   UNL d   1     -48.947  13.465  23.214  0.00  0.00    -0.220 NA
ATOM      6  C   UNL d   1     -48.923  11.840  23.506  0.00  0.00     0.285 A 
ATOM      7  N   UNL d   1     -47.447  11.969  23.279  0.00  0.00    -0.239 NA
ATOM      8  C   UNL d   1     -47.462  13.291  23.041  0.00  0.00     0.037 A 
ATOM      9  C   UNL d   1     -46.970  12.620  23.095  0.00  0.00     0.083 A 
ATOM     10  O   UNL d   1     -48.925  11.024  23.654  0.00  0.00    -0.265 OA
ATOM     11  C   UNL d   1     -50.347  11.862  23.698  0.00  0.00     0.104 C 
ATOM     12  C   UNL d   1     -47.136  14.023  22.864  0.00  0.00     0.003 A 
ATOM     13  C   UNL d   1     -46.156  12.693  22.970  0.00  0.00     0.019 A 
ATOM     14  C   UNL d   1     -46.322  14.095  22.738  0.00  0.00     0.000 A 
ATOM     15  C   UNL d   1     -45.837  13.432  22.792  0.00  0.00     0.002 A 
ENDROOT
BRANCH   3  16
ATOM     16  S   UNL d   1     -50.356  13.476  23.406  0.00  0.00    -0.050 SA
BRANCH  16  17
ATOM     17  C   UNL d   1     -50.403  14.242  23.104  0.00  0.00     0.032 C 
ATOM     18  C   UNL d   1     -50.468  14.362  22.293  0.00  0.00     0.007 C 
BRANCH  17  19
ATOM     19  C   UNL d   1     -50.385  14.883  23.621  0.00  0.00     0.007 C 
ATOM     20  C   UNL d   1     -50.926  15.503  23.533  0.00  0.00     0.001 C 
ENDBRANCH  17  19
ENDBRANCH  16  17
ENDBRANCH   3  16
TORSDOF 3
ENDMDL
MODEL 2
REMARK VINA RESULT:      -8.0      1.457      2.313
REMARK  3 active torsions:
REMARK  status: ('A' for Active; 'I' for Inactive)
REMARK    1  A    between atoms: S_10  and  C_3 
REMARK    2  A    between atoms: C_14  and  S_10 
REMARK    3  A    between atoms: C_16  and  C_14 
ROOT
ATOM      1  C   UNL d   1     -48.195  14.650  22.751  0.00  0.00     0.155 A 
ATOM      2  C   UNL d   1     -48.206  13.849  22.956  0.00  0.00     0.107 A 
ATOM      3  C   UNL d   1     -49.622  13.912  23.095  0.00  0.00     0.182 A 
ATOM      4  N   UNL d   1     -49.614  14.705  22.893  0.00  0.00    -0.250 N 
ATOM      5  N   UNL d   1     -48.926  13.478  23.129  0.00  0.00    -0.220 NA
ATOM      6  C   UNL d   1     -48.893  15.077  22.719  0.00  0.00     0.285 A 
ATOM      7  N   UNL d   1     -47.413  14.868  22.610  0.00  0.00    -0.239 NA
ATOM      8  C   UNL d   1     -47.435  13.567  22.943  0.00  0.00     0.037 A 
ATOM      9  C   UNL d   1     -46.938  14.200  22.727  0.00  0.00     0.083 A 
ATOM     10  O   UNL d   1     -48.890  15.881  22.515  0.00  0.00    -0.265 OA
ATOM     11  C   UNL d   1     -50.321  15.135  22.861  0.00  0.00     0.104 C 
ATOM     12  C   UNL d   1     -47.113  12.827  23.095  0.00  0.00     0.003 A 
ATOM     13  C   UNL d   1     -46.122  14.083  22.667  0.00  0.00     0.019 A 
ATOM     14  C   UNL d   1     -46.296  12.712  23.035  0.00  0.00     0.000 A 
ATOM     15  C   UNL d   1     -45.806  13.337  22.822  0.00  0.00     0.002 A 
ENDROOT
BRANCH   3  16
ATOM     16  S   UNL d   1     -50.341  13.545  23.267  0.00  0.00    -0.050 SA
BRANCH  16  17
ATOM     17  C   UNL d   1     -50.455  12.749  23.084  0.00  0.00     0.032 C 
ATOM     18  C   UNL d   1     -50.589  12.521  22.306  0.00  0.00     0.007 C 
BRANCH  17  19
ATOM     19  C   UNL d   1     -50.434  12.189  23.687  0.00  0.00     0.007 C 
ATOM     20  C   UNL d   1     -50.980  11.566  23.693  0.00  0.00     0.001 C 
ENDBRANCH  17  19
ENDBRANCH  16  17
ENDBRANCH   3  16
TORSDOF 3
ENDMDL
MODEL 3
REMARK VINA RESULT:      -8.0      1.214      3.354
REMARK  3 active torsions:
REMARK  status: ('A' for Active; 'I' for Inactive)
REMARK    1  A    between atoms: S_10  and  C_3 
REMARK    2  A    between atoms: C_14  and  S_10 
REMARK    3  A    between atoms: C_16  and  C_14 
ROOT
ATOM      1  C   UNL d   1     -49.285  12.318  22.896  0.00  0.00     0.155 A 
ATOM      2  C   UNL d   1     -48.993  13.073  22.727  0.00  0.00     0.107 A 
ATOM      3  C   UNL d   1     -47.711  12.677  23.204  0.00  0.00     0.182 A 
ATOM      4  N   UNL d   1     -47.997  11.929  23.373  0.00  0.00    -0.250 N 
ATOM      5  N   UNL d   1     -48.199  13.253  22.883  0.00  0.00    -0.220 NA
ATOM      6  C   UNL d   1     -48.792  11.749  23.217  0.00  0.00     0.285 A 
ATOM      7  N   UNL d   1     -50.081  12.299  22.687  0.00  0.00    -0.239 NA
ATOM      8  C   UNL d   1     -49.603  13.524  22.413  0.00  0.00     0.037 A 
ATOM      9  C   UNL d   1     -50.283  13.044  22.387  0.00  0.00     0.083 A 
ATOM     10  O   UNL d   1     -49.077  10.989  23.390  0.00  0.00    -0.265 OA
ATOM     11  C   UNL d   1     -47.496  11.354  23.698  0.00  0.00     0.104 C 
ATOM     12  C   UNL d   1     -49.640  14.300  22.148  0.00  0.00     0.003 A 
ATOM     13  C   UNL d   1     -50.994  13.348  22.095  0.00  0.00     0.019 A 
ATOM     14  C   UNL d   1     -50.351  14.603  21.855  0.00  0.00     0.000 A 
ATOM     15  C   UNL d   1     -51.022  14.129  21.830  0.00  0.00     0.002 A 
ENDROOT
BRANCH   3  16
ATOM     16  S   UNL d   1     -46.920  12.853  23.361  0.00  0.00    -0.050 SA
BRANCH  16  17
ATOM     17  C   UNL d   1     -46.513  13.392  22.887  0.00  0.00     0.032 C 
ATOM     18  C   UNL d   1     -46.564  14.197  23.044  0.00  0.00     0.007 C 
BRANCH  17  19
ATOM     19  C   UNL d   1     -46.058  13.116  22.259  0.00  0.00     0.007 C 
ATOM     20  C   UNL d   1     -45.291  13.405  22.143  0.00  0.00     0.001 C 
ENDBRANCH  17  19
ENDBRANCH  16  17
ENDBRANCH   3  16
TORSDOF 3
ENDMDL
MODEL 4
REMARK VINA RESULT:      -7.8      1.658      3.780
REMARK  3 active torsions:
REMARK  status: ('A' for Active; 'I' for Inactive)
REMARK    1  A    between atoms: S_10  and  C_3 
REMARK    2  A    between atoms: C_14  and  S_10 
REMARK    3  A    between atoms: C_16  and  C_14 
ROOT
ATOM      1  C   UNL d   1     -49.635  14.101  22.904  0.00  0.00     0.155 A 
ATOM      2  C   UNL d   1     -49.139  13.457  23.056  0.00  0.00     0.107 A 
ATOM      3  C   UNL d   1     -48.008  14.260  22.729  0.00  0.00     0.182 A 
ATOM      4  N   UNL d   1     -48.497  14.899  22.579  0.00  0.00    -0.250 N 
ATOM      5  N   UNL d   1     -48.319  13.538  22.967  0.00  0.00    -0.220 NA
ATOM      6  C   UNL d   1     -49.318  14.818  22.667  0.00  0.00     0.285 A 
ATOM      7  N   UNL d   1     -50.412  13.863  23.036  0.00  0.00    -0.239 NA
ATOM      8  C   UNL d   1     -49.604  12.819  23.281  0.00  0.00     0.037 A 
ATOM      9  C   UNL d   1     -50.398  13.069  23.270  0.00  0.00     0.083 A 
ATOM     10  O   UNL d   1     -49.808  15.469  22.513  0.00  0.00    -0.265 OA
ATOM     11  C   UNL d   1     -48.174  15.623  22.339  0.00  0.00     0.104 C 
ATOM     12  C   UNL d   1     -49.421  12.048  23.495  0.00  0.00     0.003 A 
ATOM     13  C   UNL d   1     -51.001  12.541  23.473  0.00  0.00     0.019 A 
ATOM     14  C   UNL d   1     -50.024  11.520  23.698  0.00  0.00     0.000 A 
ATOM     15  C   UNL d   1     -50.808  11.768  23.687  0.00  0.00     0.002 A 
ENDROOT
BRANCH   3  16
ATOM     16  S   UNL d   1     -47.193  14.343  22.640  0.00  0.00    -0.050 SA
BRANCH  16  17
ATOM     17  C   UNL d   1     -46.688  13.719  22.828  0.00  0.00     0.032 C 
ATOM     18  C   UNL d   1     -46.519  13.548  23.615  0.00  0.00     0.007 C 
BRANCH  17  19
ATOM     19  C   UNL d   1     -46.357  13.269  22.222  0.00  0.00     0.007 C 
ATOM     20  C   UNL d   1     -45.538  13.155  22.191  0.00  0.00     0.001 C 
ENDBRANCH  17  19
ENDBRANCH  16  17
ENDBRANCH   3  16
TORSDOF 3
ENDMDL
MODEL 5
REMARK VINA RESULT:      -7.2      1.729      3.879
REMARK  3 active torsions:
REMARK  status: ('A' for Active; 'I' for Inactive)
REMARK    1  A    between atoms: S_10  and  C_3 
REMARK    2  A    between atoms: C_14  and  S_10 
REMARK    3  A    between atoms: C_16  and  C_14 
ROOT
ATOM      1  C   UNL d   1     -48.398  14.881  22.747  0.00  0.00     0.155 A 
ATOM      2  C   UNL d   1     -48.771  14.208  23.048  0.00  0.00     0.107 A 
ATOM      3  C   UNL d   1     -47.532  13.507  22.995  0.00  0.00     0.182 A 
ATOM      4  N   UNL d   1     -47.160  14.172  22.697  0.00  0.00    -0.250 N 
ATOM      5  N   UNL d   1     -48.333  13.515  23.173  0.00  0.00    -0.220 NA
ATOM      6  C   UNL d   1     -47.598  14.865  22.572  0.00  0.00     0.285 A 
ATOM      7  N   UNL d   1     -48.962  15.478  22.681  0.00  0.00    -0.239 NA
ATOM      8  C   UNL d   1     -49.564  14.382  23.170  0.00  0.00     0.037 A 
ATOM      9  C   UNL d   1     -49.686  15.173  22.942  0.00  0.00     0.083 A 
ATOM     10  O   UNL d   1     -47.217  15.537  22.269  0.00  0.00    -0.265 OA
ATOM     11  C   UNL d   1     -46.351  14.154  22.521  0.00  0.00     0.104 C 
ATOM     12  C   UNL d   1     -50.192  13.937  23.455  0.00  0.00     0.003 A 
ATOM     13  C   UNL d   1     -50.438  15.510  23.002  0.00  0.00     0.019 A 
ATOM     14  C   UNL d   1     -50.944  14.274  23.515  0.00  0.00     0.000 A 
ATOM     15  C   UNL d   1     -51.064  15.056  23.289  0.00  0.00     0.002 A 
ENDROOT
BRANCH   3  16
ATOM     16  S   UNL d   1     -47.093  12.819  23.119  0.00  0.00    -0.050 SA
BRANCH  16  17
ATOM     17  C   UNL d   1     -47.451  12.080  23.043  0.00  0.00     0.032 C 
ATOM     18  C   UNL d   1     -47.763  11.846  22.319  0.00  0.00     0.007 C 
BRANCH  17  19
ATOM     19  C   UNL d   1     -47.491  11.580  23.697  0.00  0.00     0.007 C 
ATOM     20  C   UNL d   1     -47.075  10.864  23.698  0.00  0.00     0.001 C 
ENDBRANCH  17  19
ENDBRANCH  16  17
ENDBRANCH   3  16
TORSDOF 3
ENDMDL
MODEL 6
REMARK VINA RESULT:      -6.1      8.892     10.275
REMARK  3 active torsions:
REMARK  status: ('A' for Active; 'I' for Inactive)
REMARK    1  A    between atoms: S_10  and  C_3 
REMARK    2  A    between atoms: C_14  and  S_10 
REMARK    3  A    between atoms: C_16  and  C_14 
ROOT
ATOM      1  C   UNL d   1     -39.983  14.234  17.830  0.00  0.00     0.155 A 
ATOM      2  C   UNL d   1     -39.499  14.164  18.497  0.00  0.00     0.107 A 
ATOM      3  C   UNL d   1     -40.179  15.262  19.097  0.00  0.00     0.182 A 
ATOM      4  N   UNL d   1     -40.659  15.334  18.438  0.00  0.00    -0.250 N 
ATOM      5  N   UNL d   1     -39.599  14.683  19.135  0.00  0.00    -0.220 NA
ATOM      6  C   UNL d   1     -40.560  14.814  17.799  0.00  0.00     0.285 A 
ATOM      7  N   UNL d   1     -39.761  13.652  17.291  0.00  0.00    -0.239 NA
ATOM      8  C   UNL d   1     -38.977  13.542  18.376  0.00  0.00     0.037 A 
ATOM      9  C   UNL d   1     -39.138  13.221  17.624  0.00  0.00     0.083 A 
ATOM     10  O   UNL d   1     -41.049  14.891  17.134  0.00  0.00    -0.265 OA
ATOM     11  C   UNL d   1     -41.242  15.922  18.409  0.00  0.00     0.104 C 
ATOM     12  C   UNL d   1     -38.380  13.221  18.839  0.00  0.00     0.003 A 
ATOM     13  C   UNL d   1     -38.697  12.580  17.345  0.00  0.00     0.019 A 
ATOM     14  C   UNL d   1     -37.940  12.580  18.559  0.00  0.00     0.000 A 
ATOM     15  C   UNL d   1     -38.099  12.263  17.817  0.00  0.00     0.002 A 
ENDROOT
BRANCH   3  16
ATOM     16  S   UNL d   1     -40.281  15.781  19.731  0.00  0.00    -0.050 SA
BRANCH  16  17
ATOM     17  C   UNL d   1     -40.274  15.497  20.505  0.00  0.00     0.032 C 
ATOM     18  C   UNL d   1     -40.913  15.066  20.791  0.00  0.00     0.007 C 
BRANCH  17  19
ATOM     19  C   UNL d   1     -39.623  15.649  20.986  0.00  0.00     0.007 C 
ATOM     20  C   UNL d   1     -39.729  15.797  21.793  0.00  0.00     0.001 C 
ENDBRANCH  17  19
ENDBRANCH  16  17
ENDBRANCH   3  16
TORSDOF 3
ENDMDL
MODEL 7
REMARK VINA RESULT:      -5.9      9.404     10.221
REMARK  3 active torsions:
REMARK  status: ('A' for Active; 'I' for Inactive)
REMARK    1  A    between atoms: S_10  and  C_3 
REMARK    2  A    between atoms: C_14  and  S_10 
REMARK    3  A    between atoms: C_16  and  C_14 
ROOT
ATOM      1  C   UNL d   1     -39.142  14.235  19.567  0.00  0.00     0.155 A 
ATOM      2  C   UNL d   1     -39.754  14.785  19.489  0.00  0.00     0.107 A 
ATOM      3  C   UNL d   1     -39.840  14.481  18.100  0.00  0.00     0.182 A 
ATOM      4  N   UNL d   1     -39.235  13.936  18.175  0.00  0.00    -0.250 N 
ATOM      5  N   UNL d   1     -40.106  14.908  18.748  0.00  0.00    -0.220 NA
ATOM      6  C   UNL d   1     -38.883  13.812  18.915  0.00  0.00     0.285 A 
ATOM      7  N   UNL d   1     -38.903  14.229  20.355  0.00  0.00    -0.239 NA
ATOM      8  C   UNL d   1     -39.897  15.122  20.224  0.00  0.00     0.037 A 
ATOM      9  C   UNL d   1     -39.368  14.777  20.766  0.00  0.00     0.083 A 
ATOM     10  O   UNL d   1     -38.270  13.258  18.986  0.00  0.00    -0.265 OA
ATOM     11  C   UNL d   1     -38.974  13.509  17.514  0.00  0.00     0.104 C 
ATOM     12  C   UNL d   1     -40.431  15.691  20.479  0.00  0.00     0.003 A 
ATOM     13  C   UNL d   1     -39.379  15.008  21.560  0.00  0.00     0.019 A 
ATOM     14  C   UNL d   1     -40.442  15.921  21.273  0.00  0.00     0.000 A 
ATOM     15  C   UNL d   1     -39.919  15.580  21.808  0.00  0.00     0.002 A 
ENDROOT
BRANCH   3  16
ATOM     16  S   UNL d   1     -40.188  14.601  17.361  0.00  0.00    -0.050 SA
BRANCH  16  17
ATOM     17  C   UNL d   1     -40.422  15.358  17.131  0.00  0.00     0.032 C 
ATOM     18  C   UNL d   1     -39.856  15.922  16.937  0.00  0.00     0.007 C 
BRANCH  17  19
ATOM     19  C   UNL d   1     -41.224  15.541  17.098  0.00  0.00     0.007 C 
ATOM     20  C   UNL d   1     -41.536  15.922  16.432  0.00  0.00     0.001 C 
ENDBRANCH  17  19
ENDBRANCH  16  17
ENDBRANCH   3  16
TORSDOF 3
ENDMDL
MODEL 8
REMARK VINA RESULT:      -5.7      9.438     10.547
REMARK  3 active torsions:
REMARK  status: ('A' for Active; 'I' for Inactive)
REMARK    1  A    between atoms: S_10  and  C_3 
REMARK    2  A    between atoms: C_14  and  S_10 
REMARK    3  A    between atoms: C_16  and  C_14 
ROOT
ATOM      1  C   UNL d   1     -40.277  15.178  19.305  0.00  0.00     0.155 A 
ATOM      2  C   UNL d   1     -39.758  14.560  19.480  0.00  0.00     0.107 A 
ATOM      3  C   UNL d   1     -39.737  14.195  18.103  0.00  0.00     0.182 A 
ATOM      4  N   UNL d   1     -40.251  14.807  17.927  0.00  0.00    -0.250 N 
ATOM      5  N   UNL d   1     -39.486  14.065  18.874  0.00  0.00    -0.220 NA
ATOM      6  C   UNL d   1     -40.524  15.303  18.534  0.00  0.00     0.285 A 
ATOM      7  N   UNL d   1     -40.452  15.573  20.006  0.00  0.00    -0.239 NA
ATOM      8  C   UNL d   1     -39.608  14.567  20.287  0.00  0.00     0.037 A 
ATOM      9  C   UNL d   1     -40.039  15.198  20.618  0.00  0.00     0.083 A 
ATOM     10  O   UNL d   1     -41.045  15.921  18.349  0.00  0.00    -0.265 OA
ATOM     11  C   UNL d   1     -40.500  14.931  17.146  0.00  0.00     0.104 C 
ATOM     12  C   UNL d   1     -39.142  14.093  20.770  0.00  0.00     0.003 A 
ATOM     13  C   UNL d   1     -39.999  15.346  21.430  0.00  0.00     0.019 A 
ATOM     14  C   UNL d   1     -39.102  14.241  21.582  0.00  0.00     0.000 A 
ATOM     15  C   UNL d   1     -39.529  14.864  21.908  0.00  0.00     0.002 A 
ENDROOT
BRANCH   3  16
ATOM     16  S   UNL d   1     -39.469  13.704  17.497  0.00  0.00    -0.050 SA
BRANCH  16  17
ATOM     17  C   UNL d   1     -38.691  13.428  17.501  0.00  0.00     0.032 C 
ATOM     18  C   UNL d   1     -38.073  13.936  17.311  0.00  0.00     0.007 C 
BRANCH  17  19
ATOM     19  C   UNL d   1     -38.542  12.641  17.695  0.00  0.00     0.007 C 
ATOM     20  C   UNL d   1     -37.940  12.226  17.308  0.00  0.00     0.001 C 
ENDBRANCH  17  19
ENDBRANCH  16  17
ENDBRANCH   3  16
TORSDOF 3
ENDMDL
MODEL 9
REMARK VINA RESULT:      -5.5      9.539     10.469
REMARK  3 active torsions:
REMARK  status: ('A' for Active; 'I' for Inactive)
REMARK    1  A    between atoms: S_10  and  C_3 
REMARK    2  A    between atoms: C_14  and  S_10 
REMARK    3  A    between atoms: C_16  and  C_14 
ROOT
ATOM      1  C   UNL d   1     -39.253  14.131  18.322  0.00  0.00     0.155 A 
ATOM      2  C   UNL d   1     -39.659  14.737  18.711  0.00  0.00     0.107 A 
ATOM      3  C   UNL d   1     -38.930  14.451  19.901  0.00  0.00     0.182 A 
ATOM      4  N   UNL d   1     -38.526  13.851  19.519  0.00  0.00    -0.250 N 
ATOM      5  N   UNL d   1     -39.495  14.897  19.508  0.00  0.00    -0.220 NA
ATOM      6  C   UNL d   1     -38.690  13.690  18.722  0.00  0.00     0.285 A 
ATOM      7  N   UNL d   1     -39.526  14.097  17.546  0.00  0.00    -0.239 NA
ATOM      8  C   UNL d   1     -40.183  15.080  18.182  0.00  0.00     0.037 A 
ATOM      9  C   UNL d   1     -40.102  14.683  17.454  0.00  0.00     0.083 A 
ATOM     10  O   UNL d   1     -38.278  13.080  18.338  0.00  0.00    -0.265 OA
ATOM     11  C   UNL d   1     -37.957  13.406  19.924  0.00  0.00     0.104 C 
ATOM     12  C   UNL d   1     -40.722  15.696  18.254  0.00  0.00     0.003 A 
ATOM     13  C   UNL d   1     -40.564  14.909  16.806  0.00  0.00     0.019 A 
ATOM     14  C   UNL d   1     -41.183  15.920  17.606  0.00  0.00     0.000 A 
ATOM     15  C   UNL d   1     -41.103  15.528  16.888  0.00  0.00     0.002 A 
ENDROOT
BRANCH   3  16
ATOM     16  S   UNL d   1     -38.765  14.609  20.694  0.00  0.00    -0.050 SA
BRANCH  16  17
ATOM     17  C   UNL d   1     -39.350  14.918  21.187  0.00  0.00     0.032 C 
ATOM     18  C   UNL d   1     -39.964  14.437  21.448  0.00  0.00     0.007 C 
BRANCH  17  19
ATOM     19  C   UNL d   1     -39.312  15.709  21.413  0.00  0.00     0.007 C 
ATOM     20  C   UNL d   1     -39.410  15.918  22.209  0.00  0.00     0.001 C 
ENDBRANCH  17  19
ENDBRANCH  16  17
ENDBRANCH   3  16
TORSDOF 3
ENDMDL
