MODEL 1
REMARK VINA RESULT:      -7.7      0.000      0.000
REMARK  4 active torsions:
REMARK  status: ('A' for Active; 'I' for Inactive)
REMARK    1  A    between atoms: C_18  and  C_5 
REMARK    2  A    between atoms: C_7  and  C_8 
REMARK       I    between atoms: C_8  and  N_17 
REMARK    3  A    between atoms: N_17  and  C_19 
REMARK    4  A    between atoms: C_19  and  C_18 
ROOT
ATOM      1  C   UNL d   1     -50.029  13.717  22.868  0.00  0.00     0.148 A 
ATOM      2  N   UNL d   1     -50.121  13.241  22.199  0.00  0.00    -0.288 N 
ATOM      3  N   UNL d   1     -49.489  13.355  23.364  0.00  0.00    -0.227 NA
ATOM      4  C   UNL d   1     -49.628  12.581  22.294  0.00  0.00     0.101 A 
ATOM      5  C   UNL d   1     -49.240  12.657  23.016  0.00  0.00     0.102 A 
ATOM      6  C   UNL d   1     -50.458  14.419  22.925  0.00  0.00     0.035 A 
ATOM      7  C   UNL d   1     -50.633  13.462  21.595  0.00  0.00     0.082 A 
ATOM      8  C   UNL d   1     -51.057  14.160  21.656  0.00  0.00     0.019 A 
ATOM      9  C   UNL d   1     -50.972  14.646  22.326  0.00  0.00     0.004 A 
ATOM     10  C   UNL d   1     -50.373  14.908  23.597  0.00  0.00     0.003 C 
ENDROOT
BRANCH   5  11
ATOM     11  C   UNL d   1     -48.692  12.124  23.339  0.00  0.00     0.042 C 
BRANCH  11  12
ATOM     12  C   UNL d   1     -47.885  12.313  23.347  0.00  0.00     0.104 C 
BRANCH  12  13
ATOM     13  N   UNL d   1     -47.333  11.746  23.561  0.00  0.00    -0.205 NA
ATOM     14  C   UNL d   1     -46.524  11.905  23.484  0.00  0.00     0.302 C 
ATOM     15  O   UNL d   1     -45.980  11.339  23.698  0.00  0.00    -0.263 OA
BRANCH  14  16
ATOM     16  C   UNL d   1     -46.279  12.639  23.192  0.00  0.00     0.158 A 
ATOM     17  O   UNL d   1     -46.213  13.280  23.697  0.00  0.00    -0.300 OA
ATOM     18  C   UNL d   1     -45.960  13.931  23.256  0.00  0.00     0.123 A 
ATOM     19  C   UNL d   1     -45.870  13.694  22.482  0.00  0.00     0.029 A 
ATOM     20  C   UNL d   1     -46.069  12.885  22.437  0.00  0.00     0.032 A 
ENDBRANCH  14  16
ENDBRANCH  12  13
ENDBRANCH  11  12
ENDBRANCH   5  11
TORSDOF 4
ENDMDL
MODEL 2
REMARK VINA RESULT:      -7.3      2.029      4.440
REMARK  4 active torsions:
REMARK  status: ('A' for Active; 'I' for Inactive)
REMARK    1  A    between atoms: C_18  and  C_5 
REMARK    2  A    between atoms: C_7  and  C_8 
REMARK       I    between atoms: C_8  and  N_17 
REMARK    3  A    between atoms: N_17  and  C_19 
REMARK    4  A    between atoms: C_19  and  C_18 
ROOT
ATOM      1  C   UNL d   1     -46.952  13.243  23.064  0.00  0.00     0.148 A 
ATOM      2  N   UNL d   1     -46.554  13.799  22.601  0.00  0.00    -0.288 N 
ATOM      3  N   UNL d   1     -47.679  13.556  23.268  0.00  0.00    -0.227 NA
ATOM      4  C   UNL d   1     -47.049  14.460  22.525  0.00  0.00     0.101 A 
ATOM      5  C   UNL d   1     -47.743  14.304  22.939  0.00  0.00     0.102 A 
ATOM      6  C   UNL d   1     -46.586  12.523  23.231  0.00  0.00     0.035 A 
ATOM      7  C   UNL d   1     -45.801  13.641  22.309  0.00  0.00     0.082 A 
ATOM      8  C   UNL d   1     -45.442  12.924  22.479  0.00  0.00     0.019 A 
ATOM      9  C   UNL d   1     -45.835  12.357  22.944  0.00  0.00     0.004 A 
ATOM     10  C   UNL d   1     -46.980  11.953  23.698  0.00  0.00     0.003 C 
ENDROOT
BRANCH   5  11
ATOM     11  C   UNL d   1     -48.397  14.811  23.015  0.00  0.00     0.042 C 
BRANCH  11  12
ATOM     12  C   UNL d   1     -49.120  14.610  22.664  0.00  0.00     0.104 C 
BRANCH  12  13
ATOM     13  N   UNL d   1     -49.715  15.170  22.599  0.00  0.00    -0.205 NA
ATOM     14  C   UNL d   1     -50.478  14.941  22.375  0.00  0.00     0.302 C 
ATOM     15  O   UNL d   1     -51.064  15.501  22.313  0.00  0.00    -0.263 OA
BRANCH  14  16
ATOM     16  C   UNL d   1     -50.634  14.145  22.216  0.00  0.00     0.158 A 
ATOM     17  O   UNL d   1     -50.975  13.671  22.791  0.00  0.00    -0.300 OA
ATOM     18  C   UNL d   1     -51.064  12.911  22.480  0.00  0.00     0.123 A 
ATOM     19  C   UNL d   1     -50.781  12.915  21.717  0.00  0.00     0.029 A 
ATOM     20  C   UNL d   1     -50.510  13.685  21.547  0.00  0.00     0.032 A 
ENDBRANCH  14  16
ENDBRANCH  12  13
ENDBRANCH  11  12
ENDBRANCH   5  11
TORSDOF 4
ENDMDL
MODEL 3
REMARK VINA RESULT:      -7.0      1.835      3.988
REMARK  4 active torsions:
REMARK  status: ('A' for Active; 'I' for Inactive)
REMARK    1  A    between atoms: C_18  and  C_5 
REMARK    2  A    between atoms: C_7  and  C_8 
REMARK       I    between atoms: C_8  and  N_17 
REMARK    3  A    between atoms: N_17  and  C_19 
REMARK    4  A    between atoms: C_19  and  C_18 
ROOT
ATOM      1  C   UNL d   1     -46.611  13.326  22.927  0.00  0.00     0.148 A 
ATOM      2  N   UNL d   1     -46.245  12.611  22.733  0.00  0.00    -0.288 N 
ATOM      3  N   UNL d   1     -47.315  13.156  23.305  0.00  0.00    -0.227 NA
ATOM      4  C   UNL d   1     -46.737  12.000  23.000  0.00  0.00     0.101 A 
ATOM      5  C   UNL d   1     -47.398  12.343  23.353  0.00  0.00     0.102 A 
ATOM      6  C   UNL d   1     -46.241  14.035  22.725  0.00  0.00     0.035 A 
ATOM      7  C   UNL d   1     -45.520  12.603  22.344  0.00  0.00     0.082 A 
ATOM      8  C   UNL d   1     -45.157  13.310  22.147  0.00  0.00     0.019 A 
ATOM      9  C   UNL d   1     -45.517  14.035  22.337  0.00  0.00     0.004 A 
ATOM     10  C   UNL d   1     -46.602  14.764  22.915  0.00  0.00     0.003 C 
ENDROOT
BRANCH   5  11
ATOM     11  C   UNL d   1     -48.037  11.940  23.698  0.00  0.00     0.042 C 
BRANCH  11  12
ATOM     12  C   UNL d   1     -48.795  12.012  23.373  0.00  0.00     0.104 C 
BRANCH  12  13
ATOM     13  N   UNL d   1     -49.405  11.535  23.643  0.00  0.00    -0.205 NA
ATOM     14  C   UNL d   1     -50.177  11.652  23.367  0.00  0.00     0.302 C 
ATOM     15  O   UNL d   1     -50.777  11.175  23.639  0.00  0.00    -0.263 OA
BRANCH  14  16
ATOM     16  C   UNL d   1     -50.327  12.252  22.820  0.00  0.00     0.158 A 
ATOM     17  O   UNL d   1     -50.303  12.091  22.017  0.00  0.00    -0.300 OA
ATOM     18  C   UNL d   1     -50.474  12.788  21.608  0.00  0.00     0.123 A 
ATOM     19  C   UNL d   1     -50.603  13.377  22.155  0.00  0.00     0.029 A 
ATOM     20  C   UNL d   1     -50.513  13.047  22.915  0.00  0.00     0.032 A 
ENDBRANCH  14  16
ENDBRANCH  12  13
ENDBRANCH  11  12
ENDBRANCH   5  11
TORSDOF 4
ENDMDL
MODEL 4
REMARK VINA RESULT:      -6.3      1.272      2.019
REMARK  4 active torsions:
REMARK  status: ('A' for Active; 'I' for Inactive)
REMARK    1  A    between atoms: C_18  and  C_5 
REMARK    2  A    between atoms: C_7  and  C_8 
REMARK       I    between atoms: C_8  and  N_17 
REMARK    3  A    between atoms: N_17  and  C_19 
REMARK    4  A    between atoms: C_19  and  C_18 
ROOT
ATOM      1  C   UNL d   1     -49.679  14.435  22.582  0.00  0.00     0.148 A 
ATOM      2  N   UNL d   1     -49.508  14.986  23.174  0.00  0.00    -0.288 N 
ATOM      3  N   UNL d   1     -48.978  14.233  22.214  0.00  0.00    -0.227 NA
ATOM      4  C   UNL d   1     -48.689  15.117  23.162  0.00  0.00     0.101 A 
ATOM      5  C   UNL d   1     -48.367  14.649  22.566  0.00  0.00     0.102 A 
ATOM      6  C   UNL d   1     -50.461  14.199  22.467  0.00  0.00     0.035 A 
ATOM      7  C   UNL d   1     -50.107  15.296  23.644  0.00  0.00     0.082 A 
ATOM      8  C   UNL d   1     -50.881  15.057  23.526  0.00  0.00     0.019 A 
ATOM      9  C   UNL d   1     -51.064  14.503  22.932  0.00  0.00     0.004 A 
ATOM     10  C   UNL d   1     -50.646  13.642  21.872  0.00  0.00     0.003 C 
ENDROOT
BRANCH   5  11
ATOM     11  C   UNL d   1     -47.565  14.602  22.355  0.00  0.00     0.042 C 
BRANCH  11  12
ATOM     12  C   UNL d   1     -47.079  14.027  22.701  0.00  0.00     0.104 C 
BRANCH  12  13
ATOM     13  N   UNL d   1     -46.286  13.983  22.496  0.00  0.00    -0.205 NA
ATOM     14  C   UNL d   1     -45.880  13.265  22.563  0.00  0.00     0.302 C 
ATOM     15  O   UNL d   1     -45.094  13.227  22.358  0.00  0.00    -0.263 OA
BRANCH  14  16
ATOM     16  C   UNL d   1     -46.279  12.595  22.837  0.00  0.00     0.158 A 
ATOM     17  O   UNL d   1     -46.085  12.272  23.564  0.00  0.00    -0.300 OA
ATOM     18  C   UNL d   1     -46.569  11.614  23.691  0.00  0.00     0.123 A 
ATOM     19  C   UNL d   1     -47.059  11.531  23.047  0.00  0.00     0.029 A 
ATOM     20  C   UNL d   1     -46.881  12.143  22.509  0.00  0.00     0.032 A 
ENDBRANCH  14  16
ENDBRANCH  12  13
ENDBRANCH  11  12
ENDBRANCH   5  11
TORSDOF 4
ENDMDL
MODEL 5
REMARK VINA RESULT:      -6.0      8.441     10.352
REMARK  4 active torsions:
REMARK  status: ('A' for Active; 'I' for Inactive)
REMARK    1  A    between atoms: C_18  and  C_5 
REMARK    2  A    between atoms: C_7  and  C_8 
REMARK       I    between atoms: C_8  and  N_17 
REMARK    3  A    between atoms: N_17  and  C_19 
REMARK    4  A    between atoms: C_19  and  C_18 
ROOT
ATOM      1  C   UNL d   1     -39.096  13.565  17.461  0.00  0.00     0.148 A 
ATOM      2  N   UNL d   1     -39.256  14.268  17.059  0.00  0.00    -0.288 N 
ATOM      3  N   UNL d   1     -39.605  13.514  18.098  0.00  0.00    -0.227 NA
ATOM      4  C   UNL d   1     -39.874  14.648  17.462  0.00  0.00     0.101 A 
ATOM      5  C   UNL d   1     -40.085  14.177  18.103  0.00  0.00     0.102 A 
ATOM      6  C   UNL d   1     -38.499  13.069  17.179  0.00  0.00     0.035 A 
ATOM      7  C   UNL d   1     -38.829  14.475  16.387  0.00  0.00     0.082 A 
ATOM      8  C   UNL d   1     -38.239  13.978  16.113  0.00  0.00     0.019 A 
ATOM      9  C   UNL d   1     -38.069  13.267  16.510  0.00  0.00     0.004 A 
ATOM     10  C   UNL d   1     -38.328  12.354  17.578  0.00  0.00     0.003 C 
ENDROOT
BRANCH   5  11
ATOM     11  C   UNL d   1     -40.679  14.341  18.660  0.00  0.00     0.042 C 
BRANCH  11  12
ATOM     12  C   UNL d   1     -40.474  14.612  19.416  0.00  0.00     0.104 C 
BRANCH  12  13
ATOM     13  N   UNL d   1     -41.008  15.057  19.850  0.00  0.00    -0.205 NA
ATOM     14  C   UNL d   1     -40.879  15.189  20.657  0.00  0.00     0.302 C 
ATOM     15  O   UNL d   1     -41.412  15.632  21.083  0.00  0.00    -0.263 OA
BRANCH  14  16
ATOM     16  C   UNL d   1     -40.208  14.870  21.020  0.00  0.00     0.158 A 
ATOM     17  O   UNL d   1     -40.251  14.143  21.394  0.00  0.00    -0.300 OA
ATOM     18  C   UNL d   1     -39.505  13.966  21.702  0.00  0.00     0.123 A 
ATOM     19  C   UNL d   1     -39.004  14.580  21.519  0.00  0.00     0.029 A 
ATOM     20  C   UNL d   1     -39.439  15.149  21.092  0.00  0.00     0.032 A 
ENDBRANCH  14  16
ENDBRANCH  12  13
ENDBRANCH  11  12
ENDBRANCH   5  11
TORSDOF 4
ENDMDL
MODEL 6
REMARK VINA RESULT:      -5.9      8.856      9.973
REMARK  4 active torsions:
REMARK  status: ('A' for Active; 'I' for Inactive)
REMARK    1  A    between atoms: C_18  and  C_5 
REMARK    2  A    between atoms: C_7  and  C_8 
REMARK       I    between atoms: C_8  and  N_17 
REMARK    3  A    between atoms: N_17  and  C_19 
REMARK    4  A    between atoms: C_19  and  C_18 
ROOT
ATOM      1  C   UNL d   1     -39.540  14.620  21.619  0.00  0.00     0.148 A 
ATOM      2  N   UNL d   1     -39.669  15.436  21.609  0.00  0.00    -0.288 N 
ATOM      3  N   UNL d   1     -39.948  14.290  20.992  0.00  0.00    -0.227 NA
ATOM      4  C   UNL d   1     -40.165  15.600  20.965  0.00  0.00     0.101 A 
ATOM      5  C   UNL d   1     -40.334  14.888  20.587  0.00  0.00     0.102 A 
ATOM      6  C   UNL d   1     -39.061  14.296  22.207  0.00  0.00     0.035 A 
ATOM      7  C   UNL d   1     -39.327  15.922  22.177  0.00  0.00     0.082 A 
ATOM      8  C   UNL d   1     -38.852  15.594  22.759  0.00  0.00     0.019 A 
ATOM      9  C   UNL d   1     -38.715  14.774  22.778  0.00  0.00     0.004 A 
ATOM     10  C   UNL d   1     -38.923  13.472  22.227  0.00  0.00     0.003 C 
ENDROOT
BRANCH   5  11
ATOM     11  C   UNL d   1     -40.811  14.788  19.915  0.00  0.00     0.042 C 
BRANCH  11  12
ATOM     12  C   UNL d   1     -40.461  14.676  19.172  0.00  0.00     0.104 C 
BRANCH  12  13
ATOM     13  N   UNL d   1     -40.896  14.807  18.490  0.00  0.00    -0.205 NA
ATOM     14  C   UNL d   1     -40.595  14.574  17.755  0.00  0.00     0.302 C 
ATOM     15  O   UNL d   1     -41.030  14.707  17.081  0.00  0.00    -0.263 OA
BRANCH  14  16
ATOM     16  C   UNL d   1     -39.854  14.210  17.715  0.00  0.00     0.158 A 
ATOM     17  O   UNL d   1     -39.798  13.393  17.731  0.00  0.00    -0.300 OA
ATOM     18  C   UNL d   1     -38.999  13.188  17.683  0.00  0.00     0.123 A 
ATOM     19  C   UNL d   1     -38.563  13.874  17.639  0.00  0.00     0.029 A 
ATOM     20  C   UNL d   1     -39.094  14.517  17.658  0.00  0.00     0.032 A 
ENDBRANCH  14  16
ENDBRANCH  12  13
ENDBRANCH  11  12
ENDBRANCH   5  11
TORSDOF 4
ENDMDL
MODEL 7
REMARK VINA RESULT:      -4.8      9.777     10.830
REMARK  4 active torsions:
REMARK  status: ('A' for Active; 'I' for Inactive)
REMARK    1  A    between atoms: C_18  and  C_5 
REMARK    2  A    between atoms: C_7  and  C_8 
REMARK       I    between atoms: C_8  and  N_17 
REMARK    3  A    between atoms: N_17  and  C_19 
REMARK    4  A    between atoms: C_19  and  C_18 
ROOT
ATOM      1  C   UNL d   1     -38.845  15.053  20.968  0.00  0.00     0.148 A 
ATOM      2  N   UNL d   1     -38.487  14.323  20.825  0.00  0.00    -0.288 N 
ATOM      3  N   UNL d   1     -38.750  15.518  20.303  0.00  0.00    -0.227 NA
ATOM      4  C   UNL d   1     -38.169  14.348  20.059  0.00  0.00     0.101 A 
ATOM      5  C   UNL d   1     -38.335  15.089  19.741  0.00  0.00     0.102 A 
ATOM      6  C   UNL d   1     -39.211  15.185  21.696  0.00  0.00     0.035 A 
ATOM      7  C   UNL d   1     -38.492  13.733  21.399  0.00  0.00     0.082 A 
ATOM      8  C   UNL d   1     -38.856  13.870  22.119  0.00  0.00     0.019 A 
ATOM      9  C   UNL d   1     -39.220  14.602  22.274  0.00  0.00     0.004 A 
ATOM     10  C   UNL d   1     -39.577  15.920  21.852  0.00  0.00     0.003 C 
ENDROOT
BRANCH   5  11
ATOM     11  C   UNL d   1     -38.122  15.360  18.986  0.00  0.00     0.042 C 
BRANCH  11  12
ATOM     12  C   UNL d   1     -38.625  15.227  18.341  0.00  0.00     0.104 C 
BRANCH  12  13
ATOM     13  N   UNL d   1     -38.338  15.292  17.576  0.00  0.00    -0.205 NA
ATOM     14  C   UNL d   1     -38.863  15.303  16.936  0.00  0.00     0.302 C 
ATOM     15  O   UNL d   1     -38.572  15.368  16.179  0.00  0.00    -0.263 OA
BRANCH  14  16
ATOM     16  C   UNL d   1     -39.676  15.248  17.074  0.00  0.00     0.158 A 
ATOM     17  O   UNL d   1     -40.141  15.922  17.057  0.00  0.00    -0.300 OA
ATOM     18  C   UNL d   1     -40.922  15.700  17.213  0.00  0.00     0.123 A 
ATOM     19  C   UNL d   1     -40.939  14.895  17.325  0.00  0.00     0.029 A 
ATOM     20  C   UNL d   1     -40.161  14.606  17.239  0.00  0.00     0.032 A 
ENDBRANCH  14  16
ENDBRANCH  12  13
ENDBRANCH  11  12
ENDBRANCH   5  11
TORSDOF 4
ENDMDL
MODEL 8
REMARK VINA RESULT:      -4.8      9.321     10.112
REMARK  4 active torsions:
REMARK  status: ('A' for Active; 'I' for Inactive)
REMARK    1  A    between atoms: C_18  and  C_5 
REMARK    2  A    between atoms: C_7  and  C_8 
REMARK       I    between atoms: C_8  and  N_17 
REMARK    3  A    between atoms: N_17  and  C_19 
REMARK    4  A    between atoms: C_19  and  C_18 
ROOT
ATOM      1  C   UNL d   1     -39.395  15.208  18.486  0.00  0.00     0.148 A 
ATOM      2  N   UNL d   1     -40.194  15.008  18.553  0.00  0.00    -0.288 N 
ATOM      3  N   UNL d   1     -39.164  15.568  19.182  0.00  0.00    -0.227 NA
ATOM      4  C   UNL d   1     -40.449  15.253  19.303  0.00  0.00     0.101 A 
ATOM      5  C   UNL d   1     -39.808  15.598  19.687  0.00  0.00     0.102 A 
ATOM      6  C   UNL d   1     -38.993  15.027  17.788  0.00  0.00     0.035 A 
ATOM      7  C   UNL d   1     -40.587  14.634  17.934  0.00  0.00     0.082 A 
ATOM      8  C   UNL d   1     -40.182  14.458  17.244  0.00  0.00     0.019 A 
ATOM      9  C   UNL d   1     -39.378  14.655  17.166  0.00  0.00     0.004 A 
ATOM     10  C   UNL d   1     -38.185  15.225  17.709  0.00  0.00     0.003 C 
ENDROOT
BRANCH   5  11
ATOM     11  C   UNL d   1     -39.808  15.922  20.452  0.00  0.00     0.042 C 
BRANCH  11  12
ATOM     12  C   UNL d   1     -39.500  15.486  21.086  0.00  0.00     0.104 C 
BRANCH  12  13
ATOM     13  N   UNL d   1     -39.438  15.829  21.828  0.00  0.00    -0.205 NA
ATOM     14  C   UNL d   1     -39.107  15.403  22.456  0.00  0.00     0.302 C 
ATOM     15  O   UNL d   1     -39.048  15.748  23.190  0.00  0.00    -0.263 OA
BRANCH  14  16
ATOM     16  C   UNL d   1     -38.839  14.632  22.328  0.00  0.00     0.158 A 
ATOM     17  O   UNL d   1     -38.046  14.492  22.177  0.00  0.00    -0.300 OA
ATOM     18  C   UNL d   1     -37.942  13.679  22.073  0.00  0.00     0.123 A 
ATOM     19  C   UNL d   1     -38.666  13.318  22.159  0.00  0.00     0.029 A 
ATOM     20  C   UNL d   1     -39.232  13.910  22.319  0.00  0.00     0.032 A 
ENDBRANCH  14  16
ENDBRANCH  12  13
ENDBRANCH  11  12
ENDBRANCH   5  11
TORSDOF 4
ENDMDL
MODEL 9
REMARK VINA RESULT:      -4.8      2.015      4.945
REMARK  4 active torsions:
REMARK  status: ('A' for Active; 'I' for Inactive)
REMARK    1  A    between atoms: C_18  and  C_5 
REMARK    2  A    between atoms: C_7  and  C_8 
REMARK       I    between atoms: C_8  and  N_17 
REMARK    3  A    between atoms: N_17  and  C_19 
REMARK    4  A    between atoms: C_19  and  C_18 
ROOT
ATOM      1  C   UNL d   1     -44.842  11.507  23.079  0.00  0.00     0.148 A 
ATOM      2  N   UNL d   1     -45.430  11.054  23.441  0.00  0.00    -0.288 N 
ATOM      3  N   UNL d   1     -45.162  12.234  22.888  0.00  0.00    -0.227 NA
ATOM      4  C   UNL d   1     -46.118  11.517  23.468  0.00  0.00     0.101 A 
ATOM      5  C   UNL d   1     -45.946  12.245  23.125  0.00  0.00     0.102 A 
ATOM      6  C   UNL d   1     -44.090  11.183  22.978  0.00  0.00     0.035 A 
ATOM      7  C   UNL d   1     -45.272  10.289  23.697  0.00  0.00     0.082 A 
ATOM      8  C   UNL d   1     -44.524   9.972  23.594  0.00  0.00     0.019 A 
ATOM      9  C   UNL d   1     -43.924  10.420  23.231  0.00  0.00     0.004 A 
ATOM     10  C   UNL d   1     -43.487  11.632  22.614  0.00  0.00     0.003 C 
ENDROOT
BRANCH   5  11
ATOM     11  C   UNL d   1     -46.471  12.882  23.032  0.00  0.00     0.042 C 
BRANCH  11  12
ATOM     12  C   UNL d   1     -47.229  12.753  22.722  0.00  0.00     0.104 C 
BRANCH  12  13
ATOM     13  N   UNL d   1     -47.577  13.317  22.240  0.00  0.00    -0.205 NA
ATOM     14  C   UNL d   1     -48.394  13.304  22.109  0.00  0.00     0.302 C 
ATOM     15  O   UNL d   1     -48.734  13.866  21.630  0.00  0.00    -0.263 OA
BRANCH  14  16
ATOM     16  C   UNL d   1     -48.855  12.718  22.468  0.00  0.00     0.158 A 
ATOM     17  O   UNL d   1     -49.215  12.865  23.188  0.00  0.00    -0.300 OA
ATOM     18  C   UNL d   1     -49.634  12.188  23.409  0.00  0.00     0.123 A 
ATOM     19  C   UNL d   1     -49.533  11.626  22.829  0.00  0.00     0.029 A 
ATOM     20  C   UNL d   1     -49.046  11.954  22.236  0.00  0.00     0.032 A 
ENDBRANCH  14  16
ENDBRANCH  12  13
ENDBRANCH  11  12
ENDBRANCH   5  11
TORSDOF 4
ENDMDL
