MODEL 1
REMARK VINA RESULT:      -5.5      0.000      0.000
REMARK  7 active torsions:
REMARK  status: ('A' for Active; 'I' for Inactive)
REMARK    1  A    between atoms: C_10  and  N_1 
REMARK    2  A    between atoms: S_12  and  C_2 
REMARK    3  A    between atoms: S_3  and  N_11 
REMARK    4  A    between atoms: C_7  and  S_3 
REMARK    5  A    between atoms: N_11  and  C_15 
REMARK    6  A    between atoms: C_19  and  S_12 
REMARK    7  A    between atoms: C_15  and  C_19 
ROOT
ATOM      1  C   UNL d   1     -41.817-122.404 -50.518  0.00  0.00     0.060 C 
ENDROOT
BRANCH   1   2
ATOM      2  C   UNL d   1     -41.555-122.731 -51.211  0.00  0.00     0.119 C 
BRANCH   2   3
ATOM      3  N   UNL d   1     -41.130-122.277 -51.763  0.00  0.00    -0.156 NA
BRANCH   3   4
ATOM      4  S   UNL d   1     -41.335-122.300 -52.562  0.00  0.00     0.285 S 
ATOM      5  O   UNL d   1     -41.555-121.474 -52.538  0.00  0.00    -0.198 OA
ATOM      6  O   UNL d   1     -41.128-123.104 -52.611  0.00  0.00    -0.198 OA
BRANCH   4   7
ATOM      7  C   UNL d   1     -41.549-122.305 -53.378  0.00  0.00     0.105 A 
ATOM      8  C   UNL d   1     -42.072-121.739 -53.643  0.00  0.00     0.013 A 
ATOM      9  C   UNL d   1     -42.287-121.733 -54.428  0.00  0.00     0.001 A 
ATOM     10  C   UNL d   1     -41.976-122.298 -54.953  0.00  0.00     0.000 A 
ATOM     11  C   UNL d   1     -41.457-122.855 -54.672  0.00  0.00     0.001 A 
ATOM     12  C   UNL d   1     -42.201-122.289 -55.762  0.00  0.00     0.000 C 
ATOM     13  C   UNL d   1     -41.239-122.871 -53.903  0.00  0.00     0.013 A 
ENDBRANCH   4   7
ENDBRANCH   3   4
ENDBRANCH   2   3
ENDBRANCH   1   2
BRANCH   1  14
ATOM     14  S   UNL d   1     -41.896-122.846 -49.856  0.00  0.00    -0.045 SA
BRANCH  14  15
ATOM     15  C   UNL d   1     -42.615-123.191 -49.661  0.00  0.00     0.219 A 
ATOM     16  N   UNL d   1     -42.771-123.382 -48.893  0.00  0.00    -0.186 N 
ATOM     17  N   UNL d   1     -43.526-123.717 -48.855  0.00  0.00    -0.038 NA
ATOM     18  N   UNL d   1     -43.816-123.721 -49.615  0.00  0.00    -0.022 NA
ATOM     19  N   UNL d   1     -43.276-123.407 -50.105  0.00  0.00    -0.101 NA
BRANCH  16  20
ATOM     20  C   UNL d   1     -42.259-123.261 -48.258  0.00  0.00     0.087 A 
ATOM     21  C   UNL d   1     -42.329-122.599 -47.780  0.00  0.00     0.019 A 
ATOM     22  C   UNL d   1     -41.810-122.481 -47.139  0.00  0.00     0.002 A 
ATOM     23  C   UNL d   1     -41.217-123.032 -46.977  0.00  0.00     0.000 A 
ATOM     24  C   UNL d   1     -41.152-123.699 -47.464  0.00  0.00     0.002 A 
ATOM     25  C   UNL d   1     -41.670-123.816 -48.103  0.00  0.00     0.019 A 
ENDBRANCH  16  20
ENDBRANCH  14  15
ENDBRANCH   1  14
TORSDOF 7
ENDMDL
