MODEL 1
REMARK VINA RESULT:      13.5      0.000      0.000
REMARK  1 active torsions:
REMARK  status: ('A' for Active; 'I' for Inactive)
REMARK    1  A    between atoms: C_2  and  N_1 
ROOT
ATOM      1  C   UNL d   1      22.680  12.779  -1.231  0.00  0.00     0.129 A 
ATOM      2  C   UNL d   1      23.374  13.142  -0.970  0.00  0.00     0.043 A 
ATOM      3  C   UNL d   1      24.074  13.054  -1.405  0.00  0.00     0.123 A 
ATOM      4  C   UNL d   1      24.074  12.603  -2.096  0.00  0.00     0.224 A 
ATOM      5  C   UNL d   1      22.684  12.334  -1.917  0.00  0.00     0.038 A 
ATOM      6  C   UNL d   1      23.385  12.246  -2.352  0.00  0.00     0.100 A 
ATOM      7  N   UNL d   1      24.765  13.414  -1.147  0.00  0.00    -0.241 NA
ATOM      8  O   UNL d   1      24.767  12.516  -2.527  0.00  0.00    -0.284 OA
ATOM      9 CL   UNL d   1      23.387  11.798  -3.040  0.00  0.00    -0.079 Cl
ATOM     10  C   UNL d   1      23.371  13.589  -0.281  0.00  0.00     0.005 A 
ATOM     11  C   UNL d   1      24.768  13.866  -0.452  0.00  0.00     0.099 A 
ATOM     12  C   UNL d   1      24.067  13.954  -0.018  0.00  0.00     0.021 A 
ENDROOT
BRANCH   1  13
ATOM     13  N   UNL d   1      21.987  12.867  -0.801  0.00  0.00    -0.114 N 
ATOM     14  O   UNL d   1      21.872  12.438  -0.107  0.00  0.00    -0.532 OA
ATOM     15  O   UNL d   1      21.404  13.383  -1.061  0.00  0.00    -0.532 OA
ENDBRANCH   1  13
TORSDOF 1
ENDMDL
