MODEL 1
REMARK VINA RESULT:      47.0      0.000      0.000
REMARK  5 active torsions:
REMARK  status: ('A' for Active; 'I' for Inactive)
REMARK    1  A    between atoms: C_3  and  C_1 
REMARK    2  A    between atoms: N_8  and  C_3 
REMARK    3  A    between atoms: C_9  and  C_3 
REMARK    4  A    between atoms: C_17  and  C_7 
REMARK    5  A    between atoms: C_10  and  N_8 
ROOT
ATOM      1  C   UNL d   1      44.380 -15.835  37.018  0.00  0.00     0.109 C 
ENDROOT
BRANCH   1   2
ATOM      2  C   UNL d   1      44.779 -15.125  37.159  0.00  0.00     0.160 A 
ATOM      3  C   UNL d   1      45.522 -14.969  36.817  0.00  0.00     0.258 A 
ATOM      4  C   UNL d   1      45.903 -14.238  36.981  0.00  0.00     0.238 A 
ATOM      5  O   UNL d   1      45.873 -15.521  36.330  0.00  0.00    -0.281 OA
ATOM      6  O   UNL d   1      46.646 -14.082  36.638  0.00  0.00    -0.283 OA
ATOM      7  C   UNL d   1      45.551 -13.686  37.468  0.00  0.00     0.073 A 
ATOM      8  C   UNL d   1      44.809 -13.842  37.810  0.00  0.00     0.146 A 
ATOM      9  O   UNL d   1      44.428 -14.548  37.660  0.00  0.00    -0.299 OA
BRANCH   8  10
ATOM     10  C   UNL d   1      44.458 -13.272  38.307  0.00  0.00     0.259 C 
ATOM     11  O   UNL d   1      44.839 -13.012  39.010  0.00  0.00    -0.281 OA
ENDBRANCH   8  10
ENDBRANCH   1   2
BRANCH   1  12
ATOM     12  N   UNL d   1      43.932 -15.949  36.330  0.00  0.00    -0.225 NA
BRANCH  12  13
ATOM     13  C   UNL d   1      43.130 -15.811  36.331  0.00  0.00     0.163 A 
ATOM     14  N   UNL d   1      42.837 -15.040  36.333  0.00  0.00    -0.225 NA
ATOM     15  C   UNL d   1      42.024 -14.910  36.334  0.00  0.00     0.101 A 
ATOM     16  C   UNL d   1      41.503 -15.547  36.333  0.00  0.00     0.021 A 
ATOM     17  C   UNL d   1      41.777 -16.325  36.331  0.00  0.00     0.005 A 
ATOM     18  C   UNL d   1      42.586 -16.461  36.330  0.00  0.00     0.039 A 
ENDBRANCH  12  13
ENDBRANCH   1  12
BRANCH   1  19
ATOM     19  C   UNL d   1      44.433 -16.447  37.584  0.00  0.00     0.022 A 
ATOM     20  C   UNL d   1      44.287 -16.290  38.381  0.00  0.00     0.031 A 
ATOM     21  C   UNL d   1      44.341 -16.897  38.931  0.00  0.00     0.140 A 
ATOM     22  F   UNL d   1      44.195 -16.743  39.739  0.00  0.00    -0.204 F 
ATOM     23  C   UNL d   1      44.539 -17.660  38.690  0.00  0.00     0.030 A 
ATOM     24  C   UNL d   1      44.685 -17.824  37.896  0.00  0.00     0.002 A 
ATOM     25  C   UNL d   1      44.630 -17.210  37.343  0.00  0.00     0.002 A 
ENDBRANCH   1  19
TORSDOF 5
ENDMDL
MODEL 2
REMARK VINA RESULT:      47.0      5.871      7.017
REMARK  5 active torsions:
REMARK  status: ('A' for Active; 'I' for Inactive)
REMARK    1  A    between atoms: C_3  and  C_1 
REMARK    2  A    between atoms: N_8  and  C_3 
REMARK    3  A    between atoms: C_9  and  C_3 
REMARK    4  A    between atoms: C_17  and  C_7 
REMARK    5  A    between atoms: C_10  and  N_8 
ROOT
ATOM      1  C   UNL d   1      45.334 -14.703  44.253  0.00  0.00     0.109 C 
ENDROOT
BRANCH   1   2
ATOM      2  C   UNL d   1      45.473 -13.974  43.889  0.00  0.00     0.160 A 
ATOM      3  C   UNL d   1      45.966 -13.402  44.236  0.00  0.00     0.258 A 
ATOM      4  C   UNL d   1      46.088 -12.670  43.841  0.00  0.00     0.238 A 
ATOM      5  O   UNL d   1      46.327 -13.552  44.952  0.00  0.00    -0.281 OA
ATOM      6  O   UNL d   1      46.582 -12.097  44.189  0.00  0.00    -0.283 OA
ATOM      7  C   UNL d   1      45.727 -12.520  43.125  0.00  0.00     0.073 A 
ATOM      8  C   UNL d   1      45.233 -13.092  42.777  0.00  0.00     0.146 A 
ATOM      9  O   UNL d   1      45.107 -13.807  43.150  0.00  0.00    -0.299 OA
BRANCH   8  10
ATOM     10  C   UNL d   1      44.869 -12.930  42.044  0.00  0.00     0.259 C 
ATOM     11  O   UNL d   1      44.582 -12.161  41.861  0.00  0.00    -0.281 OA
ENDBRANCH   8  10
ENDBRANCH   1   2
BRANCH   1  12
ATOM     12  N   UNL d   1      44.897 -14.758  44.954  0.00  0.00    -0.225 NA
BRANCH  12  13
ATOM     13  C   UNL d   1      44.088 -14.661  44.947  0.00  0.00     0.163 A 
ATOM     14  N   UNL d   1      43.587 -15.317  44.933  0.00  0.00    -0.225 NA
ATOM     15  C   UNL d   1      42.771 -15.209  44.926  0.00  0.00     0.101 A 
ATOM     16  C   UNL d   1      42.454 -14.450  44.932  0.00  0.00     0.021 A 
ATOM     17  C   UNL d   1      42.938 -13.782  44.946  0.00  0.00     0.005 A 
ATOM     18  C   UNL d   1      43.753 -13.884  44.953  0.00  0.00     0.039 A 
ENDBRANCH  12  13
ENDBRANCH   1  12
BRANCH   1  19
ATOM     19  C   UNL d   1      45.644 -15.395  43.903  0.00  0.00     0.022 A 
ATOM     20  C   UNL d   1      45.769 -16.071  44.359  0.00  0.00     0.031 A 
ATOM     21  C   UNL d   1      46.074 -16.747  44.007  0.00  0.00     0.140 A 
ATOM     22  F   UNL d   1      46.203 -17.435  44.464  0.00  0.00    -0.204 F 
ATOM     23  C   UNL d   1      46.255 -16.752  43.203  0.00  0.00     0.030 A 
ATOM     24  C   UNL d   1      46.132 -16.080  42.742  0.00  0.00     0.002 A 
ATOM     25  C   UNL d   1      45.825 -15.399  43.099  0.00  0.00     0.002 A 
ENDBRANCH   1  19
TORSDOF 5
ENDMDL
MODEL 3
REMARK VINA RESULT:      48.7      1.155      2.560
REMARK  5 active torsions:
REMARK  status: ('A' for Active; 'I' for Inactive)
REMARK    1  A    between atoms: C_3  and  C_1 
REMARK    2  A    between atoms: N_8  and  C_3 
REMARK    3  A    between atoms: C_9  and  C_3 
REMARK    4  A    between atoms: C_17  and  C_7 
REMARK    5  A    between atoms: C_10  and  N_8 
ROOT
ATOM      1  C   UNL d   1      44.312 -15.801  37.291  0.00  0.00     0.109 C 
ENDROOT
BRANCH   1   2
ATOM      2  C   UNL d   1      44.801 -15.135  37.279  0.00  0.00     0.160 A 
ATOM      3  C   UNL d   1      45.481 -15.105  36.801  0.00  0.00     0.258 A 
ATOM      4  C   UNL d   1      45.959 -14.413  36.811  0.00  0.00     0.238 A 
ATOM      5  O   UNL d   1      45.680 -15.741  36.330  0.00  0.00    -0.281 OA
ATOM      6  O   UNL d   1      46.640 -14.383  36.332  0.00  0.00    -0.283 OA
ATOM      7  C   UNL d   1      45.760 -13.778  37.282  0.00  0.00     0.073 A 
ATOM      8  C   UNL d   1      45.080 -13.807  37.760  0.00  0.00     0.146 A 
ATOM      9  O   UNL d   1      44.607 -14.473  37.760  0.00  0.00    -0.299 OA
BRANCH   8  10
ATOM     10  C   UNL d   1      44.885 -13.153  38.238  0.00  0.00     0.259 C 
ATOM     11  O   UNL d   1      45.426 -12.851  38.807  0.00  0.00    -0.281 OA
ENDBRANCH   8  10
ENDBRANCH   1   2
BRANCH   1  12
ATOM     12  N   UNL d   1      44.617 -16.559  37.424  0.00  0.00    -0.225 NA
BRANCH  12  13
ATOM     13  C   UNL d   1      44.741 -16.828  38.182  0.00  0.00     0.163 A 
ATOM     14  N   UNL d   1      44.138 -17.208  38.596  0.00  0.00    -0.225 NA
ATOM     15  C   UNL d   1      44.273 -17.477  39.363  0.00  0.00     0.101 A 
ATOM     16  C   UNL d   1      45.008 -17.369  39.716  0.00  0.00     0.021 A 
ATOM     17  C   UNL d   1      45.624 -16.992  39.318  0.00  0.00     0.005 A 
ATOM     18  C   UNL d   1      45.495 -16.721  38.553  0.00  0.00     0.039 A 
ENDBRANCH  12  13
ENDBRANCH   1  12
BRANCH   1  19
ATOM     19  C   UNL d   1      43.491 -15.701  37.167  0.00  0.00     0.022 A 
ATOM     20  C   UNL d   1      43.024 -15.343  37.745  0.00  0.00     0.031 A 
ATOM     21  C   UNL d   1      42.219 -15.249  37.616  0.00  0.00     0.140 A 
ATOM     22  F   UNL d   1      41.741 -14.887  38.198  0.00  0.00    -0.204 F 
ATOM     23  C   UNL d   1      41.878 -15.509  36.912  0.00  0.00     0.030 A 
ATOM     24  C   UNL d   1      42.339 -15.867  36.331  0.00  0.00     0.002 A 
ATOM     25  C   UNL d   1      43.150 -15.961  36.463  0.00  0.00     0.002 A 
ENDBRANCH   1  19
TORSDOF 5
ENDMDL
