MODEL 1
REMARK VINA RESULT:      -4.5      0.000      0.000
REMARK  4 active torsions:
REMARK  status: ('A' for Active; 'I' for Inactive)
REMARK    1  A    between atoms: N_2  and  S_1 
REMARK    2  A    between atoms: C_5  and  S_1 
REMARK    3  A    between atoms: O_16  and  C_11 
REMARK    4  A    between atoms: C_19  and  O_16 
ROOT
ATOM      1  C   UNL d   1     -41.709-122.468 -51.802  0.00  0.00     0.107 A 
ATOM      2  C   UNL d   1     -42.157-122.973 -51.329  0.00  0.00     0.040 A 
ATOM      3  C   UNL d   1     -42.088-122.940 -50.507  0.00  0.00     0.128 A 
ATOM      4  C   UNL d   1     -41.572-122.402 -50.157  0.00  0.00     0.163 A 
ATOM      5  C   UNL d   1     -41.192-121.929 -51.452  0.00  0.00     0.015 A 
ATOM      6  C   UNL d   1     -41.123-121.896 -50.629  0.00  0.00     0.032 A 
ATOM      7  F   UNL d   1     -41.503-122.369 -49.334  0.00  0.00    -0.202 F 
ENDROOT
BRANCH   1   8
ATOM      8  S   UNL d   1     -41.778-122.501 -52.624  0.00  0.00     0.286 S 
ATOM      9  O   UNL d   1     -41.974-123.302 -52.576  0.00  0.00    -0.198 OA
ATOM     10  O   UNL d   1     -41.581-121.700 -52.673  0.00  0.00    -0.198 OA
BRANCH   8  11
ATOM     11  N   UNL d   1     -41.846-122.534 -53.447  0.00  0.00    -0.152 N 
ATOM     12  N   UNL d   1     -42.226-121.984 -53.927  0.00  0.00    -0.155 NA
ATOM     13  C   UNL d   1     -42.163-122.230 -54.707  0.00  0.00     0.104 A 
ATOM     14  C   UNL d   1     -42.468-121.837 -55.371  0.00  0.00     0.022 C 
ATOM     15  C   UNL d   1     -41.741-122.940 -54.714  0.00  0.00     0.041 A 
ATOM     16  C   UNL d   1     -41.545-123.128 -53.938  0.00  0.00     0.096 A 
ATOM     17  C   UNL d   1     -41.123-123.791 -53.688  0.00  0.00     0.022 C 
ENDBRANCH   8  11
ENDBRANCH   1   8
BRANCH   3  18
ATOM     18  O   UNL d   1     -42.536-123.446 -50.034  0.00  0.00    -0.303 OA
BRANCH  18  19
ATOM     19  C   UNL d   1     -43.322-123.253 -49.844  0.00  0.00     0.123 C 
ATOM     20  C   UNL d   1     -43.816-123.817 -49.503  0.00  0.00     0.029 C 
ENDBRANCH  18  19
ENDBRANCH   3  18
TORSDOF 4
ENDMDL
MODEL 2
REMARK VINA RESULT:      -4.5      2.090      4.205
REMARK  4 active torsions:
REMARK  status: ('A' for Active; 'I' for Inactive)
REMARK    1  A    between atoms: N_2  and  S_1 
REMARK    2  A    between atoms: C_5  and  S_1 
REMARK    3  A    between atoms: O_16  and  C_11 
REMARK    4  A    between atoms: C_19  and  O_16 
ROOT
ATOM      1  C   UNL d   1     -41.776-122.527 -50.694  0.00  0.00     0.107 A 
ATOM      2  C   UNL d   1     -41.572-123.024 -51.318  0.00  0.00     0.040 A 
ATOM      3  C   UNL d   1     -41.354-122.705 -52.048  0.00  0.00     0.128 A 
ATOM      4  C   UNL d   1     -41.341-121.888 -52.154  0.00  0.00     0.163 A 
ATOM      5  C   UNL d   1     -41.762-121.709 -50.799  0.00  0.00     0.015 A 
ATOM      6  C   UNL d   1     -41.545-121.389 -51.529  0.00  0.00     0.032 A 
ATOM      7  F   UNL d   1     -41.123-121.568 -52.884  0.00  0.00    -0.202 F 
ENDROOT
BRANCH   1   8
ATOM      8  S   UNL d   1     -41.993-122.846 -49.964  0.00  0.00     0.286 S 
ATOM      9  O   UNL d   1     -41.272-123.248 -49.925  0.00  0.00    -0.198 OA
ATOM     10  O   UNL d   1     -42.714-122.445 -50.003  0.00  0.00    -0.198 OA
BRANCH   8  11
ATOM     11  N   UNL d   1     -42.210-123.166 -49.234  0.00  0.00    -0.152 N 
ATOM     12  N   UNL d   1     -41.792-123.099 -48.528  0.00  0.00    -0.155 NA
ATOM     13  C   UNL d   1     -42.204-123.497 -47.941  0.00  0.00     0.104 A 
ATOM     14  C   UNL d   1     -41.978-123.568 -47.146  0.00  0.00     0.022 C 
ATOM     15  C   UNL d   1     -42.884-123.816 -48.284  0.00  0.00     0.041 A 
ATOM     16  C   UNL d   1     -42.889-123.613 -49.080  0.00  0.00     0.096 A 
ATOM     17  C   UNL d   1     -43.467-123.816 -49.633  0.00  0.00     0.022 C 
ENDBRANCH   8  11
ENDBRANCH   1   8
BRANCH   3  18
ATOM     18  O   UNL d   1     -41.150-123.202 -52.673  0.00  0.00    -0.303 OA
BRANCH  18  19
ATOM     19  C   UNL d   1     -41.736-123.484 -53.191  0.00  0.00     0.123 C 
ATOM     20  C   UNL d   1     -41.524-123.816 -53.915  0.00  0.00     0.029 C 
ENDBRANCH  18  19
ENDBRANCH   3  18
TORSDOF 4
ENDMDL
MODEL 3
REMARK VINA RESULT:      -3.3      1.834      4.100
REMARK  4 active torsions:
REMARK  status: ('A' for Active; 'I' for Inactive)
REMARK    1  A    between atoms: N_2  and  S_1 
REMARK    2  A    between atoms: C_5  and  S_1 
REMARK    3  A    between atoms: O_16  and  C_11 
REMARK    4  A    between atoms: C_19  and  O_16 
ROOT
ATOM      1  C   UNL d   1     -41.605-122.943 -53.163  0.00  0.00     0.107 A 
ATOM      2  C   UNL d   1     -41.998-122.493 -53.731  0.00  0.00     0.040 A 
ATOM      3  C   UNL d   1     -41.955-122.704 -54.528  0.00  0.00     0.128 A 
ATOM      4  C   UNL d   1     -41.520-123.365 -54.758  0.00  0.00     0.163 A 
ATOM      5  C   UNL d   1     -41.169-123.605 -53.392  0.00  0.00     0.015 A 
ATOM      6  C   UNL d   1     -41.127-123.816 -54.190  0.00  0.00     0.032 A 
ATOM      7  F   UNL d   1     -41.477-123.576 -55.555  0.00  0.00    -0.202 F 
ENDROOT
BRANCH   1   8
ATOM      8  S   UNL d   1     -41.648-122.732 -52.365  0.00  0.00     0.286 S 
ATOM      9  O   UNL d   1     -41.224-123.412 -52.163  0.00  0.00    -0.198 OA
ATOM     10  O   UNL d   1     -42.071-122.052 -52.568  0.00  0.00    -0.198 OA
BRANCH   8  11
ATOM     11  N   UNL d   1     -41.690-122.521 -51.568  0.00  0.00    -0.152 N 
ATOM     12  N   UNL d   1     -41.979-122.988 -50.955  0.00  0.00    -0.155 NA
ATOM     13  C   UNL d   1     -41.920-122.565 -50.254  0.00  0.00     0.104 A 
ATOM     14  C   UNL d   1     -42.149-122.829 -49.502  0.00  0.00     0.022 C 
ATOM     15  C   UNL d   1     -41.592-121.828 -50.432  0.00  0.00     0.041 A 
ATOM     16  C   UNL d   1     -41.450-121.801 -51.240  0.00  0.00     0.096 A 
ATOM     17  C   UNL d   1     -41.125-121.167 -51.658  0.00  0.00     0.022 C 
ENDBRANCH   8  11
ENDBRANCH   1   8
BRANCH   3  18
ATOM     18  O   UNL d   1     -42.348-122.254 -55.096  0.00  0.00    -0.303 OA
BRANCH  18  19
ATOM     19  C   UNL d   1     -41.974-121.594 -55.437  0.00  0.00     0.123 C 
ATOM     20  C   UNL d   1     -42.137-121.384 -56.217  0.00  0.00     0.029 C 
ENDBRANCH  18  19
ENDBRANCH   3  18
TORSDOF 4
ENDMDL
MODEL 4
REMARK VINA RESULT:      -3.1      1.011      1.400
REMARK  4 active torsions:
REMARK  status: ('A' for Active; 'I' for Inactive)
REMARK    1  A    between atoms: N_2  and  S_1 
REMARK    2  A    between atoms: C_5  and  S_1 
REMARK    3  A    between atoms: O_16  and  C_11 
REMARK    4  A    between atoms: C_19  and  O_16 
ROOT
ATOM      1  C   UNL d   1     -41.630-122.868 -52.506  0.00  0.00     0.107 A 
ATOM      2  C   UNL d   1     -42.011-122.468 -51.894  0.00  0.00     0.040 A 
ATOM      3  C   UNL d   1     -41.949-122.743 -51.118  0.00  0.00     0.128 A 
ATOM      4  C   UNL d   1     -41.505-123.418 -50.953  0.00  0.00     0.163 A 
ATOM      5  C   UNL d   1     -41.185-123.542 -52.341  0.00  0.00     0.015 A 
ATOM      6  C   UNL d   1     -41.123-123.818 -51.565  0.00  0.00     0.032 A 
ATOM      7  F   UNL d   1     -41.443-123.693 -50.177  0.00  0.00    -0.202 F 
ENDROOT
BRANCH   1   8
ATOM      8  S   UNL d   1     -41.692-122.592 -53.282  0.00  0.00     0.286 S 
ATOM      9  O   UNL d   1     -42.165-123.242 -53.474  0.00  0.00    -0.198 OA
ATOM     10  O   UNL d   1     -41.219-121.943 -53.090  0.00  0.00    -0.198 OA
BRANCH   8  11
ATOM     11  N   UNL d   1     -41.754-122.317 -54.059  0.00  0.00    -0.152 N 
ATOM     12  N   UNL d   1     -41.246-122.495 -54.681  0.00  0.00    -0.155 NA
ATOM     13  C   UNL d   1     -41.510-122.107 -55.354  0.00  0.00     0.104 A 
ATOM     14  C   UNL d   1     -41.160-122.134 -56.105  0.00  0.00     0.022 C 
ATOM     15  C   UNL d   1     -42.189-121.683 -55.149  0.00  0.00     0.041 A 
ATOM     16  C   UNL d   1     -42.340-121.812 -54.352  0.00  0.00     0.096 A 
ATOM     17  C   UNL d   1     -42.965-121.496 -53.915  0.00  0.00     0.022 C 
ENDBRANCH   8  11
ENDBRANCH   1   8
BRANCH   3  18
ATOM     18  O   UNL d   1     -42.331-122.344 -50.507  0.00  0.00    -0.303 OA
BRANCH  18  19
ATOM     19  C   UNL d   1     -43.081-122.595 -50.248  0.00  0.00     0.123 C 
ATOM     20  C   UNL d   1     -43.522-122.122 -49.738  0.00  0.00     0.029 C 
ENDBRANCH  18  19
ENDBRANCH   3  18
TORSDOF 4
ENDMDL
