MODEL 1
REMARK VINA RESULT:      -9.0      0.000      0.000
REMARK  6 active torsions:
REMARK  status: ('A' for Active; 'I' for Inactive)
REMARK    1  A    between atoms: S_3  and  C_1 
REMARK    2  A    between atoms: C_11  and  S_3 
REMARK    3  A    between atoms: N_8  and  C_4 
REMARK    4  A    between atoms: C_7  and  C_5 
REMARK    5  A    between atoms: C_18  and  N_8 
REMARK    6  A    between atoms: C_17  and  C_18 
ROOT
ATOM      1  C   UNL d   1      52.694  33.155  53.604  0.00  0.00     0.212 A 
ATOM      2  N   UNL d   1      52.096  33.713  53.510  0.00  0.00    -0.205 NA
ATOM      3  C   UNL d   1      52.474  32.471  53.199  0.00  0.00     0.213 A 
ATOM      4  C   UNL d   1      51.505  33.374  53.046  0.00  0.00     0.208 A 
ATOM      5  O   UNL d   1      51.737  32.610  52.855  0.00  0.00    -0.267 OA
ENDROOT
BRANCH   1   6
ATOM      6  S   UNL d   1      53.368  33.333  54.046  0.00  0.00     0.230 S 
ATOM      7  O   UNL d   1      53.358  33.271  54.866  0.00  0.00    -0.215 OA
ATOM      8  O   UNL d   1      54.063  33.578  53.660  0.00  0.00    -0.215 OA
BRANCH   6   9
ATOM      9  C   UNL d   1      54.044  33.513  54.479  0.00  0.00     0.090 A 
ATOM     10  C   UNL d   1      54.038  33.460  55.306  0.00  0.00     0.011 A 
ATOM     11  C   UNL d   1      54.720  33.641  55.738  0.00  0.00     0.001 A 
ATOM     12  C   UNL d   1      55.410  33.877  55.341  0.00  0.00     0.000 A 
ATOM     13  C   UNL d   1      55.417  33.930  54.515  0.00  0.00     0.001 A 
ATOM     14  C   UNL d   1      54.729  33.747  54.087  0.00  0.00     0.011 A 
ENDBRANCH   6   9
ENDBRANCH   1   6
BRANCH   3  15
ATOM     15  N   UNL d   1      52.910  31.771  53.145  0.00  0.00    -0.219 NA
BRANCH  15  16
ATOM     16  C   UNL d   1      52.545  31.067  52.932  0.00  0.00     0.103 C 
BRANCH  16  17
ATOM     17  C   UNL d   1      52.814  30.362  53.263  0.00  0.00     0.038 A 
ATOM     18  C   UNL d   1      52.277  29.826  53.594  0.00  0.00     0.101 A 
ATOM     19  N   UNL d   1      52.551  29.122  53.923  0.00  0.00    -0.242 NA
ATOM     20  C   UNL d   1      53.356  28.960  53.918  0.00  0.00     0.099 A 
ATOM     21  C   UNL d   1      53.889  29.490  53.590  0.00  0.00     0.021 A 
ATOM     22  C   UNL d   1      53.617  30.197  53.259  0.00  0.00     0.005 A 
ENDBRANCH  16  17
ENDBRANCH  15  16
ENDBRANCH   3  15
BRANCH   4  23
ATOM     23  C   UNL d   1      50.911  33.928  52.952  0.00  0.00     0.141 A 
ATOM     24  O   UNL d   1      50.467  34.499  53.341  0.00  0.00    -0.302 OA
ATOM     25  C   UNL d   1      49.941  34.831  52.799  0.00  0.00     0.123 A 
ATOM     26  C   UNL d   1      50.064  34.459  52.072  0.00  0.00     0.029 A 
ATOM     27  C   UNL d   1      50.662  33.903  52.166  0.00  0.00     0.030 A 
ENDBRANCH   4  23
TORSDOF 6
ENDMDL
MODEL 2
REMARK VINA RESULT:      -8.8      1.241      3.828
REMARK  6 active torsions:
REMARK  status: ('A' for Active; 'I' for Inactive)
REMARK    1  A    between atoms: S_3  and  C_1 
REMARK    2  A    between atoms: C_11  and  S_3 
REMARK    3  A    between atoms: N_8  and  C_4 
REMARK    4  A    between atoms: C_7  and  C_5 
REMARK    5  A    between atoms: C_18  and  N_8 
REMARK    6  A    between atoms: C_17  and  C_18 
ROOT
ATOM      1  C   UNL d   1      53.619  31.801  53.962  0.00  0.00     0.212 A 
ATOM      2  N   UNL d   1      53.790  31.014  54.131  0.00  0.00    -0.205 NA
ATOM      3  C   UNL d   1      52.939  31.822  53.493  0.00  0.00     0.213 A 
ATOM      4  C   UNL d   1      53.217  30.547  53.766  0.00  0.00     0.208 A 
ATOM      5  O   UNL d   1      52.695  31.043  53.374  0.00  0.00    -0.267 OA
ENDROOT
BRANCH   1   6
ATOM      6  S   UNL d   1      54.097  32.406  54.254  0.00  0.00     0.230 S 
ATOM      7  O   UNL d   1      54.696  32.727  53.788  0.00  0.00    -0.215 OA
ATOM      8  O   UNL d   1      53.976  32.696  55.024  0.00  0.00    -0.215 OA
BRANCH   6   9
ATOM      9  C   UNL d   1      54.571  33.010  54.552  0.00  0.00     0.090 A 
ATOM     10  C   UNL d   1      55.165  33.347  54.083  0.00  0.00     0.011 A 
ATOM     11  C   UNL d   1      55.639  33.953  54.387  0.00  0.00     0.001 A 
ATOM     12  C   UNL d   1      55.517  34.224  55.162  0.00  0.00     0.000 A 
ATOM     13  C   UNL d   1      54.924  33.888  55.632  0.00  0.00     0.001 A 
ATOM     14  C   UNL d   1      54.451  33.279  55.321  0.00  0.00     0.011 A 
ENDBRANCH   6   9
ENDBRANCH   1   6
BRANCH   3  15
ATOM     15  N   UNL d   1      52.570  32.498  53.196  0.00  0.00    -0.219 NA
BRANCH  15  16
ATOM     16  C   UNL d   1      51.804  32.460  52.902  0.00  0.00     0.103 C 
BRANCH  16  17
ATOM     17  C   UNL d   1      51.382  33.159  52.793  0.00  0.00     0.038 A 
ATOM     18  C   UNL d   1      50.714  33.319  53.254  0.00  0.00     0.101 A 
ATOM     19  N   UNL d   1      50.296  34.020  53.141  0.00  0.00    -0.242 NA
ATOM     20  C   UNL d   1      50.549  34.553  52.571  0.00  0.00     0.099 A 
ATOM     21  C   UNL d   1      51.211  34.397  52.113  0.00  0.00     0.021 A 
ATOM     22  C   UNL d   1      51.632  33.694  52.224  0.00  0.00     0.005 A 
ENDBRANCH  16  17
ENDBRANCH  15  16
ENDBRANCH   3  15
BRANCH   4  23
ATOM     23  C   UNL d   1      53.388  29.764  53.933  0.00  0.00     0.141 A 
ATOM     24  O   UNL d   1      53.827  29.113  53.692  0.00  0.00    -0.302 OA
ATOM     25  C   UNL d   1      53.667  28.489  54.206  0.00  0.00     0.123 A 
ATOM     26  C   UNL d   1      53.125  28.760  54.767  0.00  0.00     0.029 A 
ATOM     27  C   UNL d   1      52.953  29.546  54.599  0.00  0.00     0.030 A 
ENDBRANCH   4  23
TORSDOF 6
ENDMDL
MODEL 3
REMARK VINA RESULT:      -8.3      0.851      3.379
REMARK  6 active torsions:
REMARK  status: ('A' for Active; 'I' for Inactive)
REMARK    1  A    between atoms: S_3  and  C_1 
REMARK    2  A    between atoms: C_11  and  S_3 
REMARK    3  A    between atoms: N_8  and  C_4 
REMARK    4  A    between atoms: C_7  and  C_5 
REMARK    5  A    between atoms: C_18  and  N_8 
REMARK    6  A    between atoms: C_17  and  C_18 
ROOT
ATOM      1  C   UNL d   1      52.849  33.252  53.652  0.00  0.00     0.212 A 
ATOM      2  N   UNL d   1      53.314  33.780  54.079  0.00  0.00    -0.205 NA
ATOM      3  C   UNL d   1      53.197  32.505  53.702  0.00  0.00     0.213 A 
ATOM      4  C   UNL d   1      53.950  33.360  54.393  0.00  0.00     0.208 A 
ATOM      5  O   UNL d   1      53.878  32.577  54.161  0.00  0.00    -0.267 OA
ENDROOT
BRANCH   1   6
ATOM      6  S   UNL d   1      52.166  33.510  53.269  0.00  0.00     0.230 S 
ATOM      7  O   UNL d   1      51.440  33.498  53.655  0.00  0.00    -0.215 OA
ATOM      8  O   UNL d   1      52.210  33.786  52.485  0.00  0.00    -0.215 OA
BRANCH   6   9
ATOM      9  C   UNL d   1      51.488  33.770  52.879  0.00  0.00     0.090 A 
ATOM     10  C   UNL d   1      50.761  33.790  53.273  0.00  0.00     0.011 A 
ATOM     11  C   UNL d   1      50.082  34.051  52.879  0.00  0.00     0.001 A 
ATOM     12  C   UNL d   1      50.133  34.293  52.086  0.00  0.00     0.000 A 
ATOM     13  C   UNL d   1      50.860  34.273  51.690  0.00  0.00     0.001 A 
ATOM     14  C   UNL d   1      51.537  34.009  52.093  0.00  0.00     0.011 A 
ENDBRANCH   6   9
ENDBRANCH   1   6
BRANCH   3  15
ATOM     15  N   UNL d   1      52.916  31.810  53.354  0.00  0.00    -0.219 NA
BRANCH  15  16
ATOM     16  C   UNL d   1      53.416  31.169  53.242  0.00  0.00     0.103 C 
BRANCH  16  17
ATOM     17  C   UNL d   1      53.126  30.408  53.373  0.00  0.00     0.038 A 
ATOM     18  C   UNL d   1      52.485  30.125  52.935  0.00  0.00     0.101 A 
ATOM     19  N   UNL d   1      52.199  29.365  53.070  0.00  0.00    -0.242 NA
ATOM     20  C   UNL d   1      52.556  28.895  53.641  0.00  0.00     0.099 A 
ATOM     21  C   UNL d   1      53.192  29.173  54.077  0.00  0.00     0.021 A 
ATOM     22  C   UNL d   1      53.481  29.936  53.943  0.00  0.00     0.005 A 
ENDBRANCH  16  17
ENDBRANCH  15  16
ENDBRANCH   3  15
BRANCH   4  23
ATOM     23  C   UNL d   1      54.412  33.885  54.818  0.00  0.00     0.141 A 
ATOM     24  O   UNL d   1      54.420  34.623  55.179  0.00  0.00    -0.302 OA
ATOM     25  C   UNL d   1      55.166  34.741  55.510  0.00  0.00     0.123 A 
ATOM     26  C   UNL d   1      55.619  34.069  55.350  0.00  0.00     0.029 A 
ATOM     27  C   UNL d   1      55.155  33.542  54.923  0.00  0.00     0.030 A 
ENDBRANCH   4  23
TORSDOF 6
ENDMDL
MODEL 4
REMARK VINA RESULT:      -7.9      1.312      4.287
REMARK  6 active torsions:
REMARK  status: ('A' for Active; 'I' for Inactive)
REMARK    1  A    between atoms: S_3  and  C_1 
REMARK    2  A    between atoms: C_11  and  S_3 
REMARK    3  A    between atoms: N_8  and  C_4 
REMARK    4  A    between atoms: C_7  and  C_5 
REMARK    5  A    between atoms: C_18  and  N_8 
REMARK    6  A    between atoms: C_17  and  C_18 
ROOT
ATOM      1  C   UNL d   1      52.646  32.060  53.234  0.00  0.00     0.212 A 
ATOM      2  N   UNL d   1      52.427  31.273  53.131  0.00  0.00    -0.205 NA
ATOM      3  C   UNL d   1      53.407  32.074  53.554  0.00  0.00     0.213 A 
ATOM      4  C   UNL d   1      53.052  30.801  53.387  0.00  0.00     0.208 A 
ATOM      5  O   UNL d   1      53.654  31.293  53.648  0.00  0.00    -0.267 OA
ENDROOT
BRANCH   1   6
ATOM      6  S   UNL d   1      52.131  32.669  53.025  0.00  0.00     0.230 S 
ATOM      7  O   UNL d   1      52.158  33.000  52.272  0.00  0.00    -0.215 OA
ATOM      8  O   UNL d   1      51.580  32.953  53.580  0.00  0.00    -0.215 OA
BRANCH   6   9
ATOM      9  C   UNL d   1      51.614  33.278  52.825  0.00  0.00     0.090 A 
ATOM     10  C   UNL d   1      51.771  33.764  52.173  0.00  0.00     0.011 A 
ATOM     11  C   UNL d   1      51.249  34.374  51.975  0.00  0.00     0.001 A 
ATOM     12  C   UNL d   1      50.567  34.498  52.431  0.00  0.00     0.000 A 
ATOM     13  C   UNL d   1      50.408  34.013  53.083  0.00  0.00     0.001 A 
ATOM     14  C   UNL d   1      50.937  33.402  53.277  0.00  0.00     0.011 A 
ENDBRANCH   6   9
ENDBRANCH   1   6
BRANCH   3  15
ATOM     15  N   UNL d   1      53.844  32.749  53.747  0.00  0.00    -0.219 NA
BRANCH  15  16
ATOM     16  C   UNL d   1      54.600  32.680  54.061  0.00  0.00     0.103 C 
BRANCH  16  17
ATOM     17  C   UNL d   1      54.869  33.257  54.584  0.00  0.00     0.038 A 
ATOM     18  C   UNL d   1      55.412  33.828  54.330  0.00  0.00     0.101 A 
ATOM     19  N   UNL d   1      55.678  34.403  54.857  0.00  0.00    -0.242 NA
ATOM     20  C   UNL d   1      55.401  34.402  55.629  0.00  0.00     0.099 A 
ATOM     21  C   UNL d   1      54.864  33.837  55.883  0.00  0.00     0.021 A 
ATOM     22  C   UNL d   1      54.595  33.259  55.356  0.00  0.00     0.005 A 
ENDBRANCH  16  17
ENDBRANCH  15  16
ENDBRANCH   3  15
BRANCH   4  23
ATOM     23  C   UNL d   1      52.833  30.019  53.285  0.00  0.00     0.141 A 
ATOM     24  O   UNL d   1      52.389  29.508  52.820  0.00  0.00    -0.302 OA
ATOM     25  C   UNL d   1      52.478  28.744  53.118  0.00  0.00     0.123 A 
ATOM     26  C   UNL d   1      52.981  28.788  53.772  0.00  0.00     0.029 A 
ATOM     27  C   UNL d   1      53.200  29.573  53.875  0.00  0.00     0.030 A 
ENDBRANCH   4  23
TORSDOF 6
ENDMDL
MODEL 5
REMARK VINA RESULT:      -7.6      1.314      3.442
REMARK  6 active torsions:
REMARK  status: ('A' for Active; 'I' for Inactive)
REMARK    1  A    between atoms: S_3  and  C_1 
REMARK    2  A    between atoms: C_11  and  S_3 
REMARK    3  A    between atoms: N_8  and  C_4 
REMARK    4  A    between atoms: C_7  and  C_5 
REMARK    5  A    between atoms: C_18  and  N_8 
REMARK    6  A    between atoms: C_17  and  C_18 
ROOT
ATOM      1  C   UNL d   1      52.162  32.750  53.123  0.00  0.00     0.212 A 
ATOM      2  N   UNL d   1      51.512  33.005  52.688  0.00  0.00    -0.205 NA
ATOM      3  C   UNL d   1      52.481  33.403  53.516  0.00  0.00     0.213 A 
ATOM      4  C   UNL d   1      51.427  33.816  52.811  0.00  0.00     0.208 A 
ATOM      5  O   UNL d   1      52.023  34.061  53.319  0.00  0.00    -0.267 OA
ENDROOT
BRANCH   1   6
ATOM      6  S   UNL d   1      52.388  31.957  53.113  0.00  0.00     0.230 S 
ATOM      7  O   UNL d   1      52.919  31.681  52.548  0.00  0.00    -0.215 OA
ATOM      8  O   UNL d   1      52.078  31.431  53.678  0.00  0.00    -0.215 OA
BRANCH   6   9
ATOM      9  C   UNL d   1      52.609  31.164  53.110  0.00  0.00     0.090 A 
ATOM     10  C   UNL d   1      53.386  30.947  52.921  0.00  0.00     0.011 A 
ATOM     11  C   UNL d   1      53.604  30.149  52.918  0.00  0.00     0.001 A 
ATOM     12  C   UNL d   1      53.043  29.567  53.107  0.00  0.00     0.000 A 
ATOM     13  C   UNL d   1      52.267  29.782  53.296  0.00  0.00     0.001 A 
ATOM     14  C   UNL d   1      52.054  30.586  53.297  0.00  0.00     0.011 A 
ENDBRANCH   6   9
ENDBRANCH   1   6
BRANCH   3  15
ATOM     15  N   UNL d   1      53.139  33.401  54.015  0.00  0.00    -0.219 NA
BRANCH  15  16
ATOM     16  C   UNL d   1      53.465  34.107  54.278  0.00  0.00     0.103 C 
BRANCH  16  17
ATOM     17  C   UNL d   1      54.166  34.087  54.711  0.00  0.00     0.038 A 
ATOM     18  C   UNL d   1      54.144  34.067  55.538  0.00  0.00     0.101 A 
ATOM     19  N   UNL d   1      54.847  34.047  55.966  0.00  0.00    -0.242 NA
ATOM     20  C   UNL d   1      55.564  34.046  55.566  0.00  0.00     0.099 A 
ATOM     21  C   UNL d   1      55.588  34.066  54.747  0.00  0.00     0.021 A 
ATOM     22  C   UNL d   1      54.883  34.086  54.315  0.00  0.00     0.005 A 
ENDBRANCH  16  17
ENDBRANCH  15  16
ENDBRANCH   3  15
BRANCH   4  23
ATOM     23  C   UNL d   1      50.781  34.070  52.378  0.00  0.00     0.141 A 
ATOM     24  O   UNL d   1      50.448  34.084  51.627  0.00  0.00    -0.302 OA
ATOM     25  C   UNL d   1      49.727  34.483  51.672  0.00  0.00     0.123 A 
ATOM     26  C   UNL d   1      49.619  34.715  52.458  0.00  0.00     0.029 A 
ATOM     27  C   UNL d   1      50.268  34.460  52.892  0.00  0.00     0.030 A 
ENDBRANCH   4  23
TORSDOF 6
ENDMDL
MODEL 6
REMARK VINA RESULT:      -7.5      1.310      4.364
REMARK  6 active torsions:
REMARK  status: ('A' for Active; 'I' for Inactive)
REMARK    1  A    between atoms: S_3  and  C_1 
REMARK    2  A    between atoms: C_11  and  S_3 
REMARK    3  A    between atoms: N_8  and  C_4 
REMARK    4  A    between atoms: C_7  and  C_5 
REMARK    5  A    between atoms: C_18  and  N_8 
REMARK    6  A    between atoms: C_17  and  C_18 
ROOT
ATOM      1  C   UNL d   1      53.452  32.543  53.711  0.00  0.00     0.212 A 
ATOM      2  N   UNL d   1      54.135  32.726  54.132  0.00  0.00    -0.205 NA
ATOM      3  C   UNL d   1      53.046  33.247  53.562  0.00  0.00     0.213 A 
ATOM      4  C   UNL d   1      54.153  33.543  54.244  0.00  0.00     0.208 A 
ATOM      5  O   UNL d   1      53.483  33.862  53.893  0.00  0.00    -0.267 OA
ENDROOT
BRANCH   1   6
ATOM      6  S   UNL d   1      53.279  31.762  53.512  0.00  0.00     0.230 S 
ATOM      7  O   UNL d   1      53.481  31.464  52.772  0.00  0.00    -0.215 OA
ATOM      8  O   UNL d   1      52.897  31.270  54.063  0.00  0.00    -0.215 OA
BRANCH   6   9
ATOM      9  C   UNL d   1      53.102  30.980  53.322  0.00  0.00     0.090 A 
ATOM     10  C   UNL d   1      52.855  30.782  52.556  0.00  0.00     0.011 A 
ATOM     11  C   UNL d   1      52.679  29.995  52.369  0.00  0.00     0.001 A 
ATOM     12  C   UNL d   1      52.749  29.406  52.949  0.00  0.00     0.000 A 
ATOM     13  C   UNL d   1      52.995  29.604  53.715  0.00  0.00     0.001 A 
ATOM     14  C   UNL d   1      53.171  30.395  53.897  0.00  0.00     0.011 A 
ENDBRANCH   6   9
ENDBRANCH   1   6
BRANCH   3  15
ATOM     15  N   UNL d   1      52.331  33.322  53.154  0.00  0.00    -0.219 NA
BRANCH  15  16
ATOM     16  C   UNL d   1      52.033  34.065  52.970  0.00  0.00     0.103 C 
BRANCH  16  17
ATOM     17  C   UNL d   1      51.280  34.122  52.641  0.00  0.00     0.038 A 
ATOM     18  C   UNL d   1      50.615  34.180  53.131  0.00  0.00     0.101 A 
ATOM     19  N   UNL d   1      49.864  34.238  52.798  0.00  0.00    -0.242 NA
ATOM     20  C   UNL d   1      49.784  34.237  51.981  0.00  0.00     0.099 A 
ATOM     21  C   UNL d   1      50.441  34.180  51.494  0.00  0.00     0.021 A 
ATOM     22  C   UNL d   1      51.196  34.122  51.826  0.00  0.00     0.005 A 
ENDBRANCH  16  17
ENDBRANCH  15  16
ENDBRANCH   3  15
BRANCH   4  23
ATOM     23  C   UNL d   1      54.832  33.724  54.662  0.00  0.00     0.141 A 
ATOM     24  O   UNL d   1      55.649  33.788  54.609  0.00  0.00    -0.302 OA
ATOM     25  C   UNL d   1      55.939  34.021  55.344  0.00  0.00     0.123 A 
ATOM     26  C   UNL d   1      55.293  34.100  55.854  0.00  0.00     0.029 A 
ATOM     27  C   UNL d   1      54.611  33.918  55.433  0.00  0.00     0.030 A 
ENDBRANCH   4  23
TORSDOF 6
ENDMDL
MODEL 7
REMARK VINA RESULT:      -6.7      1.432      3.975
REMARK  6 active torsions:
REMARK  status: ('A' for Active; 'I' for Inactive)
REMARK    1  A    between atoms: S_3  and  C_1 
REMARK    2  A    between atoms: C_11  and  S_3 
REMARK    3  A    between atoms: N_8  and  C_4 
REMARK    4  A    between atoms: C_7  and  C_5 
REMARK    5  A    between atoms: C_18  and  N_8 
REMARK    6  A    between atoms: C_17  and  C_18 
ROOT
ATOM      1  C   UNL d   1      52.549  33.193  53.481  0.00  0.00     0.212 A 
ATOM      2  N   UNL d   1      52.959  32.483  53.558  0.00  0.00    -0.205 NA
ATOM      3  C   UNL d   1      51.896  33.060  52.992  0.00  0.00     0.213 A 
ATOM      4  C   UNL d   1      52.560  31.911  53.118  0.00  0.00     0.208 A 
ATOM      5  O   UNL d   1      51.907  32.266  52.770  0.00  0.00    -0.267 OA
ENDROOT
BRANCH   1   6
ATOM      6  S   UNL d   1      52.815  33.874  53.861  0.00  0.00     0.230 S 
ATOM      7  O   UNL d   1      53.285  34.420  53.462  0.00  0.00    -0.215 OA
ATOM      8  O   UNL d   1      52.608  34.012  54.655  0.00  0.00    -0.215 OA
BRANCH   6   9
ATOM      9  C   UNL d   1      53.077  34.552  54.249  0.00  0.00     0.090 A 
ATOM     10  C   UNL d   1      53.099  35.279  53.852  0.00  0.00     0.011 A 
ATOM     11  C   UNL d   1      53.362  35.957  54.244  0.00  0.00     0.001 A 
ATOM     12  C   UNL d   1      53.604  35.909  55.037  0.00  0.00     0.000 A 
ATOM     13  C   UNL d   1      53.582  35.183  55.435  0.00  0.00     0.001 A 
ATOM     14  C   UNL d   1      53.317  34.505  55.035  0.00  0.00     0.011 A 
ENDBRANCH   6   9
ENDBRANCH   1   6
BRANCH   3  15
ATOM     15  N   UNL d   1      51.333  33.621  52.766  0.00  0.00    -0.219 NA
BRANCH  15  16
ATOM     16  C   UNL d   1      50.604  33.383  52.471  0.00  0.00     0.103 C 
BRANCH  16  17
ATOM     17  C   UNL d   1      50.052  33.958  52.261  0.00  0.00     0.038 A 
ATOM     18  C   UNL d   1      49.839  34.061  51.468  0.00  0.00     0.101 A 
ATOM     19  N   UNL d   1      49.286  34.637  51.264  0.00  0.00    -0.242 NA
ATOM     20  C   UNL d   1      48.953  35.103  51.851  0.00  0.00     0.099 A 
ATOM     21  C   UNL d   1      49.162  35.002  52.638  0.00  0.00     0.021 A 
ATOM     22  C   UNL d   1      49.717  34.425  52.845  0.00  0.00     0.005 A 
ENDBRANCH  16  17
ENDBRANCH  15  16
ENDBRANCH   3  15
BRANCH   4  23
ATOM     23  C   UNL d   1      52.968  31.206  53.194  0.00  0.00     0.141 A 
ATOM     24  O   UNL d   1      53.690  30.875  53.403  0.00  0.00    -0.302 OA
ATOM     25  C   UNL d   1      53.632  30.056  53.320  0.00  0.00     0.123 A 
ATOM     26  C   UNL d   1      52.867  29.885  53.058  0.00  0.00     0.029 A 
ATOM     27  C   UNL d   1      52.458  30.594  52.980  0.00  0.00     0.030 A 
ENDBRANCH   4  23
TORSDOF 6
ENDMDL
