MODEL 1
REMARK VINA RESULT:      -2.7      0.000      0.000
REMARK  6 active torsions:
REMARK  status: ('A' for Active; 'I' for Inactive)
REMARK    1  A    between atoms: N_2  and  S_1 
REMARK    2  A    between atoms: C_6  and  S_1 
REMARK    3  A    between atoms: C_3  and  N_2 
REMARK       I    between atoms: C_7  and  N_13 
REMARK    4  A    between atoms: C_10  and  C_7 
REMARK    5  A    between atoms: C_12  and  C_10 
REMARK    6  A    between atoms: C_11  and  C_12 
ROOT
ATOM      1  C   UNL d   1      33.055  19.129 -23.923  0.00  0.00     0.105 A 
ATOM      2  C   UNL d   1      33.157  22.197 -22.516  0.00  0.00     0.280 C 
ATOM      3  N   UNL d   1      33.237  21.932 -23.294  0.00  0.00    -0.208 NA
ATOM      4  O   UNL d   1      33.208  22.997 -22.332  0.00  0.00    -0.265 OA
ATOM      5  C   UNL d   1      33.188  19.669 -24.524  0.00  0.00     0.015 A 
ATOM      6  C   UNL d   1      32.973  19.368 -23.152  0.00  0.00     0.015 A 
ATOM      7  C   UNL d   1      33.160  20.733 -23.569  0.00  0.00     0.085 A 
ATOM      8  C   UNL d   1      33.241  20.480 -24.347  0.00  0.00     0.020 A 
ATOM      9  C   UNL d   1      33.026  20.177 -22.972  0.00  0.00     0.020 A 
ENDROOT
BRANCH   1  10
ATOM     10  S   UNL d   1      33.001  18.294 -24.115  0.00  0.00     0.285 S 
ATOM     11  O   UNL d   1      32.992  18.101 -23.316  0.00  0.00    -0.198 OA
ATOM     12  O   UNL d   1      33.011  18.500 -24.934  0.00  0.00    -0.198 OA
BRANCH  10  13
ATOM     13  N   UNL d   1      32.949  17.479 -24.324  0.00  0.00    -0.158 NA
BRANCH  13  14
ATOM     14  C   UNL d   1      32.322  17.026 -24.050  0.00  0.00     0.094 A 
ATOM     15  C   UNL d   1      31.583  17.100 -24.396  0.00  0.00     0.018 A 
ATOM     16  C   UNL d   1      30.964  16.640 -24.110  0.00  0.00     0.002 A 
ATOM     17  C   UNL d   1      31.465  17.650 -25.041  0.00  0.00     0.002 C 
ATOM     18  C   UNL d   1      31.085  16.128 -23.505  0.00  0.00     0.000 A 
ATOM     19  C   UNL d   1      31.822  16.039 -23.145  0.00  0.00     0.002 A 
ATOM     20  C   UNL d   1      30.430  15.665 -23.231  0.00  0.00     0.000 C 
ATOM     21  C   UNL d   1      32.443  16.488 -23.416  0.00  0.00     0.018 A 
ATOM     22  C   UNL d   1      33.177  16.398 -23.056  0.00  0.00     0.002 C 
ENDBRANCH  13  14
ENDBRANCH  10  13
ENDBRANCH   1  10
BRANCH   2  23
ATOM     23  C   UNL d   1      33.023  21.630 -21.921  0.00  0.00     0.069 C 
BRANCH  23  24
ATOM     24  C   UNL d   1      33.095  21.864 -21.117  0.00  0.00     0.075 C 
BRANCH  24  25
ATOM     25  C   UNL d   1      32.655  21.478 -20.538  0.00  0.00     0.211 C 
ATOM     26  O   UNL d   1      33.027  21.076 -19.901  0.00  0.00    -0.644 OA
ATOM     27  O   UNL d   1      31.826  21.476 -20.568  0.00  0.00    -0.644 OA
ENDBRANCH  24  25
ENDBRANCH  23  24
ENDBRANCH   2  23
TORSDOF 6
ENDMDL
MODEL 2
REMARK VINA RESULT:      -1.8      0.495      1.229
REMARK  6 active torsions:
REMARK  status: ('A' for Active; 'I' for Inactive)
REMARK    1  A    between atoms: N_2  and  S_1 
REMARK    2  A    between atoms: C_6  and  S_1 
REMARK    3  A    between atoms: C_3  and  N_2 
REMARK       I    between atoms: C_7  and  N_13 
REMARK    4  A    between atoms: C_10  and  C_7 
REMARK    5  A    between atoms: C_12  and  C_10 
REMARK    6  A    between atoms: C_11  and  C_12 
ROOT
ATOM      1  C   UNL d   1      33.208  19.484 -23.573  0.00  0.00     0.105 A 
ATOM      2  C   UNL d   1      33.184  22.513 -22.081  0.00  0.00     0.280 C 
ATOM      3  N   UNL d   1      33.213  22.275 -22.871  0.00  0.00    -0.208 NA
ATOM      4  O   UNL d   1      33.185  23.309 -21.876  0.00  0.00    -0.265 OA
ATOM      5  C   UNL d   1      33.238  20.048 -24.166  0.00  0.00     0.015 A 
ATOM      6  C   UNL d   1      33.179  19.695 -22.790  0.00  0.00     0.015 A 
ATOM      7  C   UNL d   1      33.211  21.081 -23.178  0.00  0.00     0.085 A 
ATOM      8  C   UNL d   1      33.239  20.855 -23.968  0.00  0.00     0.020 A 
ATOM      9  C   UNL d   1      33.181  20.501 -22.589  0.00  0.00     0.020 A 
ENDROOT
BRANCH   1  10
ATOM     10  S   UNL d   1      33.206  18.652 -23.787  0.00  0.00     0.285 S 
ATOM     11  O   UNL d   1      33.237  18.847 -24.584  0.00  0.00    -0.198 OA
ATOM     12  O   UNL d   1      33.175  18.459 -22.965  0.00  0.00    -0.198 OA
BRANCH  10  13
ATOM     13  N   UNL d   1      33.204  17.830 -23.976  0.00  0.00    -0.158 NA
BRANCH  13  14
ATOM     14  C   UNL d   1      32.530  17.382 -23.844  0.00  0.00     0.094 A 
ATOM     15  C   UNL d   1      32.476  16.913 -23.173  0.00  0.00     0.018 A 
ATOM     16  C   UNL d   1      31.794  16.470 -23.054  0.00  0.00     0.002 A 
ATOM     17  C   UNL d   1      33.122  16.893 -22.612  0.00  0.00     0.002 C 
ATOM     18  C   UNL d   1      31.194  16.496 -23.586  0.00  0.00     0.000 A 
ATOM     19  C   UNL d   1      31.231  16.961 -24.266  0.00  0.00     0.002 A 
ATOM     20  C   UNL d   1      30.503  16.028 -23.439  0.00  0.00     0.000 C 
ATOM     21  C   UNL d   1      31.899  17.406 -24.398  0.00  0.00     0.018 A 
ATOM     22  C   UNL d   1      31.933  17.868 -25.077  0.00  0.00     0.002 C 
ENDBRANCH  13  14
ENDBRANCH  10  13
ENDBRANCH   1  10
BRANCH   2  23
ATOM     23  C   UNL d   1      33.154  21.922 -21.495  0.00  0.00     0.069 C 
BRANCH  23  24
ATOM     24  C   UNL d   1      33.140  22.155 -20.688  0.00  0.00     0.075 C 
BRANCH  24  25
ATOM     25  C   UNL d   1      32.688  21.728 -20.147  0.00  0.00     0.211 C 
ATOM     26  O   UNL d   1      31.849  21.771 -20.148  0.00  0.00    -0.644 OA
ATOM     27  O   UNL d   1      33.052  21.241 -19.584  0.00  0.00    -0.644 OA
ENDBRANCH  24  25
ENDBRANCH  23  24
ENDBRANCH   2  23
TORSDOF 6
ENDMDL
MODEL 3
REMARK VINA RESULT:      -1.5      2.220      5.040
REMARK  6 active torsions:
REMARK  status: ('A' for Active; 'I' for Inactive)
REMARK    1  A    between atoms: N_2  and  S_1 
REMARK    2  A    between atoms: C_6  and  S_1 
REMARK    3  A    between atoms: C_3  and  N_2 
REMARK       I    between atoms: C_7  and  N_13 
REMARK    4  A    between atoms: C_10  and  C_7 
REMARK    5  A    between atoms: C_12  and  C_10 
REMARK    6  A    between atoms: C_11  and  C_12 
ROOT
ATOM      1  C   UNL d   1      31.970  17.520 -24.130  0.00  0.00     0.105 A 
ATOM      2  C   UNL d   1      29.060  15.951 -24.817  0.00  0.00     0.280 C 
ATOM      3  N   UNL d   1      29.839  15.827 -25.065  0.00  0.00    -0.208 NA
ATOM      4  O   UNL d   1      28.449  15.469 -25.082  0.00  0.00    -0.265 OA
ATOM      5  C   UNL d   1      32.139  16.909 -24.648  0.00  0.00     0.015 A 
ATOM      6  C   UNL d   1      31.213  17.660 -23.874  0.00  0.00     0.015 A 
ATOM      7  C   UNL d   1      30.756  16.549 -24.668  0.00  0.00     0.085 A 
ATOM      8  C   UNL d   1      31.527  16.417 -24.920  0.00  0.00     0.020 A 
ATOM      9  C   UNL d   1      30.599  17.170 -24.145  0.00  0.00     0.020 A 
ENDROOT
BRANCH   1  10
ATOM     10  S   UNL d   1      32.609  18.023 -23.854  0.00  0.00     0.285 S 
ATOM     11  O   UNL d   1      32.432  18.581 -24.431  0.00  0.00    -0.198 OA
ATOM     12  O   UNL d   1      32.785  17.445 -23.264  0.00  0.00    -0.198 OA
BRANCH  10  13
ATOM     13  N   UNL d   1      33.241  18.503 -23.568  0.00  0.00    -0.158 NA
BRANCH  13  14
ATOM     14  C   UNL d   1      33.080  19.141 -23.078  0.00  0.00     0.094 A 
ATOM     15  C   UNL d   1      33.077  19.042 -22.265  0.00  0.00     0.018 A 
ATOM     16  C   UNL d   1      32.914  19.691 -21.787  0.00  0.00     0.002 A 
ATOM     17  C   UNL d   1      33.240  18.273 -21.927  0.00  0.00     0.002 C 
ATOM     18  C   UNL d   1      32.762  20.408 -22.114  0.00  0.00     0.000 A 
ATOM     19  C   UNL d   1      32.762  20.527 -22.930  0.00  0.00     0.002 A 
ATOM     20  C   UNL d   1      32.598  21.060 -21.598  0.00  0.00     0.000 C 
ATOM     21  C   UNL d   1      32.921  19.894 -23.416  0.00  0.00     0.018 A 
ATOM     22  C   UNL d   1      32.920  20.016 -24.229  0.00  0.00     0.002 C 
ENDBRANCH  13  14
ENDBRANCH  10  13
ENDBRANCH   1  10
BRANCH   2  23
ATOM     23  C   UNL d   1      28.912  16.579 -24.291  0.00  0.00     0.069 C 
BRANCH  23  24
ATOM     24  C   UNL d   1      28.191  16.581 -23.859  0.00  0.00     0.075 C 
BRANCH  24  25
ATOM     25  C   UNL d   1      28.015  17.213 -23.362  0.00  0.00     0.211 C 
ATOM     26  O   UNL d   1      27.901  17.989 -23.663  0.00  0.00    -0.644 OA
ATOM     27  O   UNL d   1      27.945  17.100 -22.543  0.00  0.00    -0.644 OA
ENDBRANCH  24  25
ENDBRANCH  23  24
ENDBRANCH   2  23
TORSDOF 6
ENDMDL
MODEL 4
REMARK VINA RESULT:      -0.5      1.353      2.122
REMARK  6 active torsions:
REMARK  status: ('A' for Active; 'I' for Inactive)
REMARK    1  A    between atoms: N_2  and  S_1 
REMARK    2  A    between atoms: C_6  and  S_1 
REMARK    3  A    between atoms: C_3  and  N_2 
REMARK       I    between atoms: C_7  and  N_13 
REMARK    4  A    between atoms: C_10  and  C_7 
REMARK    5  A    between atoms: C_12  and  C_10 
REMARK    6  A    between atoms: C_11  and  C_12 
ROOT
ATOM      1  C   UNL d   1      31.623  18.069 -24.415  0.00  0.00     0.105 A 
ATOM      2  C   UNL d   1      32.928  21.011 -23.392  0.00  0.00     0.280 C 
ATOM      3  N   UNL d   1      32.716  20.717 -24.134  0.00  0.00    -0.208 NA
ATOM      4  O   UNL d   1      33.240  21.766 -23.307  0.00  0.00    -0.265 OA
ATOM      5  C   UNL d   1      31.725  18.536 -25.080  0.00  0.00     0.015 A 
ATOM      6  C   UNL d   1      31.824  18.337 -23.677  0.00  0.00     0.015 A 
ATOM      7  C   UNL d   1      32.248  19.583 -24.261  0.00  0.00     0.085 A 
ATOM      8  C   UNL d   1      32.040  19.301 -25.004  0.00  0.00     0.020 A 
ATOM      9  C   UNL d   1      32.140  19.102 -23.597  0.00  0.00     0.020 A 
ENDROOT
BRANCH   1  10
ATOM     10  S   UNL d   1      31.297  17.279 -24.503  0.00  0.00     0.285 S 
ATOM     11  O   UNL d   1      30.773  17.550 -25.076  0.00  0.00    -0.198 OA
ATOM     12  O   UNL d   1      31.838  17.009 -23.914  0.00  0.00    -0.198 OA
BRANCH  10  13
ATOM     13  N   UNL d   1      30.990  16.497 -24.575  0.00  0.00    -0.158 NA
BRANCH  13  14
ATOM     14  C   UNL d   1      30.362  16.260 -24.104  0.00  0.00     0.094 A 
ATOM     15  C   UNL d   1      30.494  15.750 -23.475  0.00  0.00     0.018 A 
ATOM     16  C   UNL d   1      29.855  15.521 -23.011  0.00  0.00     0.002 A 
ATOM     17  C   UNL d   1      31.284  15.468 -23.311  0.00  0.00     0.002 C 
ATOM     18  C   UNL d   1      29.117  15.791 -23.173  0.00  0.00     0.000 A 
ATOM     19  C   UNL d   1      28.966  16.304 -23.801  0.00  0.00     0.002 A 
ATOM     20  C   UNL d   1      28.477  15.539 -22.679  0.00  0.00     0.000 C 
ATOM     21  C   UNL d   1      29.588  16.540 -24.269  0.00  0.00     0.018 A 
ATOM     22  C   UNL d   1      29.434  17.051 -24.895  0.00  0.00     0.002 C 
ENDBRANCH  13  14
ENDBRANCH  10  13
ENDBRANCH   1  10
BRANCH   2  23
ATOM     23  C   UNL d   1      32.816  20.518 -22.729  0.00  0.00     0.069 C 
BRANCH  23  24
ATOM     24  C   UNL d   1      33.152  20.749 -21.994  0.00  0.00     0.075 C 
BRANCH  24  25
ATOM     25  C   UNL d   1      32.712  20.674 -21.302  0.00  0.00     0.211 C 
ATOM     26  O   UNL d   1      31.915  20.937 -21.259  0.00  0.00    -0.644 OA
ATOM     27  O   UNL d   1      33.045  20.332 -20.624  0.00  0.00    -0.644 OA
ENDBRANCH  24  25
ENDBRANCH  23  24
ENDBRANCH   2  23
TORSDOF 6
ENDMDL
