MODEL 1
REMARK VINA RESULT:      37.6      0.000      0.000
REMARK  4 active torsions:
REMARK  status: ('A' for Active; 'I' for Inactive)
REMARK       I    between atoms: C_2  and  N_1 
REMARK       I    between atoms: N_8  and  C_2 
REMARK    1  A    between atoms: C_14  and  N_8 
REMARK    2  A    between atoms: C_15  and  N_8 
REMARK    3  A    between atoms: C_17  and  C_14 
REMARK    4  A    between atoms: C_16  and  C_15 
ROOT
ATOM      1  N   UNL d   1      14.067  13.396  -2.422  0.00  0.00    -0.259 N 
ATOM      2  C   UNL d   1      14.232  14.198  -2.515  0.00  0.00     0.339 C 
ATOM      3  S   UNL d   1      13.734  11.783  -2.241  0.00  0.00    -0.084 SA
ATOM      4  C   UNL d   1      14.316  12.992  -1.748  0.00  0.00     0.074 A 
ATOM      5  C   UNL d   1      13.647  12.993  -3.014  0.00  0.00     0.074 A 
ATOM      6  C   UNL d   1      14.155  12.190  -1.649  0.00  0.00     0.046 A 
ATOM      7  C   UNL d   1      13.484  12.186  -2.915  0.00  0.00     0.046 A 
ATOM      8  N   UNL d   1      13.983  14.603  -3.189  0.00  0.00    -0.258 N 
ATOM      9  O   UNL d   1      14.652  14.606  -1.926  0.00  0.00    -0.245 OA
ATOM     10  C   UNL d   1      14.736  13.397  -1.158  0.00  0.00     0.018 A 
ATOM     11  C   UNL d   1      13.397  13.386  -3.684  0.00  0.00     0.018 A 
ATOM     12  C   UNL d   1      13.067  11.780  -3.500  0.00  0.00     0.008 A 
ATOM     13  C   UNL d   1      14.398  11.779  -0.982  0.00  0.00     0.008 A 
ATOM     14  C   UNL d   1      12.977  12.981  -4.274  0.00  0.00     0.002 A 
ATOM     15  C   UNL d   1      14.981  12.989  -0.490  0.00  0.00     0.002 A 
ATOM     16  C   UNL d   1      14.819  12.195  -0.396  0.00  0.00     0.001 A 
ATOM     17  C   UNL d   1      12.818  12.183  -4.175  0.00  0.00     0.001 A 
ENDROOT
BRANCH   8  18
ATOM     18  C   UNL d   1      13.562  14.197  -3.781  0.00  0.00     0.085 C 
BRANCH  18  19
ATOM     19  C   UNL d   1      13.506  14.529  -4.521  0.00  0.00     0.019 C 
ATOM     20  C   UNL d   1      12.798  14.895  -4.736  0.00  0.00     0.002 C 
ENDBRANCH  18  19
ENDBRANCH   8  18
BRANCH   8  21
ATOM     21  C   UNL d   1      14.151  15.404  -3.275  0.00  0.00     0.085 C 
BRANCH  21  22
ATOM     22  C   UNL d   1      14.738  15.762  -2.806  0.00  0.00     0.019 C 
ATOM     23  C   UNL d   1      14.864  16.565  -2.841  0.00  0.00     0.002 C 
ENDBRANCH  21  22
ENDBRANCH   8  21
TORSDOF 4
ENDMDL
