MODEL 1
REMARK VINA RESULT:     169.0      0.000      0.000
REMARK  6 active torsions:
REMARK  status: ('A' for Active; 'I' for Inactive)
REMARK    1  A    between atoms: N_3  and  S_1 
REMARK    2  A    between atoms: C_10  and  S_1 
REMARK    3  A    between atoms: N_2  and  C_12 
REMARK    4  A    between atoms: C_4  and  N_3 
REMARK       I    between atoms: C_7  and  N_11 
REMARK    5  A    between atoms: C_15  and  C_7 
REMARK    6  A    between atoms: N_11  and  C_30 
ROOT
ATOM      1  C   UNL d   1     -55.386-101.842 -41.516  0.00  0.00     0.106 A 
ATOM      2  C   UNL d   1     -55.015-102.055 -42.216  0.00  0.00     0.015 A 
ATOM      3  C   UNL d   1     -56.060-101.364 -41.516  0.00  0.00     0.015 A 
ATOM      4  C   UNL d   1     -55.993-101.311 -42.950  0.00  0.00     0.085 A 
ATOM      5  C   UNL d   1     -56.364-101.098 -42.236  0.00  0.00     0.020 A 
ATOM      6  C   UNL d   1     -55.319-101.789 -42.936  0.00  0.00     0.020 A 
ENDROOT
BRANCH   4   7
ATOM      7  N   UNL d   1     -56.303-101.040 -43.674  0.00  0.00    -0.208 NA
ATOM      8  C   UNL d   1     -56.553-100.256 -43.755  0.00  0.00     0.279 C 
ATOM      9  O   UNL d   1     -56.492 -99.743 -43.113  0.00  0.00    -0.265 OA
BRANCH   8  10
ATOM     10  C   UNL d   1     -56.860 -99.993 -44.474  0.00  0.00     0.058 A 
ATOM     11  C   UNL d   1     -57.073 -99.209 -44.566  0.00  0.00     0.006 A 
ATOM     12  C   UNL d   1     -57.379 -98.944 -45.282  0.00  0.00     0.018 A 
ATOM     13  C   UNL d   1     -57.478 -99.450 -45.915  0.00  0.00     0.070 A 
ATOM     14  C   UNL d   1     -57.261-100.257 -45.829  0.00  0.00     0.018 A 
ATOM     15  C   UNL d   1     -56.954-100.524 -45.113  0.00  0.00     0.006 A 
BRANCH  13  16
ATOM     16  N   UNL d   1     -57.786 -99.179 -46.635  0.00  0.00    -0.242 N 
ATOM     17  C   UNL d   1     -57.319 -99.012 -47.302  0.00  0.00     0.267 A 
ATOM     18  C   UNL d   1     -57.825 -98.755 -47.911  0.00  0.00     0.066 A 
ATOM     19  O   UNL d   1     -56.475 -99.087 -47.357  0.00  0.00    -0.267 OA
ATOM     20  C   UNL d   1     -58.590 -98.768 -47.614  0.00  0.00     0.066 A 
ATOM     21  C   UNL d   1     -58.563 -99.029 -46.829  0.00  0.00     0.267 A 
ATOM     22  O   UNL d   1     -59.216 -99.120 -46.331  0.00  0.00    -0.267 OA
ENDBRANCH  13  16
ENDBRANCH   8  10
ENDBRANCH   4   7
BRANCH   1  23
ATOM     23  S   UNL d   1     -55.082-102.108 -40.796  0.00  0.00     0.300 S 
ATOM     24  O   UNL d   1     -55.301-102.880 -40.973  0.00  0.00    -0.198 OA
ATOM     25  O   UNL d   1     -54.852-101.334 -40.595  0.00  0.00    -0.198 OA
BRANCH  23  26
ATOM     26  N   UNL d   1     -54.776-102.372 -40.072  0.00  0.00     0.034 NA
BRANCH  26  27
ATOM     27  C   UNL d   1     -54.945-101.961 -39.377  0.00  0.00     0.760 A 
ATOM     28  N   UNL d   1     -55.092-102.368 -38.671  0.00  0.00    -0.059 NA
ATOM     29  C   UNL d   1     -55.261-101.966 -37.976  0.00  0.00     0.101 A 
ATOM     30  C   UNL d   1     -55.407-102.373 -37.279  0.00  0.00     0.021 C 
ATOM     31  C   UNL d   1     -55.285-101.127 -37.979  0.00  0.00     0.040 A 
ATOM     32  C   UNL d   1     -55.140-100.711 -38.677  0.00  0.00     0.101 A 
ATOM     33  N   UNL d   1     -54.969-101.123 -39.380  0.00  0.00    -0.059 NA
ATOM     34  C   UNL d   1     -55.164 -99.884 -38.680  0.00  0.00     0.021 C 
ENDBRANCH  26  27
ENDBRANCH  23  26
ENDBRANCH   1  23
TORSDOF 6
ENDMDL
