MODEL 1
REMARK VINA RESULT:      70.3      0.000      0.000
REMARK  3 active torsions:
REMARK  status: ('A' for Active; 'I' for Inactive)
REMARK       I    between atoms: N_2  and  C_1 
REMARK    1  A    between atoms: C_9  and  C_1 
REMARK    2  A    between atoms: C_6  and  N_5 
REMARK    3  A    between atoms: N_8  and  C_7 
ROOT
ATOM      1  C   UNL d   1     -51.858  25.928  33.498  0.00  0.00     0.265 C 
ATOM      2  N   UNL d   1     -51.285  26.465  33.748  0.00  0.00    -0.269 N 
ATOM      3  N   UNL d   1     -50.137  27.534  34.248  0.00  0.00    -0.285 N 
ATOM      4  C   UNL d   1     -50.523  26.190  33.937  0.00  0.00     0.102 A 
ATOM      5  C   UNL d   1     -51.465  27.265  33.810  0.00  0.00     0.102 A 
ATOM      6  C   UNL d   1     -49.947  26.730  34.189  0.00  0.00     0.101 A 
ATOM      7  C   UNL d   1     -50.899  27.808  34.059  0.00  0.00     0.101 A 
ATOM      8  O   UNL d   1     -52.622  26.192  33.306  0.00  0.00    -0.267 OA
ENDROOT
BRANCH   3   9
ATOM      9  C   UNL d   1     -49.562  28.073  34.500  0.00  0.00     0.170 A 
ATOM     10  N   UNL d   1     -49.208  27.981  35.235  0.00  0.00    -0.129 NA
ATOM     11  N   UNL d   1     -48.636  28.517  35.485  0.00  0.00    -0.129 NA
ATOM     12  C   UNL d   1     -48.411  29.154  34.999  0.00  0.00     0.170 A 
ATOM     13  C   UNL d   1     -48.773  29.238  34.261  0.00  0.00     0.042 A 
ATOM     14  C   UNL d   1     -49.345  28.702  34.011  0.00  0.00     0.042 A 
BRANCH  12  15
ATOM     15  N   UNL d   1     -47.838  29.690  35.249  0.00  0.00    -0.284 N 
ATOM     16  C   UNL d   1     -47.261  29.459  35.790  0.00  0.00     0.108 A 
ATOM     17  C   UNL d   1     -46.688  29.995  36.040  0.00  0.00     0.142 A 
ATOM     18  O   UNL d   1     -46.696  30.760  35.748  0.00  0.00    -0.300 OA
ATOM     19  C   UNL d   1     -47.267  30.996  35.211  0.00  0.00     0.142 A 
ATOM     20  C   UNL d   1     -47.848  30.467  34.952  0.00  0.00     0.108 A 
ENDBRANCH  12  15
ENDBRANCH   3   9
BRANCH   1  21
ATOM     21  C   UNL d   1     -51.682  25.121  33.434  0.00  0.00     0.057 A 
ATOM     22  C   UNL d   1     -52.288  24.557  33.401  0.00  0.00     0.005 A 
ATOM     23  C   UNL d   1     -52.110  23.760  33.338  0.00  0.00     0.000 A 
ATOM     24  C   UNL d   1     -52.721  23.208  33.307  0.00  0.00     0.000 C 
ATOM     25  C   UNL d   1     -51.318  23.528  33.307  0.00  0.00     0.000 A 
ATOM     26  C   UNL d   1     -50.706  24.085  33.338  0.00  0.00     0.000 A 
ATOM     27  C   UNL d   1     -50.896  24.877  33.401  0.00  0.00     0.005 A 
ENDBRANCH   1  21
TORSDOF 3
ENDMDL
