MODEL 1
REMARK VINA RESULT:      -7.1      0.000      0.000
REMARK  5 active torsions:
REMARK  status: ('A' for Active; 'I' for Inactive)
REMARK    1  A    between atoms: O_6  and  C_1 
REMARK    2  A    between atoms: C_2  and  C_4 
REMARK    3  A    between atoms: O_7  and  C_3 
REMARK    4  A    between atoms: C_8  and  O_6 
REMARK    5  A    between atoms: C_9  and  O_7 
ROOT
ATOM      1  C   UNL d   1     -48.541  13.290  22.957  0.00  0.00     0.126 A 
ATOM      2  C   UNL d   1     -48.726  14.093  22.934  0.00  0.00     0.126 A 
ATOM      3  C   UNL d   1     -47.146  13.616  22.922  0.00  0.00     0.067 A 
ATOM      4  C   UNL d   1     -47.752  13.050  22.951  0.00  0.00     0.033 A 
ATOM      5  C   UNL d   1     -48.120  14.659  22.906  0.00  0.00     0.027 A 
ATOM      6  C   UNL d   1     -47.335  14.416  22.900  0.00  0.00     0.008 A 
ENDROOT
BRANCH   1   7
ATOM      7  O   UNL d   1     -49.144  12.727  22.985  0.00  0.00    -0.271 OA
BRANCH   7   8
ATOM      8  C   UNL d   1     -48.959  11.924  22.986  0.00  0.00     0.300 C 
ATOM      9  O   UNL d   1     -48.797  11.529  22.262  0.00  0.00    -0.259 OA
ATOM     10  C   UNL d   1     -48.934  11.509  23.698  0.00  0.00     0.074 C 
ENDBRANCH   7   8
ENDBRANCH   1   7
BRANCH   2  11
ATOM     11  O   UNL d   1     -49.533  14.337  22.940  0.00  0.00    -0.271 OA
BRANCH  11  12
ATOM     12  C   UNL d   1     -49.722  15.136  22.914  0.00  0.00     0.300 C 
ATOM     13  O   UNL d   1     -49.706  15.542  22.195  0.00  0.00    -0.259 OA
ATOM     14  C   UNL d   1     -49.928  15.532  23.612  0.00  0.00     0.074 C 
ENDBRANCH  11  12
ENDBRANCH   2  11
BRANCH   3  15
ATOM     15  C   UNL d   1     -46.336  13.382  22.916  0.00  0.00     0.211 C 
ATOM     16  O   UNL d   1     -45.952  13.255  23.636  0.00  0.00    -0.644 OA
ATOM     17  O   UNL d   1     -45.934  13.281  22.191  0.00  0.00    -0.644 OA
ENDBRANCH   3  15
TORSDOF 5
ENDMDL
MODEL 2
REMARK VINA RESULT:      -7.0      0.948      3.319
REMARK  5 active torsions:
REMARK  status: ('A' for Active; 'I' for Inactive)
REMARK    1  A    between atoms: O_6  and  C_1 
REMARK    2  A    between atoms: C_2  and  C_4 
REMARK    3  A    between atoms: O_7  and  C_3 
REMARK    4  A    between atoms: C_8  and  O_6 
REMARK    5  A    between atoms: C_9  and  O_7 
ROOT
ATOM      1  C   UNL d   1     -48.592  13.956  22.950  0.00  0.00     0.126 A 
ATOM      2  C   UNL d   1     -47.869  13.578  22.837  0.00  0.00     0.126 A 
ATOM      3  C   UNL d   1     -49.274  12.754  22.569  0.00  0.00     0.067 A 
ATOM      4  C   UNL d   1     -49.295  13.546  22.816  0.00  0.00     0.033 A 
ATOM      5  C   UNL d   1     -47.847  12.786  22.590  0.00  0.00     0.027 A 
ATOM      6  C   UNL d   1     -48.550  12.381  22.458  0.00  0.00     0.008 A 
ENDROOT
BRANCH   1   7
ATOM      7  O   UNL d   1     -48.613  14.743  23.195  0.00  0.00    -0.271 OA
BRANCH   7   8
ATOM      8  C   UNL d   1     -49.256  15.220  22.999  0.00  0.00     0.300 C 
ATOM      9  O   UNL d   1     -49.342  15.510  22.215  0.00  0.00    -0.259 OA
ATOM     10  C   UNL d   1     -49.815  15.413  23.574  0.00  0.00     0.074 C 
ENDBRANCH   7   8
ENDBRANCH   1   7
BRANCH   2  11
ATOM     11  O   UNL d   1     -47.151  13.998  22.973  0.00  0.00    -0.271 OA
BRANCH  11  12
ATOM     12  C   UNL d   1     -46.437  13.593  23.009  0.00  0.00     0.300 C 
ATOM     13  O   UNL d   1     -46.223  13.190  23.698  0.00  0.00    -0.259 OA
ATOM     14  C   UNL d   1     -45.934  13.590  22.350  0.00  0.00     0.074 C 
ENDBRANCH  11  12
ENDBRANCH   2  11
BRANCH   3  15
ATOM     15  C   UNL d   1     -49.987  12.326  22.430  0.00  0.00     0.211 C 
ATOM     16  O   UNL d   1     -50.318  12.338  21.674  0.00  0.00    -0.644 OA
ATOM     17  O   UNL d   1     -50.346  11.898  23.050  0.00  0.00    -0.644 OA
ENDBRANCH   3  15
TORSDOF 5
ENDMDL
MODEL 3
REMARK VINA RESULT:      -6.7      0.795      2.475
REMARK  5 active torsions:
REMARK  status: ('A' for Active; 'I' for Inactive)
REMARK    1  A    between atoms: O_6  and  C_1 
REMARK    2  A    between atoms: C_2  and  C_4 
REMARK    3  A    between atoms: O_7  and  C_3 
REMARK    4  A    between atoms: C_8  and  O_6 
REMARK    5  A    between atoms: C_9  and  O_7 
ROOT
ATOM      1  C   UNL d   1     -48.403  13.623  22.739  0.00  0.00     0.126 A 
ATOM      2  C   UNL d   1     -48.631  12.868  22.978  0.00  0.00     0.126 A 
ATOM      3  C   UNL d   1     -47.034  13.284  22.991  0.00  0.00     0.067 A 
ATOM      4  C   UNL d   1     -47.606  13.833  22.745  0.00  0.00     0.033 A 
ATOM      5  C   UNL d   1     -48.059  12.319  23.225  0.00  0.00     0.027 A 
ATOM      6  C   UNL d   1     -47.265  12.532  23.229  0.00  0.00     0.008 A 
ENDROOT
BRANCH   1   7
ATOM      7  O   UNL d   1     -48.972  14.168  22.494  0.00  0.00    -0.271 OA
BRANCH   7   8
ATOM      8  C   UNL d   1     -48.905  14.960  22.710  0.00  0.00     0.300 C 
ATOM      9  O   UNL d   1     -49.117  15.205  23.485  0.00  0.00    -0.259 OA
ATOM     10  C   UNL d   1     -48.628  15.513  22.163  0.00  0.00     0.074 C 
ENDBRANCH   7   8
ENDBRANCH   1   7
BRANCH   2  11
ATOM     11  O   UNL d   1     -49.446  12.655  22.972  0.00  0.00    -0.271 OA
BRANCH  11  12
ATOM     12  C   UNL d   1     -49.666  11.863  23.004  0.00  0.00     0.300 C 
ATOM     13  O   UNL d   1     -49.544  11.373  22.351  0.00  0.00    -0.259 OA
ATOM     14  C   UNL d   1     -50.009  11.561  23.696  0.00  0.00     0.074 C 
ENDBRANCH  11  12
ENDBRANCH   2  11
BRANCH   3  15
ATOM     15  C   UNL d   1     -46.216  13.488  23.001  0.00  0.00     0.211 C 
ATOM     16  O   UNL d   1     -45.889  13.793  23.696  0.00  0.00    -0.644 OA
ATOM     17  O   UNL d   1     -45.749  13.381  22.317  0.00  0.00    -0.644 OA
ENDBRANCH   3  15
TORSDOF 5
ENDMDL
MODEL 4
REMARK VINA RESULT:      -5.2      8.214      9.617
REMARK  5 active torsions:
REMARK  status: ('A' for Active; 'I' for Inactive)
REMARK    1  A    between atoms: O_6  and  C_1 
REMARK    2  A    between atoms: C_2  and  C_4 
REMARK    3  A    between atoms: O_7  and  C_3 
REMARK    4  A    between atoms: C_8  and  O_6 
REMARK    5  A    between atoms: C_9  and  O_7 
ROOT
ATOM      1  C   UNL d   1     -39.950  14.251  18.482  0.00  0.00     0.126 A 
ATOM      2  C   UNL d   1     -40.202  14.682  19.138  0.00  0.00     0.126 A 
ATOM      3  C   UNL d   1     -40.612  15.186  17.621  0.00  0.00     0.067 A 
ATOM      4  C   UNL d   1     -40.154  14.502  17.723  0.00  0.00     0.033 A 
ATOM      5  C   UNL d   1     -40.660  15.366  19.036  0.00  0.00     0.027 A 
ATOM      6  C   UNL d   1     -40.861  15.613  18.278  0.00  0.00     0.008 A 
ENDROOT
BRANCH   1   7
ATOM      7  O   UNL d   1     -39.495  13.571  18.584  0.00  0.00    -0.271 OA
BRANCH   7   8
ATOM      8  C   UNL d   1     -39.048  13.276  17.959  0.00  0.00     0.300 C 
ATOM      9  O   UNL d   1     -39.404  12.778  17.384  0.00  0.00    -0.259 OA
ATOM     10  C   UNL d   1     -38.248  13.470  17.898  0.00  0.00     0.074 C 
ENDBRANCH   7   8
ENDBRANCH   1   7
BRANCH   2  11
ATOM     11  O   UNL d   1     -39.993  14.425  19.913  0.00  0.00    -0.271 OA
BRANCH  11  12
ATOM     12  C   UNL d   1     -40.411  14.699  20.565  0.00  0.00     0.300 C 
ATOM     13  O   UNL d   1     -41.161  14.396  20.734  0.00  0.00    -0.259 OA
ATOM     14  C   UNL d   1     -40.077  15.281  21.052  0.00  0.00     0.074 C 
ENDBRANCH  11  12
ENDBRANCH   2  11
BRANCH   3  15
ATOM     15  C   UNL d   1     -40.827  15.451  16.850  0.00  0.00     0.211 C 
ATOM     16  O   UNL d   1     -40.294  15.921  16.428  0.00  0.00    -0.644 OA
ATOM     17  O   UNL d   1     -41.565  15.239  16.524  0.00  0.00    -0.644 OA
ENDBRANCH   3  15
TORSDOF 5
ENDMDL
MODEL 5
REMARK VINA RESULT:      -4.9      0.875      3.067
REMARK  5 active torsions:
REMARK  status: ('A' for Active; 'I' for Inactive)
REMARK    1  A    between atoms: O_6  and  C_1 
REMARK    2  A    between atoms: C_2  and  C_4 
REMARK    3  A    between atoms: O_7  and  C_3 
REMARK    4  A    between atoms: C_8  and  O_6 
REMARK    5  A    between atoms: C_9  and  O_7 
ROOT
ATOM      1  C   UNL d   1     -47.682  13.303  22.957  0.00  0.00     0.126 A 
ATOM      2  C   UNL d   1     -48.315  12.786  23.053  0.00  0.00     0.126 A 
ATOM      3  C   UNL d   1     -48.601  14.383  22.750  0.00  0.00     0.067 A 
ATOM      4  C   UNL d   1     -47.822  14.102  22.805  0.00  0.00     0.033 A 
ATOM      5  C   UNL d   1     -49.094  13.067  22.998  0.00  0.00     0.027 A 
ATOM      6  C   UNL d   1     -49.231  13.863  22.847  0.00  0.00     0.008 A 
ENDROOT
BRANCH   1   7
ATOM      7  O   UNL d   1     -46.907  13.024  23.012  0.00  0.00    -0.271 OA
BRANCH   7   8
ATOM      8  C   UNL d   1     -46.275  13.552  22.992  0.00  0.00     0.300 C 
ATOM      9  O   UNL d   1     -46.085  14.007  23.672  0.00  0.00    -0.259 OA
ATOM     10  C   UNL d   1     -45.829  13.633  22.303  0.00  0.00     0.074 C 
ENDBRANCH   7   8
ENDBRANCH   1   7
BRANCH   2  11
ATOM     11  O   UNL d   1     -48.170  11.970  23.208  0.00  0.00    -0.271 OA
BRANCH  11  12
ATOM     12  C   UNL d   1     -48.761  11.414  23.077  0.00  0.00     0.300 C 
ATOM     13  O   UNL d   1     -48.848  11.069  22.332  0.00  0.00    -0.259 OA
ATOM     14  C   UNL d   1     -49.269  11.202  23.698  0.00  0.00     0.074 C 
ENDBRANCH  11  12
ENDBRANCH   2  11
BRANCH   3  15
ATOM     15  C   UNL d   1     -48.757  15.197  22.595  0.00  0.00     0.211 C 
ATOM     16  O   UNL d   1     -49.126  15.650  23.179  0.00  0.00    -0.644 OA
ATOM     17  O   UNL d   1     -48.539  15.534  21.862  0.00  0.00    -0.644 OA
ENDBRANCH   3  15
TORSDOF 5
ENDMDL
MODEL 6
REMARK VINA RESULT:      -4.6      8.996      9.873
REMARK  5 active torsions:
REMARK  status: ('A' for Active; 'I' for Inactive)
REMARK    1  A    between atoms: O_6  and  C_1 
REMARK    2  A    between atoms: C_2  and  C_4 
REMARK    3  A    between atoms: O_7  and  C_3 
REMARK    4  A    between atoms: C_8  and  O_6 
REMARK    5  A    between atoms: C_9  and  O_7 
ROOT
ATOM      1  C   UNL d   1     -39.660  14.003  18.238  0.00  0.00     0.126 A 
ATOM      2  C   UNL d   1     -40.157  14.603  17.968  0.00  0.00     0.126 A 
ATOM      3  C   UNL d   1     -39.741  14.539  19.565  0.00  0.00     0.067 A 
ATOM      4  C   UNL d   1     -39.451  13.970  19.035  0.00  0.00     0.033 A 
ATOM      5  C   UNL d   1     -40.446  15.172  18.498  0.00  0.00     0.027 A 
ATOM      6  C   UNL d   1     -40.236  15.136  19.291  0.00  0.00     0.008 A 
ENDROOT
BRANCH   1   7
ATOM      7  O   UNL d   1     -39.372  13.436  17.712  0.00  0.00    -0.271 OA
BRANCH   7   8
ATOM      8  C   UNL d   1     -38.604  13.150  17.793  0.00  0.00     0.300 C 
ATOM      9  O   UNL d   1     -37.949  13.659  17.663  0.00  0.00    -0.259 OA
ATOM     10  C   UNL d   1     -38.480  12.362  18.002  0.00  0.00     0.074 C 
ENDBRANCH   7   8
ENDBRANCH   1   7
BRANCH   2  11
ATOM     11  O   UNL d   1     -40.370  14.635  17.154  0.00  0.00    -0.271 OA
BRANCH  11  12
ATOM     12  C   UNL d   1     -40.852  15.241  16.878  0.00  0.00     0.300 C 
ATOM     13  O   UNL d   1     -41.673  15.171  16.927  0.00  0.00    -0.259 OA
ATOM     14  C   UNL d   1     -40.509  15.921  16.550  0.00  0.00     0.074 C 
ENDBRANCH  11  12
ENDBRANCH   2  11
BRANCH   3  15
ATOM     15  C   UNL d   1     -39.534  14.515  20.382  0.00  0.00     0.211 C 
ATOM     16  O   UNL d   1     -38.941  15.019  20.658  0.00  0.00    -0.644 OA
ATOM     17  O   UNL d   1     -39.924  13.987  20.898  0.00  0.00    -0.644 OA
ENDBRANCH   3  15
TORSDOF 5
ENDMDL
MODEL 7
REMARK VINA RESULT:      -4.3      7.628      9.415
REMARK  5 active torsions:
REMARK  status: ('A' for Active; 'I' for Inactive)
REMARK    1  A    between atoms: O_6  and  C_1 
REMARK    2  A    between atoms: C_2  and  C_4 
REMARK    3  A    between atoms: O_7  and  C_3 
REMARK    4  A    between atoms: C_8  and  O_6 
REMARK    5  A    between atoms: C_9  and  O_7 
ROOT
ATOM      1  C   UNL d   1     -40.042  14.673  19.957  0.00  0.00     0.126 A 
ATOM      2  C   UNL d   1     -39.746  14.387  19.243  0.00  0.00     0.126 A 
ATOM      3  C   UNL d   1     -38.879  14.175  20.631  0.00  0.00     0.067 A 
ATOM      4  C   UNL d   1     -39.610  14.568  20.651  0.00  0.00     0.033 A 
ATOM      5  C   UNL d   1     -39.015  13.994  19.222  0.00  0.00     0.027 A 
ATOM      6  C   UNL d   1     -38.588  13.892  19.916  0.00  0.00     0.008 A 
ENDROOT
BRANCH   1   7
ATOM      7  O   UNL d   1     -40.768  15.064  19.977  0.00  0.00    -0.271 OA
BRANCH   7   8
ATOM      8  C   UNL d   1     -41.157  15.176  20.694  0.00  0.00     0.300 C 
ATOM      9  O   UNL d   1     -41.548  14.532  21.067  0.00  0.00    -0.259 OA
ATOM     10  C   UNL d   1     -41.162  15.922  21.047  0.00  0.00     0.074 C 
ENDBRANCH   7   8
ENDBRANCH   1   7
BRANCH   2  11
ATOM     11  O   UNL d   1     -40.188  14.495  18.533  0.00  0.00    -0.271 OA
BRANCH  11  12
ATOM     12  C   UNL d   1     -39.935  14.147  17.833  0.00  0.00     0.300 C 
ATOM     13  O   UNL d   1     -40.005  13.331  17.727  0.00  0.00    -0.259 OA
ATOM     14  C   UNL d   1     -39.609  14.620  17.234  0.00  0.00     0.074 C 
ENDBRANCH  11  12
ENDBRANCH   2  11
BRANCH   3  15
ATOM     15  C   UNL d   1     -38.430  14.062  21.336  0.00  0.00     0.211 C 
ATOM     16  O   UNL d   1     -37.949  14.678  21.604  0.00  0.00    -0.644 OA
ATOM     17  O   UNL d   1     -38.474  13.339  21.750  0.00  0.00    -0.644 OA
ENDBRANCH   3  15
TORSDOF 5
ENDMDL
MODEL 8
REMARK VINA RESULT:      -4.3      8.462      9.774
REMARK  5 active torsions:
REMARK  status: ('A' for Active; 'I' for Inactive)
REMARK    1  A    between atoms: O_6  and  C_1 
REMARK    2  A    between atoms: C_2  and  C_4 
REMARK    3  A    between atoms: O_7  and  C_3 
REMARK    4  A    between atoms: C_8  and  O_6 
REMARK    5  A    between atoms: C_9  and  O_7 
ROOT
ATOM      1  C   UNL d   1     -40.126  14.626  18.442  0.00  0.00     0.126 A 
ATOM      2  C   UNL d   1     -40.351  14.809  17.671  0.00  0.00     0.126 A 
ATOM      3  C   UNL d   1     -39.211  13.645  17.936  0.00  0.00     0.067 A 
ATOM      4  C   UNL d   1     -39.556  14.045  18.576  0.00  0.00     0.033 A 
ATOM      5  C   UNL d   1     -40.006  14.409  17.030  0.00  0.00     0.027 A 
ATOM      6  C   UNL d   1     -39.439  13.831  17.168  0.00  0.00     0.008 A 
ENDROOT
BRANCH   1   7
ATOM      7  O   UNL d   1     -40.469  15.023  19.078  0.00  0.00    -0.271 OA
BRANCH   7   8
ATOM      8  C   UNL d   1     -40.483  14.674  19.824  0.00  0.00     0.300 C 
ATOM      9  O   UNL d   1     -40.948  13.988  19.960  0.00  0.00    -0.259 OA
ATOM     10  C   UNL d   1     -40.038  14.999  20.438  0.00  0.00     0.074 C 
ENDBRANCH   7   8
ENDBRANCH   1   7
BRANCH   2  11
ATOM     11  O   UNL d   1     -40.934  15.403  17.534  0.00  0.00    -0.271 OA
BRANCH  11  12
ATOM     12  C   UNL d   1     -41.052  15.698  16.777  0.00  0.00     0.300 C 
ATOM     13  O   UNL d   1     -40.405  15.922  16.314  0.00  0.00    -0.259 OA
ATOM     14  C   UNL d   1     -41.823  15.770  16.480  0.00  0.00     0.074 C 
ENDBRANCH  11  12
ENDBRANCH   2  11
BRANCH   3  15
ATOM     15  C   UNL d   1     -38.628  13.050  18.062  0.00  0.00     0.211 C 
ATOM     16  O   UNL d   1     -37.944  13.244  18.482  0.00  0.00    -0.644 OA
ATOM     17  O   UNL d   1     -38.745  12.278  17.765  0.00  0.00    -0.644 OA
ENDBRANCH   3  15
TORSDOF 5
ENDMDL
MODEL 9
REMARK VINA RESULT:      -4.2      7.655      9.873
REMARK  5 active torsions:
REMARK  status: ('A' for Active; 'I' for Inactive)
REMARK    1  A    between atoms: O_6  and  C_1 
REMARK    2  A    between atoms: C_2  and  C_4 
REMARK    3  A    between atoms: O_7  and  C_3 
REMARK    4  A    between atoms: C_8  and  O_6 
REMARK    5  A    between atoms: C_9  and  O_7 
ROOT
ATOM      1  C   UNL d   1     -39.139  14.100  19.795  0.00  0.00     0.126 A 
ATOM      2  C   UNL d   1     -39.334  14.060  18.996  0.00  0.00     0.126 A 
ATOM      3  C   UNL d   1     -40.475  14.524  20.095  0.00  0.00     0.067 A 
ATOM      4  C   UNL d   1     -39.707  14.332  20.346  0.00  0.00     0.033 A 
ATOM      5  C   UNL d   1     -40.101  14.252  18.744  0.00  0.00     0.027 A 
ATOM      6  C   UNL d   1     -40.665  14.483  19.296  0.00  0.00     0.008 A 
ENDROOT
BRANCH   1   7
ATOM      7  O   UNL d   1     -38.376  13.909  20.045  0.00  0.00    -0.271 OA
BRANCH   7   8
ATOM      8  C   UNL d   1     -38.138  14.081  20.814  0.00  0.00     0.300 C 
ATOM      9  O   UNL d   1     -37.940  14.869  21.028  0.00  0.00    -0.259 OA
ATOM     10  C   UNL d   1     -38.094  13.478  21.376  0.00  0.00     0.074 C 
ENDBRANCH   7   8
ENDBRANCH   1   7
BRANCH   2  11
ATOM     11  O   UNL d   1     -38.752  13.822  18.434  0.00  0.00    -0.271 OA
BRANCH  11  12
ATOM     12  C   UNL d   1     -38.979  13.579  17.683  0.00  0.00     0.300 C 
ATOM     13  O   UNL d   1     -39.281  12.818  17.568  0.00  0.00    -0.259 OA
ATOM     14  C   UNL d   1     -38.905  14.100  17.042  0.00  0.00     0.074 C 
ENDBRANCH  11  12
ENDBRANCH   2  11
BRANCH   3  15
ATOM     15  C   UNL d   1     -41.064  14.763  20.649  0.00  0.00     0.211 C 
ATOM     16  O   UNL d   1     -41.167  15.568  20.798  0.00  0.00    -0.644 OA
ATOM     17  O   UNL d   1     -41.531  14.189  21.037  0.00  0.00    -0.644 OA
ENDBRANCH   3  15
TORSDOF 5
ENDMDL
