MODEL 1
REMARK VINA RESULT:      -1.5      0.000      0.000
REMARK  3 active torsions:
REMARK  status: ('A' for Active; 'I' for Inactive)
REMARK    1  A    between atoms: C_12  and  C_5 
REMARK    2  A    between atoms: C_14  and  C_12 
REMARK    3  A    between atoms: C_15  and  C_14 
ROOT
ATOM      1  C   UNL d   1      33.173  22.165 -22.208  0.00  0.00     0.206 A 
ATOM      2  C   UNL d   1      33.201  21.473 -22.655  0.00  0.00     0.063 A 
ATOM      3  C   UNL d   1      33.197  20.702 -21.464  0.00  0.00     0.111 A 
ATOM      4  C   UNL d   1      33.169  21.391 -21.018  0.00  0.00     0.214 A 
ATOM      5  C   UNL d   1      33.213  20.746 -22.287  0.00  0.00     0.018 A 
ATOM      6  O   UNL d   1      33.158  22.124 -21.396  0.00  0.00    -0.268 OA
ATOM      7  N   UNL d   1      33.167  22.792 -22.698  0.00  0.00    -0.123 NA
ATOM      8  N   UNL d   1      33.190  22.529 -23.458  0.00  0.00    -0.146 NA
ATOM      9  C   UNL d   1      33.212  21.709 -23.446  0.00  0.00     0.106 A 
ATOM     10  C   UNL d   1      33.208  19.969 -21.087  0.00  0.00     0.105 C 
ATOM     11  N   UNL d   1      33.220  19.245 -20.716  0.00  0.00    -0.191 NA
ATOM     12  N   UNL d   1      33.154  21.349 -20.225  0.00  0.00    -0.120 N 
ATOM     13  C   UNL d   1      33.240  21.253 -24.239  0.00  0.00     0.023 C 
ENDROOT
BRANCH   5  14
ATOM     14  C   UNL d   1      33.240  20.066 -22.727  0.00  0.00     0.001 C 
BRANCH  14  15
ATOM     15  C   UNL d   1      32.567  19.461 -22.948  0.00  0.00     0.000 C 
BRANCH  15  16
ATOM     16  C   UNL d   1      32.627  18.803 -23.444  0.00  0.00     0.000 A 
ATOM     17  C   UNL d   1      33.161  18.182 -23.263  0.00  0.00     0.000 A 
ATOM     18  C   UNL d   1      33.211  17.539 -23.758  0.00  0.00     0.000 A 
ATOM     19  C   UNL d   1      32.734  17.494 -24.443  0.00  0.00     0.000 A 
ATOM     20  C   UNL d   1      32.208  18.105 -24.621  0.00  0.00     0.000 A 
ATOM     21  C   UNL d   1      32.161  18.757 -24.114  0.00  0.00     0.000 A 
ENDBRANCH  15  16
ENDBRANCH  14  15
ENDBRANCH   5  14
TORSDOF 3
ENDMDL
MODEL 2
REMARK VINA RESULT:      -0.1      4.276      5.062
REMARK  3 active torsions:
REMARK  status: ('A' for Active; 'I' for Inactive)
REMARK    1  A    between atoms: C_12  and  C_5 
REMARK    2  A    between atoms: C_14  and  C_12 
REMARK    3  A    between atoms: C_15  and  C_14 
ROOT
ATOM      1  C   UNL d   1      28.658  18.211 -24.330  0.00  0.00     0.206 A 
ATOM      2  C   UNL d   1      29.395  17.841 -24.343  0.00  0.00     0.063 A 
ATOM      3  C   UNL d   1      28.902  16.831 -23.477  0.00  0.00     0.111 A 
ATOM      4  C   UNL d   1      28.168  17.199 -23.465  0.00  0.00     0.214 A 
ATOM      5  C   UNL d   1      29.518  17.155 -23.920  0.00  0.00     0.018 A 
ATOM      6  O   UNL d   1      28.050  17.893 -23.895  0.00  0.00    -0.268 OA
ATOM      7  N   UNL d   1      28.687  18.864 -24.785  0.00  0.00    -0.123 NA
ATOM      8  N   UNL d   1      29.425  18.932 -25.097  0.00  0.00    -0.146 NA
ATOM      9  C   UNL d   1      29.877  18.301 -24.830  0.00  0.00     0.106 A 
ATOM     10  C   UNL d   1      29.021  16.137 -23.047  0.00  0.00     0.105 C 
ATOM     11  N   UNL d   1      29.140  15.453 -22.624  0.00  0.00    -0.191 NA
ATOM     12  N   UNL d   1      27.575  16.886 -23.039  0.00  0.00    -0.120 N 
ATOM     13  C   UNL d   1      30.749  18.234 -25.097  0.00  0.00     0.023 C 
ENDROOT
BRANCH   5  14
ATOM     14  C   UNL d   1      30.241  16.792 -23.932  0.00  0.00     0.001 C 
BRANCH  14  15
ATOM     15  C   UNL d   1      30.991  16.917 -23.394  0.00  0.00     0.000 C 
BRANCH  15  16
ATOM     16  C   UNL d   1      31.732  16.561 -23.474  0.00  0.00     0.000 A 
ATOM     17  C   UNL d   1      31.807  15.818 -23.854  0.00  0.00     0.000 A 
ATOM     18  C   UNL d   1      32.541  15.477 -23.927  0.00  0.00     0.000 A 
ATOM     19  C   UNL d   1      33.219  15.862 -23.626  0.00  0.00     0.000 A 
ATOM     20  C   UNL d   1      33.145  16.594 -23.251  0.00  0.00     0.000 A 
ATOM     21  C   UNL d   1      32.396  16.937 -23.179  0.00  0.00     0.000 A 
ENDBRANCH  15  16
ENDBRANCH  14  15
ENDBRANCH   5  14
TORSDOF 3
ENDMDL
MODEL 3
REMARK VINA RESULT:       0.9      1.787      4.156
REMARK  3 active torsions:
REMARK  status: ('A' for Active; 'I' for Inactive)
REMARK    1  A    between atoms: C_12  and  C_5 
REMARK    2  A    between atoms: C_14  and  C_12 
REMARK    3  A    between atoms: C_15  and  C_14 
ROOT
ATOM      1  C   UNL d   1      33.081  18.007 -23.064  0.00  0.00     0.206 A 
ATOM      2  C   UNL d   1      33.147  18.649 -22.550  0.00  0.00     0.063 A 
ATOM      3  C   UNL d   1      33.137  19.536 -23.657  0.00  0.00     0.111 A 
ATOM      4  C   UNL d   1      33.071  18.897 -24.169  0.00  0.00     0.214 A 
ATOM      5  C   UNL d   1      33.175  19.409 -22.844  0.00  0.00     0.018 A 
ATOM      6  O   UNL d   1      33.043  18.130 -23.867  0.00  0.00    -0.268 OA
ATOM      7  N   UNL d   1      33.065  17.334 -22.640  0.00  0.00    -0.123 NA
ATOM      8  N   UNL d   1      33.120  17.518 -21.858  0.00  0.00    -0.146 NA
ATOM      9  C   UNL d   1      33.171  18.333 -21.789  0.00  0.00     0.106 A 
ATOM     10  C   UNL d   1      33.165  20.303 -23.959  0.00  0.00     0.105 C 
ATOM     11  N   UNL d   1      33.192  21.060 -24.255  0.00  0.00    -0.191 NA
ATOM     12  N   UNL d   1      33.034  19.020 -24.953  0.00  0.00    -0.120 N 
ATOM     13  C   UNL d   1      33.240  18.705 -20.955  0.00  0.00     0.023 C 
ENDROOT
BRANCH   5  14
ATOM     14  C   UNL d   1      33.240  20.039 -22.339  0.00  0.00     0.001 C 
BRANCH  14  15
ATOM     15  C   UNL d   1      32.623  20.404 -21.744  0.00  0.00     0.000 C 
BRANCH  15  16
ATOM     16  C   UNL d   1      32.608  21.174 -21.445  0.00  0.00     0.000 A 
ATOM     17  C   UNL d   1      31.949  21.444 -21.003  0.00  0.00     0.000 A 
ATOM     18  C   UNL d   1      31.945  22.204 -20.713  0.00  0.00     0.000 A 
ATOM     19  C   UNL d   1      32.592  22.714 -20.854  0.00  0.00     0.000 A 
ATOM     20  C   UNL d   1      33.241  22.448 -21.289  0.00  0.00     0.000 A 
ATOM     21  C   UNL d   1      33.240  21.674 -21.581  0.00  0.00     0.000 A 
ENDBRANCH  15  16
ENDBRANCH  14  15
ENDBRANCH   5  14
TORSDOF 3
ENDMDL
