MODEL 1
REMARK VINA RESULT:      40.8      0.000      0.000
REMARK  7 active torsions:
REMARK  status: ('A' for Active; 'I' for Inactive)
REMARK    1  A    between atoms: C_11  and  C_4 
REMARK    2  A    between atoms: N_12  and  C_5 
REMARK    3  A    between atoms: C_10  and  C_8 
REMARK    4  A    between atoms: C_15  and  N_12 
REMARK    5  A    between atoms: N_13  and  C_19 
REMARK    6  A    between atoms: C_14  and  C_15 
REMARK    7  A    between atoms: C_19  and  C_14 
ROOT
ATOM      1  C   UNL d   1      14.246  13.889  -2.021  0.00  0.00     0.168 A 
ATOM      2  N   UNL d   1      13.818  13.495  -2.625  0.00  0.00    -0.184 N 
ATOM      3  N   UNL d   1      14.537  13.465  -1.387  0.00  0.00    -0.231 NA
ATOM      4  C   UNL d   1      14.371  14.687  -2.067  0.00  0.00     0.057 A 
ATOM      5  C   UNL d   1      13.705  12.700  -2.559  0.00  0.00     0.217 A 
ATOM      6  N   UNL d   1      13.659  14.715  -3.291  0.00  0.00    -0.160 NA
ATOM      7  C   UNL d   1      13.993  12.264  -1.927  0.00  0.00     0.067 A 
ATOM      8  C   UNL d   1      14.414  12.652  -1.333  0.00  0.00     0.064 A 
ATOM      9  C   UNL d   1      14.080  15.103  -2.697  0.00  0.00     0.124 A 
ENDROOT
BRANCH   5  10
ATOM     10  N   UNL d   1      13.270  12.299  -3.172  0.00  0.00    -0.380 NA
BRANCH  10  11
ATOM     11  C   UNL d   1      12.834  11.844  -3.735  0.00  0.00     0.164 C 
BRANCH  11  12
ATOM     12  C   UNL d   1      13.136  11.779  -4.528  0.00  0.00     0.054 C 
BRANCH  12  13
ATOM     13  C   UNL d   1      13.155  12.476  -5.027  0.00  0.00     0.083 C 
BRANCH  13  14
ATOM     14  N   UNL d   1      13.663  12.494  -5.704  0.00  0.00    -0.300 N 
ATOM     15  C   UNL d   1      13.231  11.864  -6.075  0.00  0.00     0.100 C 
ATOM     16  C   UNL d   1      14.333  12.833  -6.112  0.00  0.00     0.100 C 
ENDBRANCH  13  14
ENDBRANCH  12  13
ENDBRANCH  11  12
ENDBRANCH  10  11
ENDBRANCH   5  10
BRANCH   8  17
ATOM     17  C   UNL d   1      14.720  12.213  -0.669  0.00  0.00     0.036 C 
ATOM     18  C   UNL d   1      15.027  11.779  -0.015  0.00  0.00     0.006 C 
ATOM     19  C   UNL d   1      14.202  12.004  -0.027  0.00  0.00     0.006 C 
ATOM     20  C   UNL d   1      15.544  11.985  -0.652  0.00  0.00     0.006 C 
ENDBRANCH   8  17
BRANCH   4  21
ATOM     21  C   UNL d   1      14.792  15.074  -1.473  0.00  0.00     0.004 A 
ATOM     22  C   UNL d   1      14.920  14.701  -0.774  0.00  0.00     0.000 A 
ATOM     23  C   UNL d   1      15.341  15.089  -0.180  0.00  0.00     0.000 A 
ATOM     24  C   UNL d   1      15.622  15.838  -0.304  0.00  0.00     0.000 A 
ATOM     25  C   UNL d   1      15.488  16.211  -1.017  0.00  0.00     0.000 A 
ATOM     26  C   UNL d   1      15.067  15.823  -1.611  0.00  0.00     0.000 A 
ENDBRANCH   4  21
TORSDOF 7
ENDMDL
