MODEL 1
REMARK VINA RESULT:      -3.6      0.000      0.000
REMARK  3 active torsions:
REMARK  status: ('A' for Active; 'I' for Inactive)
REMARK    1  A    between atoms: N_4  and  C_1 
REMARK    2  A    between atoms: C_3  and  N_4 
REMARK    3  A    between atoms: C_8  and  C_5 
ROOT
ATOM      1  C   UNL d   1      31.152  16.796 -24.619  0.00  0.00     0.750 A 
ATOM      2  N   UNL d   1      31.482  17.496 -24.334  0.00  0.00    -0.059 NA
ATOM      3  C   UNL d   1      32.251  17.500 -24.041  0.00  0.00     0.103 A 
ATOM      4  N   UNL d   1      31.582  16.105 -24.615  0.00  0.00    -0.058 NA
ATOM      5  C   UNL d   1      32.690  16.801 -24.035  0.00  0.00     0.041 A 
ATOM      6  C   UNL d   1      32.353  16.095 -24.324  0.00  0.00     0.120 A 
ENDROOT
BRANCH   1   7
ATOM      7  N   UNL d   1      30.382  16.800 -24.910  0.00  0.00    -0.059 NA
BRANCH   7   8
ATOM      8  C   UNL d   1      29.743  16.697 -24.397  0.00  0.00     0.101 A 
ATOM      9  C   UNL d   1      29.774  16.125 -23.803  0.00  0.00     0.041 A 
ATOM     10  C   UNL d   1      29.128  16.026 -23.291  0.00  0.00     0.104 A 
ATOM     11  N   UNL d   1      29.159  15.454 -22.697  0.00  0.00    -0.148 N 
ATOM     12  C   UNL d   1      28.459  16.499 -23.375  0.00  0.00     0.021 A 
ATOM     13  C   UNL d   1      28.428  17.071 -23.969  0.00  0.00     0.003 A 
ATOM     14  C   UNL d   1      29.067  17.170 -24.478  0.00  0.00     0.018 A 
ATOM     15  C   UNL d   1      29.036  17.742 -25.072  0.00  0.00     0.002 C 
ENDBRANCH   7   8
ENDBRANCH   1   7
BRANCH   3  16
ATOM     16  C   UNL d   1      32.579  18.197 -23.757  0.00  0.00     0.037 A 
ATOM     17  C   UNL d   1      32.845  18.764 -24.286  0.00  0.00     0.100 A 
ATOM     18  N   UNL d   1      33.176  19.468 -24.012  0.00  0.00    -0.242 NA
ATOM     19  C   UNL d   1      33.239  19.601 -23.194  0.00  0.00     0.099 A 
ATOM     20  C   UNL d   1      32.969  19.025 -22.661  0.00  0.00     0.021 A 
ATOM     21  C   UNL d   1      32.641  18.328 -22.945  0.00  0.00     0.005 A 
ENDBRANCH   3  16
TORSDOF 3
ENDMDL
MODEL 2
REMARK VINA RESULT:      -2.7      1.043      3.858
REMARK  3 active torsions:
REMARK  status: ('A' for Active; 'I' for Inactive)
REMARK    1  A    between atoms: N_4  and  C_1 
REMARK    2  A    between atoms: C_3  and  N_4 
REMARK    3  A    between atoms: C_8  and  C_5 
ROOT
ATOM      1  C   UNL d   1      32.250  16.714 -24.158  0.00  0.00     0.750 A 
ATOM      2  N   UNL d   1      31.430  16.720 -24.256  0.00  0.00    -0.059 NA
ATOM      3  C   UNL d   1      30.977  16.092 -23.979  0.00  0.00     0.103 A 
ATOM      4  N   UNL d   1      32.616  16.090 -23.788  0.00  0.00    -0.058 NA
ATOM      5  C   UNL d   1      31.346  15.457 -23.603  0.00  0.00     0.041 A 
ATOM      6  C   UNL d   1      32.174  15.454 -23.505  0.00  0.00     0.120 A 
ENDROOT
BRANCH   1   7
ATOM      7  N   UNL d   1      32.696  17.346 -24.439  0.00  0.00    -0.059 NA
BRANCH   7   8
ATOM      8  C   UNL d   1      32.833  18.004 -23.958  0.00  0.00     0.101 A 
ATOM      9  C   UNL d   1      32.969  17.908 -23.150  0.00  0.00     0.041 A 
ATOM     10  C   UNL d   1      33.106  18.573 -22.672  0.00  0.00     0.104 A 
ATOM     11  N   UNL d   1      33.241  18.477 -21.864  0.00  0.00    -0.148 N 
ATOM     12  C   UNL d   1      33.107  19.327 -23.005  0.00  0.00     0.021 A 
ATOM     13  C   UNL d   1      32.971  19.423 -23.813  0.00  0.00     0.003 A 
ATOM     14  C   UNL d   1      32.835  18.764 -24.289  0.00  0.00     0.018 A 
ATOM     15  C   UNL d   1      32.700  18.860 -25.097  0.00  0.00     0.002 C 
ENDBRANCH   7   8
ENDBRANCH   1   7
BRANCH   3  16
ATOM     16  C   UNL d   1      30.162  16.099 -24.076  0.00  0.00     0.037 A 
ATOM     17  C   UNL d   1      29.840  15.877 -24.797  0.00  0.00     0.100 A 
ATOM     18  N   UNL d   1      29.022  15.880 -24.906  0.00  0.00    -0.242 NA
ATOM     19  C   UNL d   1      28.525  16.109 -24.281  0.00  0.00     0.099 A 
ATOM     20  C   UNL d   1      28.854  16.333 -23.552  0.00  0.00     0.021 A 
ATOM     21  C   UNL d   1      29.670  16.326 -23.455  0.00  0.00     0.005 A 
ENDBRANCH   3  16
TORSDOF 3
ENDMDL
MODEL 3
REMARK VINA RESULT:      -2.3      1.192      2.043
REMARK  3 active torsions:
REMARK  status: ('A' for Active; 'I' for Inactive)
REMARK    1  A    between atoms: N_4  and  C_1 
REMARK    2  A    between atoms: C_3  and  N_4 
REMARK    3  A    between atoms: C_8  and  C_5 
ROOT
ATOM      1  C   UNL d   1      32.273  17.789 -24.411  0.00  0.00     0.750 A 
ATOM      2  N   UNL d   1      32.362  18.162 -23.681  0.00  0.00    -0.059 NA
ATOM      3  C   UNL d   1      32.701  18.910 -23.640  0.00  0.00     0.103 A 
ATOM      4  N   UNL d   1      32.518  18.154 -25.095  0.00  0.00    -0.058 NA
ATOM      5  C   UNL d   1      32.951  19.285 -24.331  0.00  0.00     0.041 A 
ATOM      6  C   UNL d   1      32.859  18.904 -25.068  0.00  0.00     0.120 A 
ENDROOT
BRANCH   1   7
ATOM      7  N   UNL d   1      31.932  17.039 -24.444  0.00  0.00    -0.059 NA
BRANCH   7   8
ATOM      8  C   UNL d   1      31.112  16.954 -24.406  0.00  0.00     0.101 A 
ATOM      9  C   UNL d   1      30.617  17.518 -24.749  0.00  0.00     0.041 A 
ATOM     10  C   UNL d   1      29.793  17.426 -24.706  0.00  0.00     0.104 A 
ATOM     11  N   UNL d   1      29.299  17.990 -25.049  0.00  0.00    -0.148 N 
ATOM     12  C   UNL d   1      29.470  16.772 -24.322  0.00  0.00     0.021 A 
ATOM     13  C   UNL d   1      29.965  16.208 -23.979  0.00  0.00     0.003 A 
ATOM     14  C   UNL d   1      30.782  16.297 -24.020  0.00  0.00     0.018 A 
ATOM     15  C   UNL d   1      31.277  15.733 -23.677  0.00  0.00     0.002 C 
ENDBRANCH   7   8
ENDBRANCH   1   7
BRANCH   3  16
ATOM     16  C   UNL d   1      32.789  19.282 -22.913  0.00  0.00     0.037 A 
ATOM     17  C   UNL d   1      32.518  20.049 -22.816  0.00  0.00     0.100 A 
ATOM     18  N   UNL d   1      32.602  20.432 -22.090  0.00  0.00    -0.242 NA
ATOM     19  C   UNL d   1      32.963  20.036 -21.455  0.00  0.00     0.099 A 
ATOM     20  C   UNL d   1      33.237  19.258 -21.557  0.00  0.00     0.021 A 
ATOM     21  C   UNL d   1      33.148  18.887 -22.284  0.00  0.00     0.005 A 
ENDBRANCH   3  16
TORSDOF 3
ENDMDL
MODEL 4
REMARK VINA RESULT:      -1.6      1.267      4.541
REMARK  3 active torsions:
REMARK  status: ('A' for Active; 'I' for Inactive)
REMARK    1  A    between atoms: N_4  and  C_1 
REMARK    2  A    between atoms: C_3  and  N_4 
REMARK    3  A    between atoms: C_8  and  C_5 
ROOT
ATOM      1  C   UNL d   1      32.930  18.772 -23.406  0.00  0.00     0.750 A 
ATOM      2  N   UNL d   1      32.307  18.232 -23.393  0.00  0.00    -0.059 NA
ATOM      3  C   UNL d   1      31.991  17.950 -24.098  0.00  0.00     0.103 A 
ATOM      4  N   UNL d   1      33.237  19.032 -24.112  0.00  0.00    -0.058 NA
ATOM      5  C   UNL d   1      32.301  18.211 -24.818  0.00  0.00     0.041 A 
ATOM      6  C   UNL d   1      32.930  18.758 -24.827  0.00  0.00     0.120 A 
ENDROOT
BRANCH   1   7
ATOM      7  N   UNL d   1      33.241  19.049 -22.695  0.00  0.00    -0.059 NA
BRANCH   7   8
ATOM      8  C   UNL d   1      33.221  19.856 -22.519  0.00  0.00     0.101 A 
ATOM      9  C   UNL d   1      33.238  20.415 -23.126  0.00  0.00     0.041 A 
ATOM     10  C   UNL d   1      33.218  21.224 -22.942  0.00  0.00     0.104 A 
ATOM     11  N   UNL d   1      33.236  21.783 -23.549  0.00  0.00    -0.148 N 
ATOM     12  C   UNL d   1      33.181  21.469 -22.156  0.00  0.00     0.021 A 
ATOM     13  C   UNL d   1      33.164  20.910 -21.550  0.00  0.00     0.003 A 
ATOM     14  C   UNL d   1      33.184  20.106 -21.729  0.00  0.00     0.018 A 
ATOM     15  C   UNL d   1      33.167  19.547 -21.123  0.00  0.00     0.002 C 
ENDBRANCH   7   8
ENDBRANCH   1   7
BRANCH   3  16
ATOM     16  C   UNL d   1      31.371  17.412 -24.085  0.00  0.00     0.037 A 
ATOM     17  C   UNL d   1      30.674  17.590 -24.478  0.00  0.00     0.100 A 
ATOM     18  N   UNL d   1      30.044  17.057 -24.471  0.00  0.00    -0.242 NA
ATOM     19  C   UNL d   1      30.120  16.336 -24.064  0.00  0.00     0.099 A 
ATOM     20  C   UNL d   1      30.828  16.159 -23.668  0.00  0.00     0.021 A 
ATOM     21  C   UNL d   1      31.448  16.697 -23.681  0.00  0.00     0.005 A 
ENDBRANCH   3  16
TORSDOF 3
ENDMDL
MODEL 5
REMARK VINA RESULT:      -1.4      2.112      3.943
REMARK  3 active torsions:
REMARK  status: ('A' for Active; 'I' for Inactive)
REMARK    1  A    between atoms: N_4  and  C_1 
REMARK    2  A    between atoms: C_3  and  N_4 
REMARK    3  A    between atoms: C_8  and  C_5 
ROOT
ATOM      1  C   UNL d   1      33.151  19.732 -22.783  0.00  0.00     0.750 A 
ATOM      2  N   UNL d   1      32.971  20.520 -22.618  0.00  0.00    -0.059 NA
ATOM      3  C   UNL d   1      32.880  20.767 -21.838  0.00  0.00     0.103 A 
ATOM      4  N   UNL d   1      33.240  19.194 -22.181  0.00  0.00    -0.058 NA
ATOM      5  C   UNL d   1      32.969  20.223 -21.224  0.00  0.00     0.041 A 
ATOM      6  C   UNL d   1      33.152  19.427 -21.395  0.00  0.00     0.120 A 
ENDROOT
BRANCH   1   7
ATOM      7  N   UNL d   1      33.241  19.493 -23.566  0.00  0.00    -0.059 NA
BRANCH   7   8
ATOM      8  C   UNL d   1      32.756  18.902 -23.878  0.00  0.00     0.101 A 
ATOM      9  C   UNL d   1      32.588  18.225 -23.437  0.00  0.00     0.041 A 
ATOM     10  C   UNL d   1      32.100  17.635 -23.757  0.00  0.00     0.104 A 
ATOM     11  N   UNL d   1      31.931  16.958 -23.316  0.00  0.00    -0.148 N 
ATOM     12  C   UNL d   1      31.784  17.724 -24.513  0.00  0.00     0.021 A 
ATOM     13  C   UNL d   1      31.952  18.401 -24.954  0.00  0.00     0.003 A 
ATOM     14  C   UNL d   1      32.436  18.988 -24.639  0.00  0.00     0.018 A 
ATOM     15  C   UNL d   1      32.605  19.665 -25.080  0.00  0.00     0.002 C 
ENDBRANCH   7   8
ENDBRANCH   1   7
BRANCH   3  16
ATOM     16  C   UNL d   1      32.701  21.551 -21.674  0.00  0.00     0.037 A 
ATOM     17  C   UNL d   1      32.940  22.138 -22.193  0.00  0.00     0.100 A 
ATOM     18  N   UNL d   1      32.766  22.929 -22.038  0.00  0.00    -0.242 NA
ATOM     19  C   UNL d   1      32.345  23.129 -21.350  0.00  0.00     0.099 A 
ATOM     20  C   UNL d   1      32.103  22.533 -20.826  0.00  0.00     0.021 A 
ATOM     21  C   UNL d   1      32.282  21.748 -20.990  0.00  0.00     0.005 A 
ENDBRANCH   3  16
TORSDOF 3
ENDMDL
MODEL 6
REMARK VINA RESULT:      -1.2      3.020      5.648
REMARK  3 active torsions:
REMARK  status: ('A' for Active; 'I' for Inactive)
REMARK    1  A    between atoms: N_4  and  C_1 
REMARK    2  A    between atoms: C_3  and  N_4 
REMARK    3  A    between atoms: C_8  and  C_5 
ROOT
ATOM      1  C   UNL d   1      33.203  21.260 -21.880  0.00  0.00     0.750 A 
ATOM      2  N   UNL d   1      33.126  20.726 -22.504  0.00  0.00    -0.059 NA
ATOM      3  C   UNL d   1      33.088  19.918 -22.353  0.00  0.00     0.103 A 
ATOM      4  N   UNL d   1      33.240  20.995 -21.112  0.00  0.00    -0.058 NA
ATOM      5  C   UNL d   1      33.126  19.646 -21.575  0.00  0.00     0.041 A 
ATOM      6  C   UNL d   1      33.203  20.188 -20.946  0.00  0.00     0.120 A 
ENDROOT
BRANCH   1   7
ATOM      7  N   UNL d   1      33.241  22.067 -22.039  0.00  0.00    -0.059 NA
BRANCH   7   8
ATOM      8  C   UNL d   1      32.734  22.591 -21.652  0.00  0.00     0.101 A 
ATOM      9  C   UNL d   1      32.621  22.536 -20.837  0.00  0.00     0.041 A 
ATOM     10  C   UNL d   1      32.110  23.067 -20.454  0.00  0.00     0.104 A 
ATOM     11  N   UNL d   1      31.997  23.011 -19.639  0.00  0.00    -0.148 N 
ATOM     12  C   UNL d   1      31.716  23.647 -20.887  0.00  0.00     0.021 A 
ATOM     13  C   UNL d   1      31.829  23.702 -21.702  0.00  0.00     0.003 A 
ATOM     14  C   UNL d   1      32.336  23.177 -22.085  0.00  0.00     0.018 A 
ATOM     15  C   UNL d   1      32.449  23.232 -22.900  0.00  0.00     0.002 C 
ENDBRANCH   7   8
ENDBRANCH   1   7
BRANCH   3  16
ATOM     16  C   UNL d   1      33.012  19.387 -22.974  0.00  0.00     0.037 A 
ATOM     17  C   UNL d   1      33.099  19.651 -23.745  0.00  0.00     0.100 A 
ATOM     18  N   UNL d   1      33.025  19.126 -24.377  0.00  0.00    -0.242 NA
ATOM     19  C   UNL d   1      32.861  18.326 -24.229  0.00  0.00     0.099 A 
ATOM     20  C   UNL d   1      32.772  18.061 -23.447  0.00  0.00     0.021 A 
ATOM     21  C   UNL d   1      32.848  18.592 -22.826  0.00  0.00     0.005 A 
ENDBRANCH   3  16
TORSDOF 3
ENDMDL
