MODEL 1
REMARK VINA RESULT:      76.7      0.000      0.000
REMARK  4 active torsions:
REMARK  status: ('A' for Active; 'I' for Inactive)
REMARK    1  A    between atoms: C_3  and  C_1 
REMARK    2  A    between atoms: N_5  and  C_3 
REMARK    3  A    between atoms: C_10  and  C_3 
REMARK    4  A    between atoms: C_7  and  N_5 
ROOT
ATOM      1  C   UNL d   1     -55.216-100.732 -43.887  0.00  0.00     0.086 C 
ENDROOT
BRANCH   1   2
ATOM      2  C   UNL d   1     -55.868-100.221 -44.032  0.00  0.00     0.058 A 
ATOM      3  C   UNL d   1     -56.627-100.563 -44.047  0.00  0.00     0.214 A 
ATOM      4  C   UNL d   1     -57.260-100.054 -44.191  0.00  0.00     0.120 A 
ATOM      5  O   UNL d   1     -56.737-101.371 -43.924  0.00  0.00    -0.285 OA
ATOM      6  N   UNL d   1     -58.037-100.394 -44.207  0.00  0.00    -0.241 NA
ATOM      7  C   UNL d   1     -57.149 -99.246 -44.314  0.00  0.00     0.021 A 
ATOM      8  C   UNL d   1     -58.671 -99.886 -44.351  0.00  0.00     0.099 A 
ATOM      9  C   UNL d   1     -58.560 -99.077 -44.474  0.00  0.00     0.021 A 
ATOM     10  C   UNL d   1     -57.816 -98.778 -44.454  0.00  0.00     0.003 A 
ATOM     11  C   UNL d   1     -56.405 -98.947 -44.294  0.00  0.00     0.002 A 
ATOM     12  C   UNL d   1     -55.757 -99.413 -44.156  0.00  0.00     0.005 A 
ENDBRANCH   1   2
BRANCH   1  13
ATOM     13  N   UNL d   1     -54.717-100.597 -43.236  0.00  0.00    -0.227 NA
BRANCH  13  14
ATOM     14  C   UNL d   1     -54.803-101.004 -42.545  0.00  0.00     0.162 A 
ATOM     15  N   UNL d   1     -54.715-101.824 -42.541  0.00  0.00    -0.225 NA
ATOM     16  C   UNL d   1     -54.800-102.258 -41.841  0.00  0.00     0.101 A 
ATOM     17  C   UNL d   1     -54.974-101.845 -41.153  0.00  0.00     0.021 A 
ATOM     18  C   UNL d   1     -55.062-101.025 -41.157  0.00  0.00     0.005 A 
ATOM     19  C   UNL d   1     -54.975-100.618 -41.849  0.00  0.00     0.039 A 
ENDBRANCH  13  14
ENDBRANCH   1  13
BRANCH   1  20
ATOM     20  C   UNL d   1     -55.060-101.362 -44.373  0.00  0.00     0.018 A 
ATOM     21  C   UNL d   1     -54.875-101.237 -45.150  0.00  0.00     0.002 A 
ATOM     22  C   UNL d   1     -54.717-101.878 -45.645  0.00  0.00     0.000 A 
ATOM     23  C   UNL d   1     -54.743-102.644 -45.362  0.00  0.00     0.000 A 
ATOM     24  C   UNL d   1     -54.933-102.762 -44.567  0.00  0.00     0.000 A 
ATOM     25  C   UNL d   1     -55.091-102.121 -44.073  0.00  0.00     0.002 A 
ENDBRANCH   1  20
TORSDOF 4
ENDMDL
