MODEL 1
REMARK VINA RESULT:      -6.2      0.000      0.000
REMARK  0 active torsions:
REMARK  status: ('A' for Active; 'I' for Inactive)
ROOT
ATOM      1  C   UNL d   1     -41.850-121.933 -53.787  0.00  0.00     0.191 A 
ATOM      2  S   UNL d   1     -42.017-121.935 -55.222  0.00  0.00     0.289 S 
ATOM      3  N   UNL d   1     -42.039-121.536 -54.488  0.00  0.00    -0.134 NA
ATOM      4  N   UNL d   1     -41.639-122.731 -53.824  0.00  0.00    -0.284 N 
ATOM      5  S   UNL d   1     -41.822-121.703 -53.010  0.00  0.00    -0.048 SA
ATOM      6  C   UNL d   1     -41.594-122.348 -52.560  0.00  0.00     0.048 A 
ATOM      7  C   UNL d   1     -41.481-122.988 -53.069  0.00  0.00     0.072 A 
ATOM      8  C   UNL d   1     -41.804-122.733 -55.247  0.00  0.00     0.137 A 
ATOM      9  C   UNL d   1     -41.472-122.454 -51.754  0.00  0.00     0.007 A 
ATOM     10  C   UNL d   1     -41.615-123.135 -54.557  0.00  0.00     0.096 A 
ATOM     11  O   UNL d   1     -42.245-121.163 -55.379  0.00  0.00    -0.198 OA
ATOM     12  O   UNL d   1     -42.077-122.056 -56.015  0.00  0.00    -0.198 OA
ATOM     13  C   UNL d   1     -41.236-123.750 -52.739  0.00  0.00     0.018 A 
ATOM     14  C   UNL d   1     -41.236-123.187 -51.437  0.00  0.00     0.001 A 
ATOM     15  C   UNL d   1     -41.123-123.817 -51.925  0.00  0.00     0.002 A 
ATOM     16  C   UNL d   1     -41.595-121.783 -51.253  0.00  0.00     0.001 A 
ATOM     17  C   UNL d   1     -41.123-123.252 -50.618  0.00  0.00     0.000 A 
ATOM     18  C   UNL d   1     -41.481-121.851 -50.439  0.00  0.00     0.000 A 
ATOM     19  C   UNL d   1     -41.237-122.613 -50.110  0.00  0.00     0.000 A 
ENDROOT
TORSDOF 0
ENDMDL
MODEL 2
REMARK VINA RESULT:      -6.2      2.216      3.646
REMARK  0 active torsions:
REMARK  status: ('A' for Active; 'I' for Inactive)
ROOT
ATOM      1  C   UNL d   1     -41.694-122.510 -51.823  0.00  0.00     0.191 A 
ATOM      2  S   UNL d   1     -41.505-122.934 -50.455  0.00  0.00     0.289 S 
ATOM      3  N   UNL d   1     -41.757-122.364 -51.011  0.00  0.00    -0.134 NA
ATOM      4  N   UNL d   1     -41.378-123.231 -52.076  0.00  0.00    -0.284 N 
ATOM      5  S   UNL d   1     -41.887-122.077 -52.481  0.00  0.00    -0.048 SA
ATOM      6  C   UNL d   1     -41.694-122.519 -53.143  0.00  0.00     0.048 A 
ATOM      7  C   UNL d   1     -41.377-123.237 -52.889  0.00  0.00     0.072 A 
ATOM      8  C   UNL d   1     -41.189-123.652 -50.720  0.00  0.00     0.137 A 
ATOM      9  C   UNL d   1     -41.759-122.376 -53.951  0.00  0.00     0.007 A 
ATOM     10  C   UNL d   1     -41.124-123.806 -51.523  0.00  0.00     0.096 A 
ATOM     11  O   UNL d   1     -41.785-122.294 -50.026  0.00  0.00    -0.198 OA
ATOM     12  O   UNL d   1     -41.353-123.275 -49.743  0.00  0.00    -0.198 OA
ATOM     13  C   UNL d   1     -41.123-123.817 -53.479  0.00  0.00     0.018 A 
ATOM     14  C   UNL d   1     -41.515-122.934 -54.517  0.00  0.00     0.001 A 
ATOM     15  C   UNL d   1     -41.204-123.638 -54.280  0.00  0.00     0.002 A 
ATOM     16  C   UNL d   1     -42.087-121.632 -54.186  0.00  0.00     0.001 A 
ATOM     17  C   UNL d   1     -41.597-122.751 -55.323  0.00  0.00     0.000 A 
ATOM     18  C   UNL d   1     -42.168-121.453 -54.987  0.00  0.00     0.000 A 
ATOM     19  C   UNL d   1     -41.914-122.033 -55.576  0.00  0.00     0.000 A 
ENDROOT
TORSDOF 0
ENDMDL
MODEL 3
REMARK VINA RESULT:      -3.5      3.050      4.134
REMARK  0 active torsions:
REMARK  status: ('A' for Active; 'I' for Inactive)
ROOT
ATOM      1  C   UNL d   1     -42.353-122.540 -50.140  0.00  0.00     0.191 A 
ATOM      2  S   UNL d   1     -42.553-122.960 -48.772  0.00  0.00     0.289 S 
ATOM      3  N   UNL d   1     -42.656-122.399 -49.383  0.00  0.00    -0.134 NA
ATOM      4  N   UNL d   1     -41.948-123.246 -50.283  0.00  0.00    -0.284 N 
ATOM      5  S   UNL d   1     -42.363-122.114 -50.829  0.00  0.00    -0.048 SA
ATOM      6  C   UNL d   1     -41.968-122.545 -51.403  0.00  0.00     0.048 A 
ATOM      7  C   UNL d   1     -41.709-123.250 -51.061  0.00  0.00     0.072 A 
ATOM      8  C   UNL d   1     -42.145-123.663 -48.927  0.00  0.00     0.137 A 
ATOM      9  C   UNL d   1     -41.801-122.402 -52.195  0.00  0.00     0.007 A 
ATOM     10  C   UNL d   1     -41.842-123.812 -49.675  0.00  0.00     0.096 A 
ATOM     11  O   UNL d   1     -42.972-122.333 -48.449  0.00  0.00    -0.198 OA
ATOM     12  O   UNL d   1     -42.601-123.296 -48.043  0.00  0.00    -0.198 OA
ATOM     13  C   UNL d   1     -41.271-123.818 -51.545  0.00  0.00     0.018 A 
ATOM     14  C   UNL d   1     -41.379-122.948 -52.661  0.00  0.00     0.001 A 
ATOM     15  C   UNL d   1     -41.123-123.639 -52.337  0.00  0.00     0.002 A 
ATOM     16  C   UNL d   1     -42.076-121.672 -52.523  0.00  0.00     0.001 A 
ATOM     17  C   UNL d   1     -41.231-122.767 -53.457  0.00  0.00     0.000 A 
ATOM     18  C   UNL d   1     -41.927-121.494 -53.314  0.00  0.00     0.000 A 
ATOM     19  C   UNL d   1     -41.489-122.062 -53.798  0.00  0.00     0.000 A 
ENDROOT
TORSDOF 0
ENDMDL
