MODEL 1
REMARK VINA RESULT:      53.4      0.000      0.000
REMARK  8 active torsions:
REMARK  status: ('A' for Active; 'I' for Inactive)
REMARK    1  A    between atoms: C_9  and  S_1 
REMARK    2  A    between atoms: N_10  and  S_1 
REMARK    3  A    between atoms: C_17  and  C_3 
REMARK    4  A    between atoms: C_4  and  N_14 
REMARK    5  A    between atoms: C_8  and  C_16 
REMARK       I    between atoms: N_11  and  C_8 
REMARK    6  A    between atoms: C_27  and  N_10 
REMARK    7  A    between atoms: C_28  and  N_10 
REMARK    8  A    between atoms: N_14  and  N_11 
ROOT
ATOM      1  N   UNL d   1      46.382 -16.552  44.047  0.00  0.00     0.049 NA
ENDROOT
BRANCH   1   2
ATOM      2  C   UNL d   1      46.026 -15.766  44.172  0.00  0.00     0.768 A 
ATOM      3  N   UNL d   1      45.224 -15.704  44.337  0.00  0.00    -0.058 NA
ATOM      4  C   UNL d   1      44.896 -14.967  44.453  0.00  0.00     0.101 A 
ATOM      5  C   UNL d   1      45.347 -14.273  44.409  0.00  0.00     0.037 A 
ATOM      6  C   UNL d   1      46.160 -14.363  44.240  0.00  0.00     0.101 A 
ATOM      7  C   UNL d   1      45.025 -13.541  44.524  0.00  0.00     0.010 A 
ATOM      8  N   UNL d   1      46.506 -15.090  44.121  0.00  0.00    -0.058 NA
ATOM      9  C   UNL d   1      46.647 -13.692  44.187  0.00  0.00     0.020 A 
ATOM     10  C   UNL d   1      46.326 -12.960  44.301  0.00  0.00     0.008 A 
ATOM     11  C   UNL d   1      45.481 -12.870  44.477  0.00  0.00     0.035 A 
ATOM     12 BR   UNL d   1      45.129 -12.107  44.600  0.00  0.00    -0.049 Br
BRANCH   4  13
ATOM     13  C   UNL d   1      44.086 -14.868  44.622  0.00  0.00     0.018 A 
ATOM     14  C   UNL d   1      43.766 -14.137  44.744  0.00  0.00     0.002 A 
ATOM     15  C   UNL d   1      42.953 -14.047  44.913  0.00  0.00     0.000 A 
ATOM     16  C   UNL d   1      42.470 -14.746  44.955  0.00  0.00     0.000 A 
ATOM     17  C   UNL d   1      42.827 -15.476  44.826  0.00  0.00     0.000 A 
ATOM     18  C   UNL d   1      43.599 -15.545  44.667  0.00  0.00     0.002 A 
ENDBRANCH   4  13
ENDBRANCH   1   2
BRANCH   1  19
ATOM     19  N   UNL d   1      46.290 -17.145  44.619  0.00  0.00    -0.090 NA
ATOM     20  C   UNL d   1      46.252 -17.930  44.409  0.00  0.00     0.297 C 
ATOM     21  O   UNL d   1      46.164 -18.507  44.954  0.00  0.00    -0.264 OA
BRANCH  20  22
ATOM     22  C   UNL d   1      46.305 -18.136  43.625  0.00  0.00     0.059 A 
ATOM     23  C   UNL d   1      46.079 -18.899  43.401  0.00  0.00     0.006 A 
ATOM     24  C   UNL d   1      46.133 -19.103  42.612  0.00  0.00     0.013 A 
ATOM     25  C   UNL d   1      46.405 -18.558  42.073  0.00  0.00     0.104 A 
ATOM     26  C   UNL d   1      46.640 -17.776  42.289  0.00  0.00     0.013 A 
ATOM     27  C   UNL d   1      46.580 -17.582  43.092  0.00  0.00     0.006 A 
BRANCH  25  28
ATOM     28  S   UNL d   1      46.461 -18.772  41.256  0.00  0.00     0.271 S 
ATOM     29  O   UNL d   1      46.472 -17.975  41.029  0.00  0.00    -0.200 OA
ATOM     30  O   UNL d   1      46.452 -19.587  41.439  0.00  0.00    -0.200 OA
BRANCH  28  31
ATOM     31  N   UNL d   1      46.516 -18.985  40.433  0.00  0.00    -0.229 N 
BRANCH  31  32
ATOM     32  C   UNL d   1      46.443 -18.420  39.844  0.00  0.00     0.092 C 
ATOM     33  C   UNL d   1      45.717 -18.146  39.619  0.00  0.00     0.021 C 
ENDBRANCH  31  32
BRANCH  31  34
ATOM     34  C   UNL d   1      46.646 -19.769  40.211  0.00  0.00     0.092 C 
ATOM     35  C   UNL d   1      46.125 -20.143  39.692  0.00  0.00     0.021 C 
ENDBRANCH  31  34
ENDBRANCH  28  31
ENDBRANCH  25  28
ENDBRANCH  20  22
ENDBRANCH   1  19
TORSDOF 8
ENDMDL
MODEL 2
REMARK VINA RESULT:      53.6      3.176      6.061
REMARK  8 active torsions:
REMARK  status: ('A' for Active; 'I' for Inactive)
REMARK    1  A    between atoms: C_9  and  S_1 
REMARK    2  A    between atoms: N_10  and  S_1 
REMARK    3  A    between atoms: C_17  and  C_3 
REMARK    4  A    between atoms: C_4  and  N_14 
REMARK    5  A    between atoms: C_8  and  C_16 
REMARK       I    between atoms: N_11  and  C_8 
REMARK    6  A    between atoms: C_27  and  N_10 
REMARK    7  A    between atoms: C_28  and  N_10 
REMARK    8  A    between atoms: N_14  and  N_11 
ROOT
ATOM      1  N   UNL d   1      45.270 -17.525  39.305  0.00  0.00     0.049 NA
ENDROOT
BRANCH   1   2
ATOM      2  C   UNL d   1      44.955 -16.956  38.723  0.00  0.00     0.768 A 
ATOM      3  N   UNL d   1      45.465 -16.428  38.353  0.00  0.00    -0.058 NA
ATOM      4  C   UNL d   1      45.166 -15.899  37.811  0.00  0.00     0.101 A 
ATOM      5  C   UNL d   1      44.361 -15.875  37.617  0.00  0.00     0.037 A 
ATOM      6  C   UNL d   1      43.864 -16.422  38.007  0.00  0.00     0.101 A 
ATOM      7  C   UNL d   1      44.061 -15.352  37.080  0.00  0.00     0.010 A 
ATOM      8  N   UNL d   1      44.143 -16.958  38.552  0.00  0.00    -0.058 NA
ATOM      9  C   UNL d   1      43.050 -16.430  37.841  0.00  0.00     0.020 A 
ATOM     10  C   UNL d   1      42.750 -15.907  37.304  0.00  0.00     0.008 A 
ATOM     11  C   UNL d   1      43.269 -15.341  36.901  0.00  0.00     0.035 A 
ATOM     12 BR   UNL d   1      42.968 -14.785  36.334  0.00  0.00    -0.049 Br
BRANCH   4  13
ATOM     13  C   UNL d   1      45.655 -15.351  37.418  0.00  0.00     0.018 A 
ATOM     14  C   UNL d   1      45.699 -14.580  37.654  0.00  0.00     0.002 A 
ATOM     15  C   UNL d   1      46.192 -14.035  37.255  0.00  0.00     0.000 A 
ATOM     16  C   UNL d   1      46.646 -14.315  36.592  0.00  0.00     0.000 A 
ATOM     17  C   UNL d   1      46.578 -15.106  36.376  0.00  0.00     0.000 A 
ATOM     18  C   UNL d   1      46.106 -15.609  36.765  0.00  0.00     0.002 A 
ENDBRANCH   4  13
ENDBRANCH   1   2
BRANCH   1  19
ATOM     19  N   UNL d   1      45.545 -18.266  39.054  0.00  0.00    -0.090 NA
ATOM     20  C   UNL d   1      45.865 -18.796  39.582  0.00  0.00     0.297 C 
ATOM     21  O   UNL d   1      46.132 -19.512  39.349  0.00  0.00    -0.264 OA
BRANCH  20  22
ATOM     22  C   UNL d   1      45.914 -18.596  40.367  0.00  0.00     0.059 A 
ATOM     23  C   UNL d   1      46.599 -18.218  40.636  0.00  0.00     0.006 A 
ATOM     24  C   UNL d   1      46.646 -18.018  41.427  0.00  0.00     0.013 A 
ATOM     25  C   UNL d   1      46.026 -18.193  41.924  0.00  0.00     0.104 A 
ATOM     26  C   UNL d   1      45.322 -18.578  41.662  0.00  0.00     0.013 A 
ATOM     27  C   UNL d   1      45.287 -18.776  40.858  0.00  0.00     0.006 A 
BRANCH  25  28
ATOM     28  S   UNL d   1      46.078 -17.985  42.743  0.00  0.00     0.271 S 
ATOM     29  O   UNL d   1      46.433 -18.712  42.923  0.00  0.00    -0.200 OA
ATOM     30  O   UNL d   1      45.724 -17.241  42.607  0.00  0.00    -0.200 OA
BRANCH  28  31
ATOM     31  N   UNL d   1      46.132 -17.778  43.567  0.00  0.00    -0.229 N 
BRANCH  31  32
ATOM     32  C   UNL d   1      46.415 -18.313  44.120  0.00  0.00     0.092 C 
ATOM     33  C   UNL d   1      46.230 -18.239  44.903  0.00  0.00     0.021 C 
ENDBRANCH  31  32
BRANCH  31  34
ATOM     34  C   UNL d   1      45.899 -17.030  43.828  0.00  0.00     0.092 C 
ATOM     35  C   UNL d   1      45.452 -16.955  44.517  0.00  0.00     0.021 C 
ENDBRANCH  31  34
ENDBRANCH  28  31
ENDBRANCH  25  28
ENDBRANCH  20  22
ENDBRANCH   1  19
TORSDOF 8
ENDMDL
