MODEL 1
REMARK VINA RESULT:      -8.2      0.000      0.000
REMARK  3 active torsions:
REMARK  status: ('A' for Active; 'I' for Inactive)
REMARK    1  A    between atoms: S_3  and  N_1 
REMARK    2  A    between atoms: C_7  and  C_4 
REMARK    3  A    between atoms: C_11  and  C_5 
ROOT
ATOM      1  N   UNL d   1     -49.417  13.162  22.444  0.00  0.00    -0.155 N 
ATOM      2  N   UNL d   1     -48.866  12.554  22.435  0.00  0.00    -0.156 NA
ATOM      3  C   UNL d   1     -49.169  13.740  22.995  0.00  0.00     0.102 A 
ATOM      4  C   UNL d   1     -48.266  12.751  22.987  0.00  0.00     0.104 A 
ATOM      5  C   UNL d   1     -48.463  13.476  23.320  0.00  0.00     0.041 A 
ENDROOT
BRANCH   4   6
ATOM      6  C   UNL d   1     -47.591  12.296  23.165  0.00  0.00     0.019 A 
ATOM      7  C   UNL d   1     -47.681  11.542  23.510  0.00  0.00     0.002 A 
ATOM      8  C   UNL d   1     -47.005  11.084  23.690  0.00  0.00     0.000 A 
ATOM      9  C   UNL d   1     -46.248  11.379  23.525  0.00  0.00     0.000 A 
ATOM     10  C   UNL d   1     -46.181  12.126  23.184  0.00  0.00     0.000 A 
ATOM     11  C   UNL d   1     -45.607  10.939  23.698  0.00  0.00     0.000 C 
ATOM     12  C   UNL d   1     -46.834  12.591  23.000  0.00  0.00     0.002 A 
ENDBRANCH   4   6
BRANCH   1  13
ATOM     13  S   UNL d   1     -50.117  13.184  21.966  0.00  0.00     0.266 S 
ATOM     14  O   UNL d   1     -50.824  13.184  21.519  0.00  0.00    -0.203 OA
ATOM     15  O   UNL d   1     -49.741  13.669  21.424  0.00  0.00    -0.203 OA
ATOM     16  C   UNL d   1     -50.496  12.674  22.547  0.00  0.00     0.165 C 
ENDBRANCH   1  13
BRANCH   3  17
ATOM     17  C   UNL d   1     -49.578  14.450  23.170  0.00  0.00     0.048 A 
ATOM     18  S   UNL d   1     -49.408  15.196  22.839  0.00  0.00    -0.085 SA
ATOM     19  C   UNL d   1     -49.953  15.722  23.176  0.00  0.00     0.035 A 
ATOM     20  C   UNL d   1     -50.438  15.336  23.688  0.00  0.00     0.007 A 
ATOM     21  C   UNL d   1     -50.212  14.545  23.689  0.00  0.00     0.009 A 
ENDBRANCH   3  17
TORSDOF 3
ENDMDL
MODEL 2
REMARK VINA RESULT:      -7.6      1.334      1.762
REMARK  3 active torsions:
REMARK  status: ('A' for Active; 'I' for Inactive)
REMARK    1  A    between atoms: S_3  and  N_1 
REMARK    2  A    between atoms: C_7  and  C_4 
REMARK    3  A    between atoms: C_11  and  C_5 
ROOT
ATOM      1  N   UNL d   1     -48.525  13.923  22.907  0.00  0.00    -0.155 N 
ATOM      2  N   UNL d   1     -47.793  13.655  23.162  0.00  0.00    -0.156 NA
ATOM      3  C   UNL d   1     -48.951  13.278  22.587  0.00  0.00     0.102 A 
ATOM      4  C   UNL d   1     -47.757  12.833  23.001  0.00  0.00     0.104 A 
ATOM      5  C   UNL d   1     -48.469  12.617  22.651  0.00  0.00     0.041 A 
ENDROOT
BRANCH   4   6
ATOM      6  C   UNL d   1     -47.116  12.326  23.165  0.00  0.00     0.019 A 
ATOM      7  C   UNL d   1     -47.255  11.590  23.533  0.00  0.00     0.002 A 
ATOM      8  C   UNL d   1     -46.614  11.081  23.698  0.00  0.00     0.000 A 
ATOM      9  C   UNL d   1     -45.842  11.306  23.497  0.00  0.00     0.000 A 
ATOM     10  C   UNL d   1     -45.726  12.037  23.135  0.00  0.00     0.000 A 
ATOM     11  C   UNL d   1     -45.234  10.817  23.657  0.00  0.00     0.000 C 
ATOM     12  C   UNL d   1     -46.344  12.552  22.964  0.00  0.00     0.002 A 
ENDBRANCH   4   6
BRANCH   1  13
ATOM     13  S   UNL d   1     -48.792  14.726  22.966  0.00  0.00     0.266 S 
ATOM     14  O   UNL d   1     -49.036  15.525  22.994  0.00  0.00    -0.203 OA
ATOM     15  O   UNL d   1     -49.203  14.547  23.651  0.00  0.00    -0.203 OA
ATOM     16  C   UNL d   1     -48.353  14.896  22.245  0.00  0.00     0.165 C 
ENDBRANCH   1  13
BRANCH   3  17
ATOM     17  C   UNL d   1     -49.724  13.317  22.266  0.00  0.00     0.048 A 
ATOM     18  S   UNL d   1     -49.903  13.453  21.463  0.00  0.00    -0.085 SA
ATOM     19  C   UNL d   1     -50.730  13.445  21.414  0.00  0.00     0.035 A 
ATOM     20  C   UNL d   1     -51.056  13.312  22.137  0.00  0.00     0.007 A 
ATOM     21  C   UNL d   1     -50.436  13.232  22.672  0.00  0.00     0.009 A 
ENDBRANCH   3  17
TORSDOF 3
ENDMDL
MODEL 3
REMARK VINA RESULT:      -7.4      1.092      1.476
REMARK  3 active torsions:
REMARK  status: ('A' for Active; 'I' for Inactive)
REMARK    1  A    between atoms: S_3  and  N_1 
REMARK    2  A    between atoms: C_7  and  C_4 
REMARK    3  A    between atoms: C_11  and  C_5 
ROOT
ATOM      1  N   UNL d   1     -49.547  13.013  22.862  0.00  0.00    -0.155 N 
ATOM      2  N   UNL d   1     -48.808  12.665  22.796  0.00  0.00    -0.156 NA
ATOM      3  C   UNL d   1     -49.450  13.843  22.907  0.00  0.00     0.102 A 
ATOM      4  C   UNL d   1     -48.239  13.281  22.800  0.00  0.00     0.104 A 
ATOM      5  C   UNL d   1     -48.644  13.993  22.868  0.00  0.00     0.041 A 
ENDROOT
BRANCH   4   6
ATOM      6  C   UNL d   1     -47.413  13.189  22.745  0.00  0.00     0.019 A 
ATOM      7  C   UNL d   1     -46.964  13.740  22.307  0.00  0.00     0.002 A 
ATOM      8  C   UNL d   1     -46.135  13.649  22.251  0.00  0.00     0.000 A 
ATOM      9  C   UNL d   1     -45.760  13.014  22.629  0.00  0.00     0.000 A 
ATOM     10  C   UNL d   1     -46.221  12.481  23.056  0.00  0.00     0.000 A 
ATOM     11  C   UNL d   1     -44.970  12.932  22.572  0.00  0.00     0.000 C 
ATOM     12  C   UNL d   1     -47.038  12.553  23.123  0.00  0.00     0.002 A 
ENDBRANCH   4   6
BRANCH   1  13
ATOM     13  S   UNL d   1     -50.280  12.587  22.880  0.00  0.00     0.266 S 
ATOM     14  O   UNL d   1     -51.003  12.166  22.860  0.00  0.00    -0.203 OA
ATOM     15  O   UNL d   1     -50.287  12.617  23.698  0.00  0.00    -0.203 OA
ATOM     16  C   UNL d   1     -50.257  12.566  22.019  0.00  0.00     0.165 C 
ENDBRANCH   1  13
BRANCH   3  17
ATOM     17  C   UNL d   1     -50.071  14.401  22.979  0.00  0.00     0.048 A 
ATOM     18  S   UNL d   1     -50.345  14.723  23.698  0.00  0.00    -0.085 SA
ATOM     19  C   UNL d   1     -50.957  15.243  23.491  0.00  0.00     0.035 A 
ATOM     20  C   UNL d   1     -51.064  15.251  22.694  0.00  0.00     0.007 A 
ATOM     21  C   UNL d   1     -50.517  14.730  22.369  0.00  0.00     0.009 A 
ENDBRANCH   3  17
TORSDOF 3
ENDMDL
MODEL 4
REMARK VINA RESULT:      -6.6      9.463     10.531
REMARK  3 active torsions:
REMARK  status: ('A' for Active; 'I' for Inactive)
REMARK    1  A    between atoms: S_3  and  N_1 
REMARK    2  A    between atoms: C_7  and  C_4 
REMARK    3  A    between atoms: C_11  and  C_5 
ROOT
ATOM      1  N   UNL d   1     -40.155  14.846  18.223  0.00  0.00    -0.155 N 
ATOM      2  N   UNL d   1     -40.318  15.040  19.003  0.00  0.00    -0.156 NA
ATOM      3  C   UNL d   1     -39.348  14.636  18.161  0.00  0.00     0.102 A 
ATOM      4  C   UNL d   1     -39.605  14.951  19.438  0.00  0.00     0.104 A 
ATOM      5  C   UNL d   1     -39.023  14.704  18.912  0.00  0.00     0.041 A 
ENDROOT
BRANCH   4   6
ATOM      6  C   UNL d   1     -39.505  15.087  20.253  0.00  0.00     0.019 A 
ATOM      7  C   UNL d   1     -39.722  14.496  20.801  0.00  0.00     0.002 A 
ATOM      8  C   UNL d   1     -39.622  14.631  21.619  0.00  0.00     0.000 A 
ATOM      9  C   UNL d   1     -39.308  15.350  21.886  0.00  0.00     0.000 A 
ATOM     10  C   UNL d   1     -39.100  15.920  21.330  0.00  0.00     0.000 A 
ATOM     11  C   UNL d   1     -39.215  15.474  22.668  0.00  0.00     0.000 C 
ATOM     12  C   UNL d   1     -39.191  15.806  20.520  0.00  0.00     0.002 A 
ENDBRANCH   4   6
BRANCH   1  13
ATOM     13  S   UNL d   1     -40.724  14.861  17.595  0.00  0.00     0.266 S 
ATOM     14  O   UNL d   1     -41.279  14.913  16.971  0.00  0.00    -0.203 OA
ATOM     15  O   UNL d   1     -40.874  14.063  17.700  0.00  0.00    -0.203 OA
ATOM     16  C   UNL d   1     -40.554  15.700  17.498  0.00  0.00     0.165 C 
ENDBRANCH   1  13
BRANCH   3  17
ATOM     17  C   UNL d   1     -38.960  14.401  17.457  0.00  0.00     0.048 A 
ATOM     18  S   UNL d   1     -38.563  14.916  16.934  0.00  0.00    -0.085 SA
ATOM     19  C   UNL d   1     -38.272  14.436  16.324  0.00  0.00     0.035 A 
ATOM     20  C   UNL d   1     -38.470  13.667  16.450  0.00  0.00     0.007 A 
ATOM     21  C   UNL d   1     -38.899  13.637  17.152  0.00  0.00     0.009 A 
ENDBRANCH   3  17
TORSDOF 3
ENDMDL
MODEL 5
REMARK VINA RESULT:      -5.8      8.902     10.172
REMARK  3 active torsions:
REMARK  status: ('A' for Active; 'I' for Inactive)
REMARK    1  A    between atoms: S_3  and  N_1 
REMARK    2  A    between atoms: C_7  and  C_4 
REMARK    3  A    between atoms: C_11  and  C_5 
ROOT
ATOM      1  N   UNL d   1     -40.284  14.814  20.144  0.00  0.00    -0.155 N 
ATOM      2  N   UNL d   1     -40.285  14.730  19.328  0.00  0.00    -0.156 NA
ATOM      3  C   UNL d   1     -39.535  14.584  20.438  0.00  0.00     0.102 A 
ATOM      4  C   UNL d   1     -39.528  14.445  19.105  0.00  0.00     0.104 A 
ATOM      5  C   UNL d   1     -39.082  14.360  19.791  0.00  0.00     0.041 A 
ENDROOT
BRANCH   4   6
ATOM      6  C   UNL d   1     -39.274  14.277  18.330  0.00  0.00     0.019 A 
ATOM      7  C   UNL d   1     -39.151  14.902  17.791  0.00  0.00     0.002 A 
ATOM      8  C   UNL d   1     -38.895  14.735  17.013  0.00  0.00     0.000 A 
ATOM      9  C   UNL d   1     -38.765  13.951  16.777  0.00  0.00     0.000 A 
ATOM     10  C   UNL d   1     -38.892  13.349  17.324  0.00  0.00     0.000 A 
ATOM     11  C   UNL d   1     -38.522  13.798  16.035  0.00  0.00     0.000 C 
ATOM     12  C   UNL d   1     -39.143  13.493  18.094  0.00  0.00     0.002 A 
ENDBRANCH   4   6
BRANCH   1  13
ATOM     13  S   UNL d   1     -40.944  15.090  20.600  0.00  0.00     0.266 S 
ATOM     14  O   UNL d   1     -41.584  15.396  21.042  0.00  0.00    -0.203 OA
ATOM     15  O   UNL d   1     -41.167  14.318  20.759  0.00  0.00    -0.203 OA
ATOM     16  C   UNL d   1     -40.695  15.895  20.423  0.00  0.00     0.165 C 
ENDBRANCH   1  13
BRANCH   3  17
ATOM     17  C   UNL d   1     -39.308  14.587  21.244  0.00  0.00     0.048 A 
ATOM     18  S   UNL d   1     -38.928  15.220  21.632  0.00  0.00    -0.085 SA
ATOM     19  C   UNL d   1     -38.817  14.969  22.414  0.00  0.00     0.035 A 
ATOM     20  C   UNL d   1     -39.106  14.226  22.517  0.00  0.00     0.007 A 
ATOM     21  C   UNL d   1     -39.414  13.982  21.794  0.00  0.00     0.009 A 
ENDBRANCH   3  17
TORSDOF 3
ENDMDL
MODEL 6
REMARK VINA RESULT:      -5.6      9.393     10.625
REMARK  3 active torsions:
REMARK  status: ('A' for Active; 'I' for Inactive)
REMARK    1  A    between atoms: S_3  and  N_1 
REMARK    2  A    between atoms: C_7  and  C_4 
REMARK    3  A    between atoms: C_11  and  C_5 
ROOT
ATOM      1  N   UNL d   1     -38.985  14.780  19.964  0.00  0.00    -0.155 N 
ATOM      2  N   UNL d   1     -38.532  14.543  19.322  0.00  0.00    -0.156 NA
ATOM      3  C   UNL d   1     -39.773  14.895  19.708  0.00  0.00     0.102 A 
ATOM      4  C   UNL d   1     -39.039  14.508  18.656  0.00  0.00     0.104 A 
ATOM      5  C   UNL d   1     -39.792  14.724  18.905  0.00  0.00     0.041 A 
ENDROOT
BRANCH   4   6
ATOM      6  C   UNL d   1     -38.822  14.293  17.881  0.00  0.00     0.019 A 
ATOM      7  C   UNL d   1     -38.675  14.887  17.313  0.00  0.00     0.002 A 
ATOM      8  C   UNL d   1     -38.456  14.672  16.536  0.00  0.00     0.000 A 
ATOM      9  C   UNL d   1     -38.385  13.872  16.329  0.00  0.00     0.000 A 
ATOM     10  C   UNL d   1     -38.535  13.302  16.904  0.00  0.00     0.000 A 
ATOM     11  C   UNL d   1     -38.177  13.674  15.587  0.00  0.00     0.000 C 
ATOM     12  C   UNL d   1     -38.751  13.493  17.675  0.00  0.00     0.002 A 
ENDBRANCH   4   6
BRANCH   1  13
ATOM     13  S   UNL d   1     -38.687  14.887  20.750  0.00  0.00     0.266 S 
ATOM     14  O   UNL d   1     -38.382  15.026  21.517  0.00  0.00    -0.203 OA
ATOM     15  O   UNL d   1     -38.932  14.133  20.954  0.00  0.00    -0.203 OA
ATOM     16  C   UNL d   1     -38.436  15.678  20.519  0.00  0.00     0.165 C 
ENDBRANCH   1  13
BRANCH   3  17
ATOM     17  C   UNL d   1     -40.410  15.138  20.194  0.00  0.00     0.048 A 
ATOM     18  S   UNL d   1     -40.683  15.922  20.271  0.00  0.00    -0.085 SA
ATOM     19  C   UNL d   1     -41.315  15.889  20.806  0.00  0.00     0.035 A 
ATOM     20  C   UNL d   1     -41.437  15.133  21.053  0.00  0.00     0.007 A 
ATOM     21  C   UNL d   1     -40.878  14.660  20.677  0.00  0.00     0.009 A 
ENDBRANCH   3  17
TORSDOF 3
ENDMDL
