MODEL 1
REMARK VINA RESULT:      -5.3      0.000      0.000
REMARK  2 active torsions:
REMARK  status: ('A' for Active; 'I' for Inactive)
REMARK    1  A    between atoms: C_2  and  N_1 
REMARK    2  A    between atoms: O_12  and  C_10 
ROOT
ATOM      1  C   UNL d   1     -41.842-122.807 -50.702  0.00  0.00     0.072 A 
ATOM      2  C   UNL d   1     -41.814-123.394 -51.277  0.00  0.00     0.042 A 
ATOM      3  C   UNL d   1     -41.453-123.225 -51.998  0.00  0.00     0.096 A 
ATOM      4  C   UNL d   1     -41.513-122.063 -50.849  0.00  0.00     0.018 A 
ATOM      5  C   UNL d   1     -41.160-121.895 -51.551  0.00  0.00     0.004 A 
ATOM      6  C   UNL d   1     -41.123-122.486 -52.150  0.00  0.00     0.024 A 
ENDROOT
BRANCH   1   7
ATOM      7  N   UNL d   1     -42.204-122.975 -49.978  0.00  0.00    -0.242 N 
ATOM      8  C   UNL d   1     -41.881-123.388 -49.356  0.00  0.00     0.267 A 
ATOM      9  C   UNL d   1     -42.434-123.424 -48.745  0.00  0.00     0.066 A 
ATOM     10  O   UNL d   1     -41.124-123.718 -49.338  0.00  0.00    -0.267 OA
ATOM     11  C   UNL d   1     -43.115-123.021 -49.001  0.00  0.00     0.066 A 
ATOM     12  C   UNL d   1     -42.978-122.738 -49.769  0.00  0.00     0.267 A 
ATOM     13  O   UNL d   1     -43.505-122.311 -50.227  0.00  0.00    -0.267 OA
ENDBRANCH   1   7
BRANCH   3  14
ATOM     14  O   UNL d   1     -41.421-123.817 -52.586  0.00  0.00    -0.328 OA
ATOM     15  C   UNL d   1     -41.431-123.592 -53.366  0.00  0.00     0.181 C 
ENDBRANCH   3  14
TORSDOF 2
ENDMDL
MODEL 2
REMARK VINA RESULT:      -5.1      1.003      3.080
REMARK  2 active torsions:
REMARK  status: ('A' for Active; 'I' for Inactive)
REMARK    1  A    between atoms: C_2  and  N_1 
REMARK    2  A    between atoms: O_12  and  C_10 
ROOT
ATOM      1  C   UNL d   1     -41.899-122.701 -50.298  0.00  0.00     0.072 A 
ATOM      2  C   UNL d   1     -41.376-123.020 -49.750  0.00  0.00     0.042 A 
ATOM      3  C   UNL d   1     -41.653-123.200 -48.996  0.00  0.00     0.096 A 
ATOM      4  C   UNL d   1     -42.688-122.565 -50.091  0.00  0.00     0.018 A 
ATOM      5  C   UNL d   1     -42.962-122.740 -49.356  0.00  0.00     0.004 A 
ATOM      6  C   UNL d   1     -42.437-123.067 -48.784  0.00  0.00     0.024 A 
ENDROOT
BRANCH   1   7
ATOM      7  N   UNL d   1     -41.623-122.519 -51.056  0.00  0.00    -0.242 N 
ATOM      8  C   UNL d   1     -41.579-123.023 -51.692  0.00  0.00     0.267 A 
ATOM      9  C   UNL d   1     -41.271-122.612 -52.337  0.00  0.00     0.066 A 
ATOM     10  O   UNL d   1     -41.806-123.817 -51.693  0.00  0.00    -0.267 OA
ATOM     11  C   UNL d   1     -41.123-121.833 -52.088  0.00  0.00     0.066 A 
ATOM     12  C   UNL d   1     -41.340-121.768 -51.290  0.00  0.00     0.267 A 
ATOM     13  O   UNL d   1     -41.284-121.094 -50.827  0.00  0.00    -0.267 OA
ENDBRANCH   1   7
BRANCH   3  14
ATOM     14  O   UNL d   1     -41.126-123.524 -48.435  0.00  0.00    -0.328 OA
ATOM     15  C   UNL d   1     -41.198-123.302 -47.658  0.00  0.00     0.181 C 
ENDBRANCH   3  14
TORSDOF 2
ENDMDL
MODEL 3
REMARK VINA RESULT:      -4.7      1.884      3.773
REMARK  2 active torsions:
REMARK  status: ('A' for Active; 'I' for Inactive)
REMARK    1  A    between atoms: C_2  and  N_1 
REMARK    2  A    between atoms: O_12  and  C_10 
ROOT
ATOM      1  C   UNL d   1     -41.656-122.432 -53.183  0.00  0.00     0.072 A 
ATOM      2  C   UNL d   1     -41.851-123.086 -52.724  0.00  0.00     0.042 A 
ATOM      3  C   UNL d   1     -41.678-123.071 -51.919  0.00  0.00     0.096 A 
ATOM      4  C   UNL d   1     -41.293-121.774 -52.838  0.00  0.00     0.018 A 
ATOM      5  C   UNL d   1     -41.123-121.756 -52.052  0.00  0.00     0.004 A 
ATOM      6  C   UNL d   1     -41.316-122.419 -51.570  0.00  0.00     0.024 A 
ENDROOT
BRANCH   1   7
ATOM      7  N   UNL d   1     -41.829-122.445 -53.991  0.00  0.00    -0.242 N 
ATOM      8  C   UNL d   1     -41.589-123.002 -54.532  0.00  0.00     0.267 A 
ATOM      9  C   UNL d   1     -41.887-122.799 -55.274  0.00  0.00     0.066 A 
ATOM     10  O   UNL d   1     -41.123-123.663 -54.367  0.00  0.00    -0.267 OA
ATOM     11  C   UNL d   1     -42.322-122.097 -55.183  0.00  0.00     0.066 A 
ATOM     12  C   UNL d   1     -42.291-121.870 -54.386  0.00  0.00     0.267 A 
ATOM     13  O   UNL d   1     -42.646-121.209 -54.057  0.00  0.00    -0.267 OA
ENDBRANCH   1   7
BRANCH   3  14
ATOM     14  O   UNL d   1     -41.873-123.732 -51.448  0.00  0.00    -0.328 OA
ATOM     15  C   UNL d   1     -41.888-123.645 -50.641  0.00  0.00     0.181 C 
ENDBRANCH   3  14
TORSDOF 2
ENDMDL
MODEL 4
REMARK VINA RESULT:      -3.7      1.100      1.477
REMARK  2 active torsions:
REMARK  status: ('A' for Active; 'I' for Inactive)
REMARK    1  A    between atoms: C_2  and  N_1 
REMARK    2  A    between atoms: O_12  and  C_10 
ROOT
ATOM      1  C   UNL d   1     -42.186-123.213 -50.136  0.00  0.00     0.072 A 
ATOM      2  C   UNL d   1     -42.115-122.420 -50.342  0.00  0.00     0.042 A 
ATOM      3  C   UNL d   1     -41.869-122.230 -51.105  0.00  0.00     0.096 A 
ATOM      4  C   UNL d   1     -42.012-123.804 -50.688  0.00  0.00     0.018 A 
ATOM      5  C   UNL d   1     -41.773-123.622 -51.433  0.00  0.00     0.004 A 
ATOM      6  C   UNL d   1     -41.696-122.814 -51.658  0.00  0.00     0.024 A 
ENDROOT
BRANCH   1   7
ATOM      7  N   UNL d   1     -42.432-123.407 -49.371  0.00  0.00    -0.242 N 
ATOM      8  C   UNL d   1     -41.957-123.523 -48.722  0.00  0.00     0.267 A 
ATOM      9  C   UNL d   1     -42.433-123.706 -48.073  0.00  0.00     0.066 A 
ATOM     10  O   UNL d   1     -41.133-123.468 -48.711  0.00  0.00    -0.267 OA
ATOM     11  C   UNL d   1     -43.222-123.701 -48.334  0.00  0.00     0.066 A 
ATOM     12  C   UNL d   1     -43.229-123.515 -49.142  0.00  0.00     0.267 A 
ATOM     13  O   UNL d   1     -43.893-123.452 -49.618  0.00  0.00    -0.267 OA
ENDBRANCH   1   7
BRANCH   3  14
ATOM     14  O   UNL d   1     -41.796-121.427 -51.320  0.00  0.00    -0.328 OA
ATOM     15  C   UNL d   1     -41.307-121.232 -51.939  0.00  0.00     0.181 C 
ENDBRANCH   3  14
TORSDOF 2
ENDMDL
