MODEL 1
REMARK VINA RESULT:      16.3      0.000      0.000
REMARK  2 active torsions:
REMARK  status: ('A' for Active; 'I' for Inactive)
REMARK    1  A    between atoms: C_5  and  C_1 
REMARK    2  A    between atoms: C_7  and  C_5 
ROOT
ATOM      1  C   UNL d   1      13.626  12.638  -2.615  0.00  0.00     0.061 A 
ATOM      2  C   UNL d   1      14.021  13.344  -2.643  0.00  0.00     0.102 A 
ATOM      3  N   UNL d   1      14.026  13.614  -3.428  0.00  0.00    -0.244 NA
ATOM      4  C   UNL d   1      13.378  12.455  -3.374  0.00  0.00     0.022 A 
ATOM      5  C   UNL d   1      13.624  13.055  -3.874  0.00  0.00     0.082 A 
ATOM      6  C   UNL d   1      12.955  11.808  -3.669  0.00  0.00     0.002 A 
ATOM      7  C   UNL d   1      13.454  13.025  -4.683  0.00  0.00     0.019 A 
ATOM      8  C   UNL d   1      12.785  11.779  -4.476  0.00  0.00     0.000 A 
ATOM      9  C   UNL d   1      13.031  12.379  -4.977  0.00  0.00     0.002 A 
ENDROOT
BRANCH   1  10
ATOM     10  C   UNL d   1      13.498  12.179  -1.912  0.00  0.00     0.215 C 
ATOM     11  O   UNL d   1      12.790  11.780  -1.808  0.00  0.00    -0.285 OA
BRANCH  10  12
ATOM     12  C   UNL d   1      14.102  12.145  -1.340  0.00  0.00     0.120 A 
ATOM     13  N   UNL d   1      14.828  11.806  -1.533  0.00  0.00    -0.241 NA
ATOM     14  C   UNL d   1      15.418  11.779  -0.956  0.00  0.00     0.099 A 
ATOM     15  C   UNL d   1      15.279  12.087  -0.202  0.00  0.00     0.021 A 
ATOM     16  C   UNL d   1      14.554  12.420  -0.024  0.00  0.00     0.003 A 
ATOM     17  C   UNL d   1      13.967  12.451  -0.585  0.00  0.00     0.022 A 
ENDBRANCH  10  12
ENDBRANCH   1  10
TORSDOF 2
ENDMDL
