MODEL 1
REMARK VINA RESULT:      37.9      0.000      0.000
REMARK  3 active torsions:
REMARK  status: ('A' for Active; 'I' for Inactive)
REMARK    1  A    between atoms: C_7  and  C_4 
REMARK    2  A    between atoms: C_8  and  C_7 
REMARK    3  A    between atoms: C_11  and  C_8 
ROOT
ATOM      1  N   UNL d   1      57.411  49.640  51.132  0.00  0.00    -0.269 N 
ATOM      2  C   UNL d   1      58.226  49.661  51.253  0.00  0.00     0.282 A 
ATOM      3  N   UNL d   1      58.433  49.646  49.844  0.00  0.00    -0.239 NA
ATOM      4  C   UNL d   1      58.736  49.663  50.611  0.00  0.00     0.138 A 
ATOM      5  C   UNL d   1      57.108  49.622  50.365  0.00  0.00     0.085 A 
ATOM      6  C   UNL d   1      57.618  49.625  49.723  0.00  0.00     0.098 A 
ATOM      7  O   UNL d   1      58.529  49.679  52.020  0.00  0.00    -0.265 OA
ATOM      8  C   UNL d   1      57.363  49.653  52.117  0.00  0.00     0.102 C 
ATOM      9  C   UNL d   1      56.292  49.601  50.244  0.00  0.00     0.019 A 
ATOM     10  C   UNL d   1      57.314  49.607  48.956  0.00  0.00     0.021 A 
ATOM     11  C   UNL d   1      56.033  49.585  49.512  0.00  0.00     0.002 A 
ATOM     12  C   UNL d   1      56.543  49.588  48.870  0.00  0.00     0.002 A 
ENDROOT
BRANCH   4  13
ATOM     13  C   UNL d   1      59.551  49.684  50.733  0.00  0.00     0.024 C 
BRANCH  13  14
ATOM     14  C   UNL d   1      59.872  49.395  51.435  0.00  0.00     0.002 C 
BRANCH  14  15
ATOM     15  C   UNL d   1      60.683  49.450  51.573  0.00  0.00     0.000 A 
ATOM     16  C   UNL d   1      61.196  49.629  50.951  0.00  0.00     0.000 A 
ATOM     17  C   UNL d   1      62.007  49.684  51.088  0.00  0.00     0.000 A 
ATOM     18  C   UNL d   1      62.307  49.560  51.846  0.00  0.00     0.000 A 
ATOM     19  C   UNL d   1      61.795  49.380  52.468  0.00  0.00     0.000 A 
ATOM     20  C   UNL d   1      60.983  49.325  52.331  0.00  0.00     0.000 A 
ENDBRANCH  14  15
ENDBRANCH  13  14
ENDBRANCH   4  13
TORSDOF 3
ENDMDL
