MODEL 1
REMARK VINA RESULT:      -3.1      0.000      0.000
REMARK  1 active torsions:
REMARK  status: ('A' for Active; 'I' for Inactive)
REMARK    1  A    between atoms: C_14  and  C_6 
ROOT
ATOM      1  C   UNL d   1     -41.434-121.628 -52.112  0.00  0.00     0.174 A 
ATOM      2  N   UNL d   1     -41.342-122.057 -51.413  0.00  0.00    -0.250 N 
ATOM      3  C   UNL d   1     -41.558-122.007 -52.839  0.00  0.00     0.061 A 
ATOM      4  C   UNL d   1     -41.588-122.831 -52.864  0.00  0.00     0.115 A 
ATOM      5  N   UNL d   1     -41.495-123.245 -52.160  0.00  0.00    -0.221 NA
ATOM      6  C   UNL d   1     -41.373-122.881 -51.438  0.00  0.00     0.151 A 
ATOM      7  N   UNL d   1     -41.375-120.779 -51.902  0.00  0.00    -0.128 NA
ATOM      8  C   UNL d   1     -41.221-121.506 -50.739  0.00  0.00     0.228 A 
ATOM      9  S   UNL d   1     -41.709-123.195 -53.580  0.00  0.00    -0.068 SA
ATOM     10  C   UNL d   1     -41.769-121.958 -54.238  0.00  0.00     0.011 A 
ATOM     11  C   UNL d   1     -41.800-122.782 -54.262  0.00  0.00     0.031 A 
ATOM     12  N   UNL d   1     -41.248-120.722 -51.079  0.00  0.00    -0.117 NA
ATOM     13  S   UNL d   1     -41.125-121.764 -50.051  0.00  0.00    -0.036 SA
ATOM     14  C   UNL d   1     -41.864-121.528 -54.952  0.00  0.00     0.001 A 
ATOM     15  C   UNL d   1     -41.924-123.145 -55.000  0.00  0.00     0.006 A 
ATOM     16  C   UNL d   1     -41.984-121.907 -55.663  0.00  0.00     0.000 A 
ATOM     17  C   UNL d   1     -42.015-122.732 -55.688  0.00  0.00     0.001 A 
ENDROOT
BRANCH   6  18
ATOM     18  C   UNL d   1     -41.303-123.258 -50.896  0.00  0.00     0.037 C 
ATOM     19  C   UNL d   1     -41.615-123.796 -50.676  0.00  0.00     0.003 C 
ENDBRANCH   6  18
TORSDOF 1
ENDMDL
MODEL 2
REMARK VINA RESULT:      -2.2      1.563      3.973
REMARK  1 active torsions:
REMARK  status: ('A' for Active; 'I' for Inactive)
REMARK    1  A    between atoms: C_14  and  C_6 
ROOT
ATOM      1  C   UNL d   1     -41.540-121.814 -51.272  0.00  0.00     0.174 A 
ATOM      2  N   UNL d   1     -41.440-122.105 -52.038  0.00  0.00    -0.250 N 
ATOM      3  C   UNL d   1     -41.734-122.316 -50.641  0.00  0.00     0.061 A 
ATOM      4  C   UNL d   1     -41.829-123.123 -50.783  0.00  0.00     0.115 A 
ATOM      5  N   UNL d   1     -41.726-123.398 -51.550  0.00  0.00    -0.221 NA
ATOM      6  C   UNL d   1     -41.535-122.912 -52.180  0.00  0.00     0.151 A 
ATOM      7  N   UNL d   1     -41.403-120.949 -51.306  0.00  0.00    -0.128 NA
ATOM      8  C   UNL d   1     -41.239-121.445 -52.583  0.00  0.00     0.228 A 
ATOM      9  S   UNL d   1     -42.019-123.607 -50.159  0.00  0.00    -0.068 SA
ATOM     10  C   UNL d   1     -42.021-122.522 -49.271  0.00  0.00     0.011 A 
ATOM     11  C   UNL d   1     -42.117-123.329 -49.413  0.00  0.00     0.031 A 
ATOM     12  N   UNL d   1     -41.224-120.743 -52.095  0.00  0.00    -0.117 NA
ATOM     13  S   UNL d   1     -41.123-121.571 -53.304  0.00  0.00    -0.036 SA
ATOM     14  C   UNL d   1     -42.124-122.233 -48.490  0.00  0.00     0.001 A 
ATOM     15  C   UNL d   1     -42.311-123.817 -48.768  0.00  0.00     0.006 A 
ATOM     16  C   UNL d   1     -42.315-122.733 -47.874  0.00  0.00     0.000 A 
ATOM     17  C   UNL d   1     -42.410-123.540 -48.016  0.00  0.00     0.001 A 
ENDROOT
BRANCH   6  18
ATOM     18  C   UNL d   1     -41.463-123.180 -52.782  0.00  0.00     0.037 C 
ATOM     19  C   UNL d   1     -41.442-123.802 -53.001  0.00  0.00     0.003 C 
ENDBRANCH   6  18
TORSDOF 1
ENDMDL
MODEL 3
REMARK VINA RESULT:      -2.0      1.355      1.646
REMARK  1 active torsions:
REMARK  status: ('A' for Active; 'I' for Inactive)
REMARK    1  A    between atoms: C_14  and  C_6 
ROOT
ATOM      1  C   UNL d   1     -42.637-122.419 -50.983  0.00  0.00     0.174 A 
ATOM      2  N   UNL d   1     -42.268-122.682 -50.293  0.00  0.00    -0.250 N 
ATOM      3  C   UNL d   1     -42.258-122.466 -51.720  0.00  0.00     0.061 A 
ATOM      4  C   UNL d   1     -41.496-122.780 -51.762  0.00  0.00     0.115 A 
ATOM      5  N   UNL d   1     -41.142-123.037 -51.066  0.00  0.00    -0.221 NA
ATOM      6  C   UNL d   1     -41.506-122.996 -50.336  0.00  0.00     0.151 A 
ATOM      7  N   UNL d   1     -43.428-122.121 -50.755  0.00  0.00    -0.128 NA
ATOM      8  C   UNL d   1     -42.803-122.562 -49.606  0.00  0.00     0.228 A 
ATOM      9  S   UNL d   1     -41.133-122.822 -52.487  0.00  0.00    -0.068 SA
ATOM     10  C   UNL d   1     -42.248-122.254 -53.119  0.00  0.00     0.011 A 
ATOM     11  C   UNL d   1     -41.487-122.568 -53.161  0.00  0.00     0.031 A 
ATOM     12  N   UNL d   1     -43.513-122.212 -49.930  0.00  0.00    -0.117 NA
ATOM     13  S   UNL d   1     -42.592-122.756 -48.923  0.00  0.00    -0.036 SA
ATOM     14  C   UNL d   1     -42.617-121.989 -53.825  0.00  0.00     0.001 A 
ATOM     15  C   UNL d   1     -41.123-122.607 -53.908  0.00  0.00     0.006 A 
ATOM     16  C   UNL d   1     -42.238-122.038 -54.546  0.00  0.00     0.000 A 
ATOM     17  C   UNL d   1     -41.477-122.352 -54.588  0.00  0.00     0.001 A 
ENDROOT
BRANCH   6  18
ATOM     18  C   UNL d   1     -41.181-123.216 -49.801  0.00  0.00     0.037 C 
ATOM     19  C   UNL d   1     -41.137-123.807 -49.510  0.00  0.00     0.003 C 
ENDBRANCH   6  18
TORSDOF 1
ENDMDL
