MODEL 1
REMARK VINA RESULT:      -4.3      0.000      0.000
REMARK  10 active torsions:
REMARK  status: ('A' for Active; 'I' for Inactive)
REMARK    1  A    between atoms: C_8  and  S_1 
REMARK    2  A    between atoms: N_18  and  S_1 
REMARK    3  A    between atoms: S_2  and  C_9 
REMARK    4  A    between atoms: N_19  and  S_2 
REMARK    5  A    between atoms: C_23  and  N_18 
REMARK    6  A    between atoms: C_24  and  N_19 
REMARK    7  A    between atoms: C_27  and  C_23 
REMARK    8  A    between atoms: C_28  and  C_24 
REMARK    9  A    between atoms: O_25  and  C_27 
REMARK   10  A    between atoms: O_26  and  C_28 
ROOT
ATOM      1  C   UNL d   1     -46.947  13.230  22.638  0.00  0.00     0.040 A 
ATOM      2  C   UNL d   1     -45.660  13.111  22.255  0.00  0.00     0.040 A 
ATOM      3  C   UNL d   1     -46.310  13.639  22.276  0.00  0.00     0.196 A 
ATOM      4  C   UNL d   1     -45.931  12.409  22.603  0.00  0.00     0.003 A 
ATOM      5  C   UNL d   1     -46.722  12.492  22.835  0.00  0.00     0.003 A 
ATOM      6  C   UNL d   1     -48.252  12.971  23.166  0.00  0.00     0.105 A 
ATOM      7  C   UNL d   1     -44.379  12.543  22.039  0.00  0.00     0.105 A 
ATOM      8  C   UNL d   1     -47.721  13.486  22.800  0.00  0.00     0.016 A 
ATOM      9  C   UNL d   1     -44.894  13.188  21.972  0.00  0.00     0.016 A 
ATOM     10  C   UNL d   1     -45.393  11.766  22.661  0.00  0.00     0.001 A 
ATOM     11  C   UNL d   1     -47.253  11.981  23.199  0.00  0.00     0.001 A 
ATOM     12  O   UNL d   1     -46.313  14.417  21.991  0.00  0.00    -0.287 OA
ATOM     13  C   UNL d   1     -44.622  11.838  22.379  0.00  0.00     0.013 A 
ATOM     14  C   UNL d   1     -48.012  12.232  23.358  0.00  0.00     0.013 A 
ENDROOT
BRANCH   6  15
ATOM     15  S   UNL d   1     -49.039  13.234  23.330  0.00  0.00     0.285 S 
ATOM     16  O   UNL d   1     -49.349  12.547  22.944  0.00  0.00    -0.198 OA
ATOM     17  O   UNL d   1     -48.712  13.889  23.698  0.00  0.00    -0.198 OA
BRANCH  15  18
ATOM     18  N   UNL d   1     -49.797  13.489  23.490  0.00  0.00    -0.155 NA
BRANCH  18  19
ATOM     19  C   UNL d   1     -50.022  14.286  23.377  0.00  0.00     0.138 C 
BRANCH  19  20
ATOM     20  C   UNL d   1     -50.791  14.540  23.535  0.00  0.00     0.138 C 
BRANCH  20  21
ATOM     21  O   UNL d   1     -51.061  15.240  23.241  0.00  0.00    -0.325 OA
ATOM     22  C   UNL d   1     -51.028  15.922  23.687  0.00  0.00     0.182 C 
ENDBRANCH  20  21
ENDBRANCH  19  20
ENDBRANCH  18  19
ENDBRANCH  15  18
ENDBRANCH   6  15
BRANCH   7  23
ATOM     23  S   UNL d   1     -43.585  12.594  21.757  0.00  0.00     0.285 S 
ATOM     24  O   UNL d   1     -43.313  12.236  22.472  0.00  0.00    -0.198 OA
ATOM     25  O   UNL d   1     -43.878  12.950  21.053  0.00  0.00    -0.198 OA
BRANCH  23  26
ATOM     26  N   UNL d   1     -42.823  12.647  21.478  0.00  0.00    -0.155 NA
BRANCH  26  27
ATOM     27  C   UNL d   1     -42.490  13.382  21.303  0.00  0.00     0.138 C 
BRANCH  27  28
ATOM     28  C   UNL d   1     -41.704  13.446  21.150  0.00  0.00     0.138 C 
BRANCH  28  29
ATOM     29  O   UNL d   1     -41.359  14.207  21.067  0.00  0.00    -0.325 OA
ATOM     30  C   UNL d   1     -40.685  14.324  20.638  0.00  0.00     0.182 C 
ENDBRANCH  28  29
ENDBRANCH  27  28
ENDBRANCH  26  27
ENDBRANCH  23  26
ENDBRANCH   7  23
TORSDOF 10
ENDMDL
MODEL 2
REMARK VINA RESULT:      -3.8      0.517      6.155
REMARK  10 active torsions:
REMARK  status: ('A' for Active; 'I' for Inactive)
REMARK    1  A    between atoms: C_8  and  S_1 
REMARK    2  A    between atoms: N_18  and  S_1 
REMARK    3  A    between atoms: S_2  and  C_9 
REMARK    4  A    between atoms: N_19  and  S_2 
REMARK    5  A    between atoms: C_23  and  N_18 
REMARK    6  A    between atoms: C_24  and  N_19 
REMARK    7  A    between atoms: C_27  and  C_23 
REMARK    8  A    between atoms: C_28  and  C_24 
REMARK    9  A    between atoms: O_25  and  C_27 
REMARK   10  A    between atoms: O_26  and  C_28 
ROOT
ATOM      1  C   UNL d   1     -45.445  12.982  22.224  0.00  0.00     0.040 A 
ATOM      2  C   UNL d   1     -46.723  13.038  22.648  0.00  0.00     0.040 A 
ATOM      3  C   UNL d   1     -46.142  13.448  22.204  0.00  0.00     0.196 A 
ATOM      4  C   UNL d   1     -46.354  12.347  22.915  0.00  0.00     0.003 A 
ATOM      5  C   UNL d   1     -45.570  12.321  22.650  0.00  0.00     0.003 A 
ATOM      6  C   UNL d   1     -44.096  12.569  21.981  0.00  0.00     0.105 A 
ATOM      7  C   UNL d   1     -47.934  12.675  23.289  0.00  0.00     0.105 A 
ATOM      8  C   UNL d   1     -44.702  13.120  21.880  0.00  0.00     0.016 A 
ATOM      9  C   UNL d   1     -47.505  13.210  22.827  0.00  0.00     0.016 A 
ATOM     10  C   UNL d   1     -46.807  11.814  23.383  0.00  0.00     0.001 A 
ATOM     11  C   UNL d   1     -44.965  11.773  22.750  0.00  0.00     0.001 A 
ATOM     12  O   UNL d   1     -46.247  14.175  21.822  0.00  0.00    -0.287 OA
ATOM     13  C   UNL d   1     -47.593  11.982  23.566  0.00  0.00     0.013 A 
ATOM     14  C   UNL d   1     -44.236  11.908  22.412  0.00  0.00     0.013 A 
ENDROOT
BRANCH   6  15
ATOM     15  S   UNL d   1     -43.341  12.712  21.630  0.00  0.00     0.285 S 
ATOM     16  O   UNL d   1     -42.997  12.791  22.399  0.00  0.00    -0.198 OA
ATOM     17  O   UNL d   1     -43.699  12.631  20.897  0.00  0.00    -0.198 OA
BRANCH  15  18
ATOM     18  N   UNL d   1     -42.613  12.850  21.288  0.00  0.00    -0.155 NA
BRANCH  18  19
ATOM     19  C   UNL d   1     -42.276  13.614  21.271  0.00  0.00     0.138 C 
BRANCH  19  20
ATOM     20  C   UNL d   1     -41.538  13.749  20.928  0.00  0.00     0.138 C 
BRANCH  20  21
ATOM     21  O   UNL d   1     -41.350  14.474  20.630  0.00  0.00    -0.325 OA
ATOM     22  C   UNL d   1     -40.596  14.774  20.703  0.00  0.00     0.182 C 
ENDBRANCH  20  21
ENDBRANCH  19  20
ENDBRANCH  18  19
ENDBRANCH  15  18
ENDBRANCH   6  15
BRANCH   7  23
ATOM     23  S   UNL d   1     -48.741  12.826  23.489  0.00  0.00     0.285 S 
ATOM     24  O   UNL d   1     -48.535  13.618  23.698  0.00  0.00    -0.198 OA
ATOM     25  O   UNL d   1     -48.922  12.033  23.275  0.00  0.00    -0.198 OA
BRANCH  23  26
ATOM     26  N   UNL d   1     -49.519  12.963  23.679  0.00  0.00    -0.155 NA
BRANCH  26  27
ATOM     27  C   UNL d   1     -49.914  13.623  23.380  0.00  0.00     0.138 C 
BRANCH  27  28
ATOM     28  C   UNL d   1     -50.712  13.686  23.449  0.00  0.00     0.138 C 
BRANCH  28  29
ATOM     29  O   UNL d   1     -51.064  14.445  23.515  0.00  0.00    -0.325 OA
ATOM     30  C   UNL d   1     -51.025  14.985  22.917  0.00  0.00     0.182 C 
ENDBRANCH  28  29
ENDBRANCH  27  28
ENDBRANCH  26  27
ENDBRANCH  23  26
ENDBRANCH   7  23
TORSDOF 10
ENDMDL
MODEL 3
REMARK VINA RESULT:      -2.5      1.625      6.540
REMARK  10 active torsions:
REMARK  status: ('A' for Active; 'I' for Inactive)
REMARK    1  A    between atoms: C_8  and  S_1 
REMARK    2  A    between atoms: N_18  and  S_1 
REMARK    3  A    between atoms: S_2  and  C_9 
REMARK    4  A    between atoms: N_19  and  S_2 
REMARK    5  A    between atoms: C_23  and  N_18 
REMARK    6  A    between atoms: C_24  and  N_19 
REMARK    7  A    between atoms: C_27  and  C_23 
REMARK    8  A    between atoms: C_28  and  C_24 
REMARK    9  A    between atoms: O_25  and  C_27 
REMARK   10  A    between atoms: O_26  and  C_28 
ROOT
ATOM      1  C   UNL d   1     -44.197  12.554  22.073  0.00  0.00     0.040 A 
ATOM      2  C   UNL d   1     -45.403  12.255  22.595  0.00  0.00     0.040 A 
ATOM      3  C   UNL d   1     -44.622  11.969  22.499  0.00  0.00     0.196 A 
ATOM      4  C   UNL d   1     -45.417  12.997  22.226  0.00  0.00     0.003 A 
ATOM      5  C   UNL d   1     -44.672  13.172  21.909  0.00  0.00     0.003 A 
ATOM      6  C   UNL d   1     -43.114  13.213  21.408  0.00  0.00     0.105 A 
ATOM      7  C   UNL d   1     -46.769  12.376  22.955  0.00  0.00     0.105 A 
ATOM      8  C   UNL d   1     -43.404  12.562  21.825  0.00  0.00     0.016 A 
ATOM      9  C   UNL d   1     -46.067  11.938  22.959  0.00  0.00     0.016 A 
ATOM     10  C   UNL d   1     -46.140  13.426  22.233  0.00  0.00     0.001 A 
ATOM     11  C   UNL d   1     -44.381  13.818  21.494  0.00  0.00     0.001 A 
ATOM     12  O   UNL d   1     -44.333  11.243  22.775  0.00  0.00    -0.287 OA
ATOM     13  C   UNL d   1     -46.810  13.113  22.597  0.00  0.00     0.013 A 
ATOM     14  C   UNL d   1     -43.603  13.827  21.250  0.00  0.00     0.013 A 
ENDROOT
BRANCH   6  15
ATOM     15  S   UNL d   1     -42.307  13.218  21.157  0.00  0.00     0.285 S 
ATOM     16  O   UNL d   1     -42.055  13.257  21.964  0.00  0.00    -0.198 OA
ATOM     17  O   UNL d   1     -42.578  13.181  20.384  0.00  0.00    -0.198 OA
BRANCH  15  18
ATOM     18  N   UNL d   1     -41.529  13.224  20.911  0.00  0.00    -0.155 NA
BRANCH  18  19
ATOM     19  C   UNL d   1     -41.179  13.909  20.586  0.00  0.00     0.138 C 
BRANCH  19  20
ATOM     20  C   UNL d   1     -40.359  13.999  20.558  0.00  0.00     0.138 C 
BRANCH  20  21
ATOM     21  O   UNL d   1     -40.027  14.617  20.161  0.00  0.00    -0.325 OA
ATOM     22  C   UNL d   1     -39.313  14.532  19.777  0.00  0.00     0.182 C 
ENDBRANCH  20  21
ENDBRANCH  19  20
ENDBRANCH  18  19
ENDBRANCH  15  18
ENDBRANCH   6  15
BRANCH   7  23
ATOM     23  S   UNL d   1     -47.468  12.075  23.322  0.00  0.00     0.285 S 
ATOM     24  O   UNL d   1     -47.346  11.334  22.934  0.00  0.00    -0.198 OA
ATOM     25  O   UNL d   1     -47.569  12.821  23.698  0.00  0.00    -0.198 OA
BRANCH  23  26
ATOM     26  N   UNL d   1     -48.141  11.793  23.679  0.00  0.00    -0.155 NA
BRANCH  26  27
ATOM     27  C   UNL d   1     -48.879  11.899  23.325  0.00  0.00     0.138 C 
BRANCH  27  28
ATOM     28  C   UNL d   1     -49.525  11.511  23.607  0.00  0.00     0.138 C 
BRANCH  28  29
ATOM     29  O   UNL d   1     -50.279  11.665  23.272  0.00  0.00    -0.325 OA
ATOM     30  C   UNL d   1     -50.871  12.012  23.697  0.00  0.00     0.182 C 
ENDBRANCH  28  29
ENDBRANCH  27  28
ENDBRANCH  26  27
ENDBRANCH  23  26
ENDBRANCH   7  23
TORSDOF 10
ENDMDL
MODEL 4
REMARK VINA RESULT:      -2.5      3.142      8.552
REMARK  10 active torsions:
REMARK  status: ('A' for Active; 'I' for Inactive)
REMARK    1  A    between atoms: C_8  and  S_1 
REMARK    2  A    between atoms: N_18  and  S_1 
REMARK    3  A    between atoms: S_2  and  C_9 
REMARK    4  A    between atoms: N_19  and  S_2 
REMARK    5  A    between atoms: C_23  and  N_18 
REMARK    6  A    between atoms: C_24  and  N_19 
REMARK    7  A    between atoms: C_27  and  C_23 
REMARK    8  A    between atoms: C_28  and  C_24 
REMARK    9  A    between atoms: O_25  and  C_27 
REMARK   10  A    between atoms: O_26  and  C_28 
ROOT
ATOM      1  C   UNL d   1     -40.422  14.270  19.249  0.00  0.00     0.040 A 
ATOM      2  C   UNL d   1     -41.454  13.847  20.005  0.00  0.00     0.040 A 
ATOM      3  C   UNL d   1     -41.229  14.043  19.222  0.00  0.00     0.196 A 
ATOM      4  C   UNL d   1     -40.778  13.964  20.468  0.00  0.00     0.003 A 
ATOM      5  C   UNL d   1     -40.149  14.224  19.995  0.00  0.00     0.003 A 
ATOM      6  C   UNL d   1     -39.135  14.714  18.807  0.00  0.00     0.105 A 
ATOM      7  C   UNL d   1     -42.198  13.443  21.142  0.00  0.00     0.105 A 
ATOM      8  C   UNL d   1     -39.918  14.518  18.636  0.00  0.00     0.016 A 
ATOM      9  C   UNL d   1     -42.163  13.590  20.329  0.00  0.00     0.016 A 
ATOM     10  C   UNL d   1     -40.834  13.810  21.293  0.00  0.00     0.001 A 
ATOM     11  C   UNL d   1     -39.369  14.420  20.163  0.00  0.00     0.001 A 
ATOM     12  O   UNL d   1     -41.719  14.014  18.555  0.00  0.00    -0.287 OA
ATOM     13  C   UNL d   1     -41.543  13.551  21.623  0.00  0.00     0.013 A 
ATOM     14  C   UNL d   1     -38.874  14.663  19.562  0.00  0.00     0.013 A 
ENDROOT
BRANCH   6  15
ATOM     15  S   UNL d   1     -38.624  14.965  18.182  0.00  0.00     0.285 S 
ATOM     16  O   UNL d   1     -38.376  14.165  18.063  0.00  0.00    -0.198 OA
ATOM     17  O   UNL d   1     -38.881  15.731  18.319  0.00  0.00    -0.198 OA
BRANCH  15  18
ATOM     18  N   UNL d   1     -38.132  15.211  17.580  0.00  0.00    -0.155 NA
BRANCH  18  19
ATOM     19  C   UNL d   1     -38.435  15.490  16.854  0.00  0.00     0.138 C 
BRANCH  19  20
ATOM     20  C   UNL d   1     -37.941  15.811  16.277  0.00  0.00     0.138 C 
BRANCH  20  21
ATOM     21  O   UNL d   1     -38.204  15.920  15.523  0.00  0.00    -0.325 OA
ATOM     22  C   UNL d   1     -37.940  15.446  14.915  0.00  0.00     0.182 C 
ENDBRANCH  20  21
ENDBRANCH  19  20
ENDBRANCH  18  19
ENDBRANCH  15  18
ENDBRANCH   6  15
BRANCH   7  23
ATOM     23  S   UNL d   1     -42.915  13.177  21.502  0.00  0.00     0.285 S 
ATOM     24  O   UNL d   1     -43.086  13.971  21.736  0.00  0.00    -0.198 OA
ATOM     25  O   UNL d   1     -42.723  12.395  21.259  0.00  0.00    -0.198 OA
BRANCH  23  26
ATOM     26  N   UNL d   1     -43.602  12.913  21.846  0.00  0.00    -0.155 NA
BRANCH  26  27
ATOM     27  C   UNL d   1     -44.335  13.182  21.580  0.00  0.00     0.138 C 
BRANCH  27  28
ATOM     28  C   UNL d   1     -45.010  12.802  21.793  0.00  0.00     0.138 C 
BRANCH  28  29
ATOM     29  O   UNL d   1     -45.499  13.129  22.392  0.00  0.00    -0.325 OA
ATOM     30  C   UNL d   1     -46.049  12.685  22.782  0.00  0.00     0.182 C 
ENDBRANCH  28  29
ENDBRANCH  27  28
ENDBRANCH  26  27
ENDBRANCH  23  26
ENDBRANCH   7  23
TORSDOF 10
ENDMDL
MODEL 5
REMARK VINA RESULT:      -2.1      1.912      3.068
REMARK  10 active torsions:
REMARK  status: ('A' for Active; 'I' for Inactive)
REMARK    1  A    between atoms: C_8  and  S_1 
REMARK    2  A    between atoms: N_18  and  S_1 
REMARK    3  A    between atoms: S_2  and  C_9 
REMARK    4  A    between atoms: N_19  and  S_2 
REMARK    5  A    between atoms: C_23  and  N_18 
REMARK    6  A    between atoms: C_24  and  N_19 
REMARK    7  A    between atoms: C_27  and  C_23 
REMARK    8  A    between atoms: C_28  and  C_24 
REMARK    9  A    between atoms: O_25  and  C_27 
REMARK   10  A    between atoms: O_26  and  C_28 
ROOT
ATOM      1  C   UNL d   1     -44.359  12.527  22.202  0.00  0.00     0.040 A 
ATOM      2  C   UNL d   1     -43.163  12.840  21.664  0.00  0.00     0.040 A 
ATOM      3  C   UNL d   1     -43.585  12.236  22.063  0.00  0.00     0.196 A 
ATOM      4  C   UNL d   1     -43.698  13.467  21.580  0.00  0.00     0.003 A 
ATOM      5  C   UNL d   1     -44.429  13.266  21.913  0.00  0.00     0.003 A 
ATOM      6  C   UNL d   1     -45.719  12.572  22.643  0.00  0.00     0.105 A 
ATOM      7  C   UNL d   1     -42.148  13.579  21.007  0.00  0.00     0.105 A 
ATOM      8  C   UNL d   1     -45.006  12.164  22.575  0.00  0.00     0.016 A 
ATOM      9  C   UNL d   1     -42.393  12.885  21.384  0.00  0.00     0.016 A 
ATOM     10  C   UNL d   1     -43.429  14.164  21.194  0.00  0.00     0.001 A 
ATOM     11  C   UNL d   1     -45.141  13.671  21.982  0.00  0.00     0.001 A 
ATOM     12  O   UNL d   1     -43.284  11.494  22.275  0.00  0.00    -0.287 OA
ATOM     13  C   UNL d   1     -42.656  14.215  20.910  0.00  0.00     0.013 A 
ATOM     14  C   UNL d   1     -45.776  13.315  22.349  0.00  0.00     0.013 A 
ENDROOT
BRANCH   6  15
ATOM     15  S   UNL d   1     -46.377  12.200  23.024  0.00  0.00     0.285 S 
ATOM     16  O   UNL d   1     -46.531  11.755  22.321  0.00  0.00    -0.198 OA
ATOM     17  O   UNL d   1     -46.204  12.644  23.691  0.00  0.00    -0.198 OA
BRANCH  15  18
ATOM     18  N   UNL d   1     -47.010  11.843  23.393  0.00  0.00    -0.155 NA
BRANCH  18  19
ATOM     19  C   UNL d   1     -47.793  11.958  23.125  0.00  0.00     0.138 C 
BRANCH  19  20
ATOM     20  C   UNL d   1     -48.437  11.645  23.536  0.00  0.00     0.138 C 
BRANCH  20  21
ATOM     21  O   UNL d   1     -49.128  11.485  23.156  0.00  0.00    -0.325 OA
ATOM     22  C   UNL d   1     -49.802  11.916  23.312  0.00  0.00     0.182 C 
ENDBRANCH  20  21
ENDBRANCH  19  20
ENDBRANCH  18  19
ENDBRANCH  15  18
ENDBRANCH   6  15
BRANCH   7  23
ATOM     23  S   UNL d   1     -41.361  13.654  20.709  0.00  0.00     0.285 S 
ATOM     24  O   UNL d   1     -41.649  13.517  19.927  0.00  0.00    -0.198 OA
ATOM     25  O   UNL d   1     -41.096  13.787  21.496  0.00  0.00    -0.198 OA
BRANCH  23  26
ATOM     26  N   UNL d   1     -40.601  13.726  20.430  0.00  0.00    -0.155 NA
BRANCH  26  27
ATOM     27  C   UNL d   1     -40.305  14.463  20.205  0.00  0.00     0.138 C 
BRANCH  27  28
ATOM     28  C   UNL d   1     -39.574  14.526  19.878  0.00  0.00     0.138 C 
BRANCH  28  29
ATOM     29  O   UNL d   1     -39.147  15.245  19.951  0.00  0.00    -0.325 OA
ATOM     30  C   UNL d   1     -38.755  15.573  19.325  0.00  0.00     0.182 C 
ENDBRANCH  28  29
ENDBRANCH  27  28
ENDBRANCH  26  27
ENDBRANCH  23  26
ENDBRANCH   7  23
TORSDOF 10
ENDMDL
