MODEL 1
REMARK VINA RESULT:      -7.6      0.000      0.000
REMARK  5 active torsions:
REMARK  status: ('A' for Active; 'I' for Inactive)
REMARK    1  A    between atoms: C_7  and  C_3 
REMARK    2  A    between atoms: C_8  and  C_7 
REMARK       I    between atoms: N_14  and  C_8 
REMARK    3  A    between atoms: N_9  and  C_16 
REMARK    4  A    between atoms: C_15  and  N_14 
REMARK    5  A    between atoms: C_16  and  C_15 
ROOT
ATOM      1  C   UNL d   1     -48.581  11.603  23.127  0.00  0.00     0.281 C 
ATOM      2  O   UNL d   1     -48.491  11.343  22.350  0.00  0.00    -0.265 OA
ATOM      3  N   UNL d   1     -49.228  12.069  23.333  0.00  0.00    -0.205 NA
ENDROOT
BRANCH   1   4
ATOM      4  C   UNL d   1     -48.025  11.399  23.698  0.00  0.00     0.082 C 
BRANCH   4   5
ATOM      5  C   UNL d   1     -47.235  11.627  23.608  0.00  0.00     0.096 A 
ATOM      6  C   UNL d   1     -47.052  12.413  23.433  0.00  0.00     0.082 A 
ATOM      7  C   UNL d   1     -46.264  12.655  23.340  0.00  0.00     0.285 A 
ATOM      8  N   UNL d   1     -45.669  12.089  23.427  0.00  0.00    -0.152 NA
ATOM      9  O   UNL d   1     -46.082  13.432  23.167  0.00  0.00    -0.265 OA
ATOM     10  C   UNL d   1     -45.852  11.304  23.602  0.00  0.00     0.371 A 
ATOM     11  N   UNL d   1     -46.631  11.077  23.691  0.00  0.00    -0.191 NA
ATOM     12  O   UNL d   1     -45.246  10.748  23.686  0.00  0.00    -0.242 OA
ENDBRANCH   4   5
ENDBRANCH   1   4
BRANCH   3  13
ATOM     13  C   UNL d   1     -49.784  12.274  22.763  0.00  0.00     0.121 C 
BRANCH  13  14
ATOM     14  C   UNL d   1     -50.466  12.698  22.977  0.00  0.00     0.101 C 
BRANCH  14  15
ATOM     15  N   UNL d   1     -50.666  13.398  22.598  0.00  0.00    -0.298 N 
ATOM     16  C   UNL d   1     -50.699  14.089  23.047  0.00  0.00     0.107 A 
ATOM     17  C   UNL d   1     -50.902  14.804  22.667  0.00  0.00     0.142 A 
ATOM     18  O   UNL d   1     -51.064  14.813  21.864  0.00  0.00    -0.300 OA
ATOM     19  C   UNL d   1     -51.026  14.110  21.433  0.00  0.00     0.142 A 
ATOM     20  C   UNL d   1     -50.827  13.405  21.803  0.00  0.00     0.107 A 
ENDBRANCH  14  15
ENDBRANCH  13  14
ENDBRANCH   3  13
TORSDOF 5
ENDMDL
MODEL 2
REMARK VINA RESULT:      -7.4      1.637      2.229
REMARK  5 active torsions:
REMARK  status: ('A' for Active; 'I' for Inactive)
REMARK    1  A    between atoms: C_7  and  C_3 
REMARK    2  A    between atoms: C_8  and  C_7 
REMARK       I    between atoms: N_14  and  C_8 
REMARK    3  A    between atoms: N_9  and  C_16 
REMARK    4  A    between atoms: C_15  and  N_14 
REMARK    5  A    between atoms: C_16  and  C_15 
ROOT
ATOM      1  C   UNL d   1     -46.946  13.396  22.491  0.00  0.00     0.281 C 
ATOM      2  O   UNL d   1     -47.112  13.098  21.739  0.00  0.00    -0.265 OA
ATOM      3  N   UNL d   1     -47.546  13.458  23.051  0.00  0.00    -0.205 NA
ENDROOT
BRANCH   1   4
ATOM      4  C   UNL d   1     -46.181  13.631  22.681  0.00  0.00     0.082 C 
BRANCH   4   5
ATOM      5  C   UNL d   1     -45.550  13.105  22.584  0.00  0.00     0.096 A 
ATOM      6  C   UNL d   1     -44.991  13.238  21.992  0.00  0.00     0.082 A 
ATOM      7  C   UNL d   1     -44.353  12.718  21.885  0.00  0.00     0.285 A 
ATOM      8  N   UNL d   1     -44.294  12.064  22.386  0.00  0.00    -0.152 NA
ATOM      9  O   UNL d   1     -43.800  12.850  21.299  0.00  0.00    -0.265 OA
ATOM     10  C   UNL d   1     -44.853  11.931  22.977  0.00  0.00     0.371 A 
ATOM     11  N   UNL d   1     -45.477  12.450  23.074  0.00  0.00    -0.191 NA
ATOM     12  O   UNL d   1     -44.781  11.272  23.471  0.00  0.00    -0.242 OA
ENDBRANCH   4   5
ENDBRANCH   1   4
BRANCH   3  13
ATOM     13  C   UNL d   1     -48.311  13.223  22.861  0.00  0.00     0.121 C 
BRANCH  13  14
ATOM     14  C   UNL d   1     -48.944  13.416  23.363  0.00  0.00     0.101 C 
BRANCH  14  15
ATOM     15  N   UNL d   1     -49.654  13.006  23.327  0.00  0.00    -0.298 N 
ATOM     16  C   UNL d   1     -49.698  12.268  23.693  0.00  0.00     0.107 A 
ATOM     17  C   UNL d   1     -50.417  11.846  23.660  0.00  0.00     0.142 A 
ATOM     18  O   UNL d   1     -51.064  12.163  23.269  0.00  0.00    -0.300 OA
ATOM     19  C   UNL d   1     -50.999  12.903  22.910  0.00  0.00     0.142 A 
ATOM     20  C   UNL d   1     -50.293  13.321  22.941  0.00  0.00     0.107 A 
ENDBRANCH  14  15
ENDBRANCH  13  14
ENDBRANCH   3  13
TORSDOF 5
ENDMDL
MODEL 3
REMARK VINA RESULT:      -7.3      1.612      1.950
REMARK  5 active torsions:
REMARK  status: ('A' for Active; 'I' for Inactive)
REMARK    1  A    between atoms: C_7  and  C_3 
REMARK    2  A    between atoms: C_8  and  C_7 
REMARK       I    between atoms: N_14  and  C_8 
REMARK    3  A    between atoms: N_9  and  C_16 
REMARK    4  A    between atoms: C_15  and  N_14 
REMARK    5  A    between atoms: C_16  and  C_15 
ROOT
ATOM      1  C   UNL d   1     -46.990  13.726  22.503  0.00  0.00     0.281 C 
ATOM      2  O   UNL d   1     -47.141  13.336  21.792  0.00  0.00    -0.265 OA
ATOM      3  N   UNL d   1     -47.614  14.029  22.947  0.00  0.00    -0.205 NA
ENDROOT
BRANCH   1   4
ATOM      4  C   UNL d   1     -46.217  13.814  22.769  0.00  0.00     0.082 C 
BRANCH   4   5
ATOM      5  C   UNL d   1     -45.694  13.174  22.741  0.00  0.00     0.096 A 
ATOM      6  C   UNL d   1     -45.056  13.187  22.218  0.00  0.00     0.082 A 
ATOM      7  C   UNL d   1     -44.525  12.551  22.180  0.00  0.00     0.285 A 
ATOM      8  N   UNL d   1     -44.651  11.906  22.680  0.00  0.00    -0.152 NA
ATOM      9  O   UNL d   1     -43.893  12.563  21.662  0.00  0.00    -0.265 OA
ATOM     10  C   UNL d   1     -45.289  11.893  23.203  0.00  0.00     0.371 A 
ATOM     11  N   UNL d   1     -45.806  12.525  23.231  0.00  0.00    -0.191 NA
ATOM     12  O   UNL d   1     -45.404  11.241  23.697  0.00  0.00    -0.242 OA
ENDBRANCH   4   5
ENDBRANCH   1   4
BRANCH   3  13
ATOM     13  C   UNL d   1     -48.388  13.941  22.681  0.00  0.00     0.121 C 
BRANCH  13  14
ATOM     14  C   UNL d   1     -49.024  14.045  23.205  0.00  0.00     0.101 C 
BRANCH  14  15
ATOM     15  N   UNL d   1     -49.704  14.442  22.972  0.00  0.00    -0.298 N 
ATOM     16  C   UNL d   1     -49.838  15.198  23.275  0.00  0.00     0.107 A 
ATOM     17  C   UNL d   1     -50.527  15.606  23.042  0.00  0.00     0.142 A 
ATOM     18  O   UNL d   1     -51.057  15.259  22.522  0.00  0.00    -0.300 OA
ATOM     19  C   UNL d   1     -50.904  14.502  22.231  0.00  0.00     0.142 A 
ATOM     20  C   UNL d   1     -50.227  14.097  22.458  0.00  0.00     0.107 A 
ENDBRANCH  14  15
ENDBRANCH  13  14
ENDBRANCH   3  13
TORSDOF 5
ENDMDL
MODEL 4
REMARK VINA RESULT:      -6.9      0.931      4.705
REMARK  5 active torsions:
REMARK  status: ('A' for Active; 'I' for Inactive)
REMARK    1  A    between atoms: C_7  and  C_3 
REMARK    2  A    between atoms: C_8  and  C_7 
REMARK       I    between atoms: N_14  and  C_8 
REMARK    3  A    between atoms: N_9  and  C_16 
REMARK    4  A    between atoms: C_15  and  N_14 
REMARK    5  A    between atoms: C_16  and  C_15 
ROOT
ATOM      1  C   UNL d   1     -49.327  12.432  22.673  0.00  0.00     0.281 C 
ATOM      2  O   UNL d   1     -49.103  12.338  21.885  0.00  0.00    -0.265 OA
ATOM      3  N   UNL d   1     -48.814  12.207  23.277  0.00  0.00    -0.205 NA
ENDROOT
BRANCH   1   4
ATOM      4  C   UNL d   1     -50.062  12.752  22.857  0.00  0.00     0.082 C 
BRANCH   4   5
ATOM      5  C   UNL d   1     -50.217  13.550  22.707  0.00  0.00     0.096 A 
ATOM      6  C   UNL d   1     -50.562  13.775  21.993  0.00  0.00     0.082 A 
ATOM      7  C   UNL d   1     -50.722  14.573  21.830  0.00  0.00     0.285 A 
ATOM      8  N   UNL d   1     -50.526  15.135  22.403  0.00  0.00    -0.152 NA
ATOM      9  O   UNL d   1     -51.064  14.795  21.123  0.00  0.00    -0.265 OA
ATOM     10  C   UNL d   1     -50.181  14.910  23.117  0.00  0.00     0.371 A 
ATOM     11  N   UNL d   1     -50.028  14.122  23.267  0.00  0.00    -0.191 NA
ATOM     12  O   UNL d   1     -49.990  15.483  23.681  0.00  0.00    -0.242 OA
ENDBRANCH   4   5
ENDBRANCH   1   4
BRANCH   3  13
ATOM     13  C   UNL d   1     -48.078  11.888  23.092  0.00  0.00     0.121 C 
BRANCH  13  14
ATOM     14  C   UNL d   1     -47.573  11.627  23.697  0.00  0.00     0.101 C 
BRANCH  14  15
ATOM     15  N   UNL d   1     -46.763  11.567  23.576  0.00  0.00    -0.298 N 
ATOM     16  C   UNL d   1     -46.353  12.239  23.329  0.00  0.00     0.107 A 
ATOM     17  C   UNL d   1     -45.531  12.184  23.204  0.00  0.00     0.142 A 
ATOM     18  O   UNL d   1     -45.141  11.472  23.327  0.00  0.00    -0.300 OA
ATOM     19  C   UNL d   1     -45.569  10.812  23.574  0.00  0.00     0.142 A 
ATOM     20  C   UNL d   1     -46.380  10.863  23.698  0.00  0.00     0.107 A 
ENDBRANCH  14  15
ENDBRANCH  13  14
ENDBRANCH   3  13
TORSDOF 5
ENDMDL
MODEL 5
REMARK VINA RESULT:      -6.6      0.948      4.545
REMARK  5 active torsions:
REMARK  status: ('A' for Active; 'I' for Inactive)
REMARK    1  A    between atoms: C_7  and  C_3 
REMARK    2  A    between atoms: C_8  and  C_7 
REMARK       I    between atoms: N_14  and  C_8 
REMARK    3  A    between atoms: N_9  and  C_16 
REMARK    4  A    between atoms: C_15  and  N_14 
REMARK    5  A    between atoms: C_16  and  C_15 
ROOT
ATOM      1  C   UNL d   1     -49.200  11.797  23.112  0.00  0.00     0.281 C 
ATOM      2  O   UNL d   1     -49.082  11.262  22.495  0.00  0.00    -0.265 OA
ATOM      3  N   UNL d   1     -48.553  12.130  23.498  0.00  0.00    -0.205 NA
ENDROOT
BRANCH   1   4
ATOM      4  C   UNL d   1     -49.963  12.000  23.342  0.00  0.00     0.082 C 
BRANCH   4   5
ATOM      5  C   UNL d   1     -50.326  12.673  23.027  0.00  0.00     0.096 A 
ATOM      6  C   UNL d   1     -50.498  13.314  23.517  0.00  0.00     0.082 A 
ATOM      7  C   UNL d   1     -50.862  13.995  23.213  0.00  0.00     0.285 A 
ATOM      8  N   UNL d   1     -51.047  14.013  22.408  0.00  0.00    -0.152 NA
ATOM      9  O   UNL d   1     -51.033  14.630  23.698  0.00  0.00    -0.265 OA
ATOM     10  C   UNL d   1     -50.874  13.372  21.918  0.00  0.00     0.371 A 
ATOM     11  N   UNL d   1     -50.516  12.707  22.228  0.00  0.00    -0.191 NA
ATOM     12  O   UNL d   1     -51.064  13.404  21.115  0.00  0.00    -0.242 OA
ENDBRANCH   4   5
ENDBRANCH   1   4
BRANCH   3  13
ATOM     13  C   UNL d   1     -47.789  11.928  23.269  0.00  0.00     0.121 C 
BRANCH  13  14
ATOM     14  C   UNL d   1     -47.135  12.245  23.669  0.00  0.00     0.101 C 
BRANCH  14  15
ATOM     15  N   UNL d   1     -46.414  12.349  23.289  0.00  0.00    -0.298 N 
ATOM     16  C   UNL d   1     -46.258  13.082  22.943  0.00  0.00     0.107 A 
ATOM     17  C   UNL d   1     -45.528  13.194  22.555  0.00  0.00     0.142 A 
ATOM     18  O   UNL d   1     -44.981  12.584  22.522  0.00  0.00    -0.300 OA
ATOM     19  C   UNL d   1     -45.157  11.859  22.874  0.00  0.00     0.142 A 
ATOM     20  C   UNL d   1     -45.874  11.745  23.257  0.00  0.00     0.107 A 
ENDBRANCH  14  15
ENDBRANCH  13  14
ENDBRANCH   3  13
TORSDOF 5
ENDMDL
MODEL 6
REMARK VINA RESULT:      -6.1      9.572     10.639
REMARK  5 active torsions:
REMARK  status: ('A' for Active; 'I' for Inactive)
REMARK    1  A    between atoms: C_7  and  C_3 
REMARK    2  A    between atoms: C_8  and  C_7 
REMARK       I    between atoms: N_14  and  C_8 
REMARK    3  A    between atoms: N_9  and  C_16 
REMARK    4  A    between atoms: C_15  and  N_14 
REMARK    5  A    between atoms: C_16  and  C_15 
ROOT
ATOM      1  C   UNL d   1     -40.104  14.274  19.144  0.00  0.00     0.281 C 
ATOM      2  O   UNL d   1     -40.739  14.684  19.474  0.00  0.00    -0.265 OA
ATOM      3  N   UNL d   1     -39.441  14.102  19.601  0.00  0.00    -0.205 NA
ENDROOT
BRANCH   1   4
ATOM      4  C   UNL d   1     -40.133  14.035  18.357  0.00  0.00     0.082 C 
BRANCH   4   5
ATOM      5  C   UNL d   1     -40.210  14.597  17.756  0.00  0.00     0.096 A 
ATOM      6  C   UNL d   1     -39.540  14.978  17.461  0.00  0.00     0.082 A 
ATOM      7  C   UNL d   1     -39.603  15.544  16.858  0.00  0.00     0.285 A 
ATOM      8  N   UNL d   1     -40.355  15.716  16.561  0.00  0.00    -0.152 NA
ATOM      9  O   UNL d   1     -38.940  15.921  16.566  0.00  0.00    -0.265 OA
ATOM     10  C   UNL d   1     -41.025  15.335  16.855  0.00  0.00     0.371 A 
ATOM     11  N   UNL d   1     -40.950  14.779  17.449  0.00  0.00    -0.191 NA
ATOM     12  O   UNL d   1     -41.770  15.516  16.548  0.00  0.00    -0.242 OA
ENDBRANCH   4   5
ENDBRANCH   1   4
BRANCH   3  13
ATOM     13  C   UNL d   1     -39.412  14.341  20.388  0.00  0.00     0.121 C 
BRANCH  13  14
ATOM     14  C   UNL d   1     -38.780  14.108  20.872  0.00  0.00     0.101 C 
BRANCH  14  15
ATOM     15  N   UNL d   1     -38.784  14.261  21.679  0.00  0.00    -0.298 N 
ATOM     16  C   UNL d   1     -38.843  13.623  22.198  0.00  0.00     0.107 A 
ATOM     17  C   UNL d   1     -38.848  13.772  23.018  0.00  0.00     0.142 A 
ATOM     18  O   UNL d   1     -38.795  14.541  23.298  0.00  0.00    -0.300 OA
ATOM     19  C   UNL d   1     -38.737  15.166  22.762  0.00  0.00     0.142 A 
ATOM     20  C   UNL d   1     -38.732  15.022  21.953  0.00  0.00     0.107 A 
ENDBRANCH  14  15
ENDBRANCH  13  14
ENDBRANCH   3  13
TORSDOF 5
ENDMDL
