MODEL 1
REMARK VINA RESULT:      -5.6      0.000      0.000
REMARK  8 active torsions:
REMARK  status: ('A' for Active; 'I' for Inactive)
REMARK    1  A    between atoms: N_6  and  C_1 
REMARK    2  A    between atoms: N_7  and  C_2 
REMARK       I    between atoms: C_8  and  N_6 
REMARK       I    between atoms: C_9  and  N_7 
REMARK    3  A    between atoms: C_14  and  C_8 
REMARK    4  A    between atoms: C_15  and  C_9 
REMARK    5  A    between atoms: O_12  and  C_14 
REMARK    6  A    between atoms: C_16  and  O_12 
REMARK    7  A    between atoms: O_13  and  C_15 
REMARK    8  A    between atoms: C_17  and  O_13 
ROOT
ATOM      1  C   UNL d   1     -47.255  12.626  23.025  0.00  0.00     0.232 A 
ATOM      2  C   UNL d   1     -46.558  12.489  23.445  0.00  0.00     0.232 A 
ATOM      3  N   UNL d   1     -47.300  13.449  22.898  0.00  0.00    -0.081 NA
ATOM      4  N   UNL d   1     -46.187  13.199  23.573  0.00  0.00    -0.081 NA
ATOM      5  O   UNL d   1     -46.623  13.788  23.248  0.00  0.00    -0.103 OA
ENDROOT
BRANCH   1   6
ATOM      6  N   UNL d   1     -47.742  11.990  22.821  0.00  0.00    -0.182 NA
ATOM      7  C   UNL d   1     -48.561  12.109  22.740  0.00  0.00     0.306 C 
ATOM      8  O   UNL d   1     -49.063  11.486  22.537  0.00  0.00    -0.263 OA
BRANCH   7   9
ATOM      9  C   UNL d   1     -48.880  12.870  22.867  0.00  0.00     0.185 C 
BRANCH   9  10
ATOM     10  O   UNL d   1     -49.696  12.959  22.978  0.00  0.00    -0.300 OA
BRANCH  10  11
ATOM     11  C   UNL d   1     -50.038  13.709  22.969  0.00  0.00     0.100 A 
ATOM     12  C   UNL d   1     -50.244  14.064  23.688  0.00  0.00     0.025 A 
ATOM     13  C   UNL d   1     -50.585  14.815  23.682  0.00  0.00     0.002 A 
ATOM     14  C   UNL d   1     -50.722  15.209  22.977  0.00  0.00     0.000 A 
ATOM     15  C   UNL d   1     -50.516  14.852  22.254  0.00  0.00     0.002 A 
ATOM     16  C   UNL d   1     -50.170  14.094  22.254  0.00  0.00     0.025 A 
ENDBRANCH  10  11
ENDBRANCH   9  10
ENDBRANCH   7   9
ENDBRANCH   1   6
BRANCH   2  17
ATOM     17  N   UNL d   1     -46.285  11.731  23.697  0.00  0.00    -0.182 NA
ATOM     18  C   UNL d   1     -45.552  11.442  23.447  0.00  0.00     0.306 C 
ATOM     19  O   UNL d   1     -45.300  10.708  23.698  0.00  0.00    -0.263 OA
BRANCH  18  20
ATOM     20  C   UNL d   1     -45.074  11.909  22.937  0.00  0.00     0.185 C 
BRANCH  20  21
ATOM     21  O   UNL d   1     -44.374  11.614  22.627  0.00  0.00    -0.300 OA
BRANCH  21  22
ATOM     22  C   UNL d   1     -43.901  12.102  22.157  0.00  0.00     0.100 A 
ATOM     23  C   UNL d   1     -44.213  12.569  21.558  0.00  0.00     0.025 A 
ATOM     24  C   UNL d   1     -43.775  13.063  21.075  0.00  0.00     0.002 A 
ATOM     25  C   UNL d   1     -42.948  13.073  21.225  0.00  0.00     0.000 A 
ATOM     26  C   UNL d   1     -42.624  12.610  21.823  0.00  0.00     0.002 A 
ATOM     27  C   UNL d   1     -43.090  12.122  22.294  0.00  0.00     0.025 A 
ENDBRANCH  21  22
ENDBRANCH  20  21
ENDBRANCH  18  20
ENDBRANCH   2  17
TORSDOF 8
ENDMDL
MODEL 2
REMARK VINA RESULT:      -5.3      1.436      5.650
REMARK  8 active torsions:
REMARK  status: ('A' for Active; 'I' for Inactive)
REMARK    1  A    between atoms: N_6  and  C_1 
REMARK    2  A    between atoms: N_7  and  C_2 
REMARK       I    between atoms: C_8  and  N_6 
REMARK       I    between atoms: C_9  and  N_7 
REMARK    3  A    between atoms: C_14  and  C_8 
REMARK    4  A    between atoms: C_15  and  C_9 
REMARK    5  A    between atoms: O_12  and  C_14 
REMARK    6  A    between atoms: C_16  and  O_12 
REMARK    7  A    between atoms: O_13  and  C_15 
REMARK    8  A    between atoms: C_17  and  O_13 
ROOT
ATOM      1  C   UNL d   1     -46.255  13.105  22.818  0.00  0.00     0.232 A 
ATOM      2  C   UNL d   1     -46.832  13.637  23.072  0.00  0.00     0.232 A 
ATOM      3  N   UNL d   1     -46.462  12.360  23.133  0.00  0.00    -0.081 NA
ATOM      4  N   UNL d   1     -47.374  13.239  23.526  0.00  0.00    -0.081 NA
ATOM      5  O   UNL d   1     -47.163  12.466  23.572  0.00  0.00    -0.103 OA
ENDROOT
BRANCH   1   6
ATOM      6  N   UNL d   1     -45.633  13.369  22.343  0.00  0.00    -0.182 NA
ATOM      7  C   UNL d   1     -44.957  12.896  22.249  0.00  0.00     0.306 C 
ATOM      8  O   UNL d   1     -44.326  13.145  21.778  0.00  0.00    -0.263 OA
BRANCH   7   9
ATOM      9  C   UNL d   1     -44.916  12.158  22.637  0.00  0.00     0.185 C 
BRANCH   9  10
ATOM     10  O   UNL d   1     -44.178  11.852  22.858  0.00  0.00    -0.300 OA
BRANCH  10  11
ATOM     11  C   UNL d   1     -44.115  11.080  23.139  0.00  0.00     0.100 A 
ATOM     12  C   UNL d   1     -43.373  10.713  23.141  0.00  0.00     0.025 A 
ATOM     13  C   UNL d   1     -43.307   9.940  23.422  0.00  0.00     0.002 A 
ATOM     14  C   UNL d   1     -43.965   9.536  23.697  0.00  0.00     0.000 A 
ATOM     15  C   UNL d   1     -44.711   9.904  23.696  0.00  0.00     0.002 A 
ATOM     16  C   UNL d   1     -44.784  10.684  23.413  0.00  0.00     0.025 A 
ENDBRANCH  10  11
ENDBRANCH   9  10
ENDBRANCH   7   9
ENDBRANCH   1   6
BRANCH   2  17
ATOM     17  N   UNL d   1     -46.848  14.460  22.885  0.00  0.00    -0.182 NA
ATOM     18  C   UNL d   1     -47.558  14.836  22.689  0.00  0.00     0.306 C 
ATOM     19  O   UNL d   1     -47.558  15.631  22.511  0.00  0.00    -0.263 OA
BRANCH  18  20
ATOM     20  C   UNL d   1     -48.271  14.391  22.676  0.00  0.00     0.185 C 
BRANCH  20  21
ATOM     21  O   UNL d   1     -48.960  14.710  22.364  0.00  0.00    -0.300 OA
BRANCH  21  22
ATOM     22  C   UNL d   1     -49.606  14.215  22.218  0.00  0.00     0.100 A 
ATOM     23  C   UNL d   1     -49.690  13.801  21.514  0.00  0.00     0.025 A 
ATOM     24  C   UNL d   1     -50.315  13.304  21.337  0.00  0.00     0.002 A 
ATOM     25  C   UNL d   1     -50.898  13.229  21.937  0.00  0.00     0.000 A 
ATOM     26  C   UNL d   1     -50.824  13.638  22.647  0.00  0.00     0.002 A 
ATOM     27  C   UNL d   1     -50.184  14.133  22.798  0.00  0.00     0.025 A 
ENDBRANCH  21  22
ENDBRANCH  20  21
ENDBRANCH  18  20
ENDBRANCH   2  17
TORSDOF 8
ENDMDL
MODEL 3
REMARK VINA RESULT:      -5.1      0.334      5.548
REMARK  8 active torsions:
REMARK  status: ('A' for Active; 'I' for Inactive)
REMARK    1  A    between atoms: N_6  and  C_1 
REMARK    2  A    between atoms: N_7  and  C_2 
REMARK       I    between atoms: C_8  and  N_6 
REMARK       I    between atoms: C_9  and  N_7 
REMARK    3  A    between atoms: C_14  and  C_8 
REMARK    4  A    between atoms: C_15  and  C_9 
REMARK    5  A    between atoms: O_12  and  C_14 
REMARK    6  A    between atoms: C_16  and  O_12 
REMARK    7  A    between atoms: O_13  and  C_15 
REMARK    8  A    between atoms: C_17  and  O_13 
ROOT
ATOM      1  C   UNL d   1     -46.559  12.702  23.284  0.00  0.00     0.232 A 
ATOM      2  C   UNL d   1     -47.328  12.698  22.984  0.00  0.00     0.232 A 
ATOM      3  N   UNL d   1     -46.264  13.474  23.174  0.00  0.00    -0.081 NA
ATOM      4  N   UNL d   1     -47.501  13.438  22.700  0.00  0.00    -0.081 NA
ATOM      5  O   UNL d   1     -46.867  13.918  22.807  0.00  0.00    -0.103 OA
ENDROOT
BRANCH   1   6
ATOM      6  N   UNL d   1     -46.242  12.012  23.610  0.00  0.00    -0.182 NA
ATOM      7  C   UNL d   1     -45.487  11.756  23.377  0.00  0.00     0.306 C 
ATOM      8  O   UNL d   1     -45.155  11.069  23.693  0.00  0.00    -0.263 OA
BRANCH   7   9
ATOM      9  C   UNL d   1     -45.058  12.201  22.817  0.00  0.00     0.185 C 
BRANCH   9  10
ATOM     10  O   UNL d   1     -44.498  11.823  22.336  0.00  0.00    -0.300 OA
BRANCH  10  11
ATOM     11  C   UNL d   1     -43.905  12.261  21.967  0.00  0.00     0.100 A 
ATOM     12  C   UNL d   1     -43.114  12.109  22.162  0.00  0.00     0.025 A 
ATOM     13  C   UNL d   1     -42.519  12.545  21.794  0.00  0.00     0.002 A 
ATOM     14  C   UNL d   1     -42.701  13.122  21.241  0.00  0.00     0.000 A 
ATOM     15  C   UNL d   1     -43.494  13.275  21.044  0.00  0.00     0.002 A 
ATOM     16  C   UNL d   1     -44.101  12.837  21.413  0.00  0.00     0.025 A 
ENDBRANCH  10  11
ENDBRANCH   9  10
ENDBRANCH   7   9
ENDBRANCH   1   6
BRANCH   2  17
ATOM     17  N   UNL d   1     -47.842  12.029  22.979  0.00  0.00    -0.182 NA
ATOM     18  C   UNL d   1     -48.662  12.125  23.033  0.00  0.00     0.306 C 
ATOM     19  O   UNL d   1     -49.147  11.470  23.026  0.00  0.00    -0.263 OA
BRANCH  18  20
ATOM     20  C   UNL d   1     -48.984  12.899  23.094  0.00  0.00     0.185 C 
BRANCH  20  21
ATOM     21  O   UNL d   1     -49.770  13.013  23.303  0.00  0.00    -0.300 OA
BRANCH  21  22
ATOM     22  C   UNL d   1     -50.123  13.747  23.165  0.00  0.00     0.100 A 
ATOM     23  C   UNL d   1     -50.062  14.369  23.697  0.00  0.00     0.025 A 
ATOM     24  C   UNL d   1     -50.399  15.108  23.593  0.00  0.00     0.002 A 
ATOM     25  C   UNL d   1     -50.833  15.208  22.881  0.00  0.00     0.000 A 
ATOM     26  C   UNL d   1     -50.901  14.593  22.339  0.00  0.00     0.002 A 
ATOM     27  C   UNL d   1     -50.551  13.859  22.470  0.00  0.00     0.025 A 
ENDBRANCH  21  22
ENDBRANCH  20  21
ENDBRANCH  18  20
ENDBRANCH   2  17
TORSDOF 8
ENDMDL
MODEL 4
REMARK VINA RESULT:      -5.0      1.541      5.753
REMARK  8 active torsions:
REMARK  status: ('A' for Active; 'I' for Inactive)
REMARK    1  A    between atoms: N_6  and  C_1 
REMARK    2  A    between atoms: N_7  and  C_2 
REMARK       I    between atoms: C_8  and  N_6 
REMARK       I    between atoms: C_9  and  N_7 
REMARK    3  A    between atoms: C_14  and  C_8 
REMARK    4  A    between atoms: C_15  and  C_9 
REMARK    5  A    between atoms: O_12  and  C_14 
REMARK    6  A    between atoms: C_16  and  O_12 
REMARK    7  A    between atoms: O_13  and  C_15 
REMARK    8  A    between atoms: C_17  and  O_13 
ROOT
ATOM      1  C   UNL d   1     -44.804  12.910  22.279  0.00  0.00     0.232 A 
ATOM      2  C   UNL d   1     -45.471  12.938  22.764  0.00  0.00     0.232 A 
ATOM      3  N   UNL d   1     -44.737  13.661  21.923  0.00  0.00    -0.081 NA
ATOM      4  N   UNL d   1     -45.803  13.676  22.711  0.00  0.00    -0.081 NA
ATOM      5  O   UNL d   1     -45.370  14.124  22.206  0.00  0.00    -0.103 OA
ENDROOT
BRANCH   1   6
ATOM      6  N   UNL d   1     -44.360  12.215  22.231  0.00  0.00    -0.182 NA
ATOM      7  C   UNL d   1     -43.591  12.239  21.917  0.00  0.00     0.306 C 
ATOM      8  O   UNL d   1     -43.133  11.554  21.862  0.00  0.00    -0.263 OA
BRANCH   7   9
ATOM      9  C   UNL d   1     -43.278  12.967  21.654  0.00  0.00     0.185 C 
BRANCH   9  10
ATOM     10  O   UNL d   1     -42.656  12.971  21.106  0.00  0.00    -0.300 OA
BRANCH  10  11
ATOM     11  C   UNL d   1     -42.086  13.566  21.129  0.00  0.00     0.100 A 
ATOM     12  C   UNL d   1     -42.243  14.285  20.750  0.00  0.00     0.025 A 
ATOM     13  C   UNL d   1     -41.676  14.883  20.770  0.00  0.00     0.002 A 
ATOM     14  C   UNL d   1     -40.963  14.773  21.160  0.00  0.00     0.000 A 
ATOM     15  C   UNL d   1     -40.804  14.051  21.541  0.00  0.00     0.002 A 
ATOM     16  C   UNL d   1     -41.374  13.442  21.524  0.00  0.00     0.025 A 
ENDBRANCH  10  11
ENDBRANCH   9  10
ENDBRANCH   7   9
ENDBRANCH   1   6
BRANCH   2  17
ATOM     17  N   UNL d   1     -45.754  12.297  23.236  0.00  0.00    -0.182 NA
ATOM     18  C   UNL d   1     -46.555  12.095  23.238  0.00  0.00     0.306 C 
ATOM     19  O   UNL d   1     -46.815  11.474  23.698  0.00  0.00    -0.263 OA
BRANCH  18  20
ATOM     20  C   UNL d   1     -47.094  12.533  22.763  0.00  0.00     0.185 C 
BRANCH  20  21
ATOM     21  O   UNL d   1     -47.874  12.293  22.680  0.00  0.00    -0.300 OA
BRANCH  21  22
ATOM     22  C   UNL d   1     -48.406  12.778  22.273  0.00  0.00     0.100 A 
ATOM     23  C   UNL d   1     -48.831  13.372  22.648  0.00  0.00     0.025 A 
ATOM     24  C   UNL d   1     -49.365  13.869  22.276  0.00  0.00     0.002 A 
ATOM     25  C   UNL d   1     -49.465  13.739  21.452  0.00  0.00     0.000 A 
ATOM     26  C   UNL d   1     -49.044  13.146  21.066  0.00  0.00     0.002 A 
ATOM     27  C   UNL d   1     -48.513  12.661  21.466  0.00  0.00     0.025 A 
ENDBRANCH  21  22
ENDBRANCH  20  21
ENDBRANCH  18  20
ENDBRANCH   2  17
TORSDOF 8
ENDMDL
MODEL 5
REMARK VINA RESULT:      -4.7      1.577      2.380
REMARK  8 active torsions:
REMARK  status: ('A' for Active; 'I' for Inactive)
REMARK    1  A    between atoms: N_6  and  C_1 
REMARK    2  A    between atoms: N_7  and  C_2 
REMARK       I    between atoms: C_8  and  N_6 
REMARK       I    between atoms: C_9  and  N_7 
REMARK    3  A    between atoms: C_14  and  C_8 
REMARK    4  A    between atoms: C_15  and  C_9 
REMARK    5  A    between atoms: O_12  and  C_14 
REMARK    6  A    between atoms: C_16  and  O_12 
REMARK    7  A    between atoms: O_13  and  C_15 
REMARK    8  A    between atoms: C_17  and  O_13 
ROOT
ATOM      1  C   UNL d   1     -45.438  12.939  22.696  0.00  0.00     0.232 A 
ATOM      2  C   UNL d   1     -44.740  12.862  22.262  0.00  0.00     0.232 A 
ATOM      3  N   UNL d   1     -45.734  13.703  22.540  0.00  0.00    -0.081 NA
ATOM      4  N   UNL d   1     -44.610  13.551  21.854  0.00  0.00    -0.081 NA
ATOM      5  O   UNL d   1     -45.202  14.069  22.013  0.00  0.00    -0.103 OA
ENDROOT
BRANCH   1   6
ATOM      6  N   UNL d   1     -45.701  12.310  23.164  0.00  0.00    -0.182 NA
ATOM      7  C   UNL d   1     -46.515  12.163  23.234  0.00  0.00     0.306 C 
ATOM      8  O   UNL d   1     -46.796  11.539  23.698  0.00  0.00    -0.263 OA
BRANCH   7   9
ATOM      9  C   UNL d   1     -47.058  12.652  22.830  0.00  0.00     0.185 C 
BRANCH   9  10
ATOM     10  O   UNL d   1     -47.869  12.488  22.875  0.00  0.00    -0.300 OA
BRANCH  10  11
ATOM     11  C   UNL d   1     -48.407  12.933  22.438  0.00  0.00     0.100 A 
ATOM     12  C   UNL d   1     -48.591  12.695  21.666  0.00  0.00     0.025 A 
ATOM     13  C   UNL d   1     -49.129  13.139  21.226  0.00  0.00     0.002 A 
ATOM     14  C   UNL d   1     -49.481  13.807  21.542  0.00  0.00     0.000 A 
ATOM     15  C   UNL d   1     -49.297  14.047  22.318  0.00  0.00     0.002 A 
ATOM     16  C   UNL d   1     -48.754  13.603  22.768  0.00  0.00     0.025 A 
ENDBRANCH  10  11
ENDBRANCH   9  10
ENDBRANCH   7   9
ENDBRANCH   1   6
BRANCH   2  17
ATOM     17  N   UNL d   1     -44.250  12.176  22.250  0.00  0.00    -0.182 NA
ATOM     18  C   UNL d   1     -43.484  12.208  21.941  0.00  0.00     0.306 C 
ATOM     19  O   UNL d   1     -43.021  11.537  21.936  0.00  0.00    -0.263 OA
BRANCH  18  20
ATOM     20  C   UNL d   1     -43.192  12.935  21.635  0.00  0.00     0.185 C 
BRANCH  20  21
ATOM     21  O   UNL d   1     -42.568  12.947  21.102  0.00  0.00    -0.300 OA
BRANCH  21  22
ATOM     22  C   UNL d   1     -42.021  13.567  21.132  0.00  0.00     0.100 A 
ATOM     23  C   UNL d   1     -42.162  14.293  20.776  0.00  0.00     0.025 A 
ATOM     24  C   UNL d   1     -41.644  14.926  20.787  0.00  0.00     0.002 A 
ATOM     25  C   UNL d   1     -40.924  14.796  21.199  0.00  0.00     0.000 A 
ATOM     26  C   UNL d   1     -40.772  14.072  21.560  0.00  0.00     0.002 A 
ATOM     27  C   UNL d   1     -41.311  13.452  21.533  0.00  0.00     0.025 A 
ENDBRANCH  21  22
ENDBRANCH  20  21
ENDBRANCH  18  20
ENDBRANCH   2  17
TORSDOF 8
ENDMDL
MODEL 6
REMARK VINA RESULT:      -3.8      2.760      6.520
REMARK  8 active torsions:
REMARK  status: ('A' for Active; 'I' for Inactive)
REMARK    1  A    between atoms: N_6  and  C_1 
REMARK    2  A    between atoms: N_7  and  C_2 
REMARK       I    between atoms: C_8  and  N_6 
REMARK       I    between atoms: C_9  and  N_7 
REMARK    3  A    between atoms: C_14  and  C_8 
REMARK    4  A    between atoms: C_15  and  C_9 
REMARK    5  A    between atoms: O_12  and  C_14 
REMARK    6  A    between atoms: C_16  and  O_12 
REMARK    7  A    between atoms: O_13  and  C_15 
REMARK    8  A    between atoms: C_17  and  O_13 
ROOT
ATOM      1  C   UNL d   1     -42.683  12.908  21.459  0.00  0.00     0.232 A 
ATOM      2  C   UNL d   1     -43.318  12.402  21.609  0.00  0.00     0.232 A 
ATOM      3  N   UNL d   1     -42.889  13.357  20.787  0.00  0.00    -0.081 NA
ATOM      4  N   UNL d   1     -43.893  12.534  21.052  0.00  0.00    -0.081 NA
ATOM      5  O   UNL d   1     -43.648  13.108  20.549  0.00  0.00    -0.103 OA
ENDROOT
BRANCH   1   6
ATOM      6  N   UNL d   1     -42.018  12.887  21.949  0.00  0.00    -0.182 NA
ATOM      7  C   UNL d   1     -41.342  13.326  21.744  0.00  0.00     0.306 C 
ATOM      8  O   UNL d   1     -40.669  13.316  22.222  0.00  0.00    -0.263 OA
BRANCH   7   9
ATOM      9  C   UNL d   1     -41.345  13.781  21.045  0.00  0.00     0.185 C 
BRANCH   9  10
ATOM     10  O   UNL d   1     -40.668  14.208  20.831  0.00  0.00    -0.300 OA
BRANCH  10  11
ATOM     11  C   UNL d   1     -40.664  14.666  20.146  0.00  0.00     0.100 A 
ATOM     12  C   UNL d   1     -40.472  14.306  19.425  0.00  0.00     0.025 A 
ATOM     13  C   UNL d   1     -40.468  14.761  18.737  0.00  0.00     0.002 A 
ATOM     14  C   UNL d   1     -40.649  15.560  18.760  0.00  0.00     0.000 A 
ATOM     15  C   UNL d   1     -40.842  15.922  19.484  0.00  0.00     0.002 A 
ATOM     16  C   UNL d   1     -40.848  15.467  20.183  0.00  0.00     0.025 A 
ENDBRANCH  10  11
ENDBRANCH   9  10
ENDBRANCH   7   9
ENDBRANCH   1   6
BRANCH   2  17
ATOM     17  N   UNL d   1     -43.353  11.843  22.240  0.00  0.00    -0.182 NA
ATOM     18  C   UNL d   1     -44.028  11.783  22.714  0.00  0.00     0.306 C 
ATOM     19  O   UNL d   1     -44.049  11.238  23.320  0.00  0.00    -0.263 OA
BRANCH  18  20
ATOM     20  C   UNL d   1     -44.686  12.285  22.563  0.00  0.00     0.185 C 
BRANCH  20  21
ATOM     21  O   UNL d   1     -45.305  12.339  23.098  0.00  0.00    -0.300 OA
BRANCH  21  22
ATOM     22  C   UNL d   1     -45.951  12.824  22.923  0.00  0.00     0.100 A 
ATOM     23  C   UNL d   1     -46.620  12.541  22.540  0.00  0.00     0.025 A 
ATOM     24  C   UNL d   1     -47.276  12.992  22.351  0.00  0.00     0.002 A 
ATOM     25  C   UNL d   1     -47.234  13.800  22.577  0.00  0.00     0.000 A 
ATOM     26  C   UNL d   1     -46.570  14.096  22.961  0.00  0.00     0.002 A 
ATOM     27  C   UNL d   1     -45.923  13.618  23.138  0.00  0.00     0.025 A 
ENDBRANCH  21  22
ENDBRANCH  20  21
ENDBRANCH  18  20
ENDBRANCH   2  17
TORSDOF 8
ENDMDL
