MODEL 1
REMARK VINA RESULT:      12.7      0.000      0.000
REMARK  3 active torsions:
REMARK  status: ('A' for Active; 'I' for Inactive)
REMARK    1  A    between atoms: C_6  and  C_2 
REMARK    2  A    between atoms: C_8  and  C_3 
REMARK    3  A    between atoms: C_7  and  C_6 
ROOT
ATOM      1  N   UNL d   1      45.907 -16.301  43.670  0.00  0.00    -0.238 NA
ATOM      2  C   UNL d   1      45.742 -15.697  44.205  0.00  0.00     0.113 A 
ATOM      3  C   UNL d   1      45.985 -17.033  44.089  0.00  0.00     0.088 A 
ATOM      4  S   UNL d   1      45.717 -16.045  44.955  0.00  0.00    -0.066 SA
ATOM      5  C   UNL d   1      45.859 -16.839  44.906  0.00  0.00     0.056 A 
ENDROOT
BRANCH   3   6
ATOM      6  C   UNL d   1      46.149 -17.739  43.717  0.00  0.00     0.018 A 
ATOM      7  C   UNL d   1      46.232 -17.795  42.913  0.00  0.00     0.002 A 
ATOM      8  C   UNL d   1      46.396 -18.501  42.542  0.00  0.00     0.011 A 
ATOM      9  C   UNL d   1      46.480 -19.194  43.010  0.00  0.00     0.058 A 
ATOM     10  C   UNL d   1      46.398 -19.151  43.826  0.00  0.00     0.011 A 
ATOM     11 CL   UNL d   1      46.647 -19.925  42.661  0.00  0.00    -0.082 Cl
ATOM     12  C   UNL d   1      46.232 -18.426  44.191  0.00  0.00     0.002 A 
ENDBRANCH   3   6
BRANCH   2  13
ATOM     13  C   UNL d   1      45.623 -14.898  44.041  0.00  0.00     0.058 C 
BRANCH  13  14
ATOM     14  C   UNL d   1      45.423 -14.378  44.640  0.00  0.00     0.159 C 
ATOM     15  S   UNL d   1      45.926 -13.742  44.938  0.00  0.00    -0.055 SA
ATOM     16  N   UNL d   1      44.726 -14.496  44.939  0.00  0.00    -0.136 N 
ENDBRANCH  13  14
ENDBRANCH   2  13
TORSDOF 3
ENDMDL
MODEL 2
REMARK VINA RESULT:      13.5      0.950      1.232
REMARK  3 active torsions:
REMARK  status: ('A' for Active; 'I' for Inactive)
REMARK    1  A    between atoms: C_6  and  C_2 
REMARK    2  A    between atoms: C_8  and  C_3 
REMARK    3  A    between atoms: C_7  and  C_6 
ROOT
ATOM      1  N   UNL d   1      46.203 -15.450  44.346  0.00  0.00    -0.238 NA
ATOM      2  C   UNL d   1      45.838 -14.762  44.613  0.00  0.00     0.113 A 
ATOM      3  C   UNL d   1      45.709 -16.116  44.523  0.00  0.00     0.088 A 
ATOM      4  S   UNL d   1      45.121 -14.991  44.954  0.00  0.00    -0.066 SA
ATOM      5  C   UNL d   1      45.027 -15.792  44.910  0.00  0.00     0.056 A 
ENDROOT
BRANCH   3   6
ATOM      6  C   UNL d   1      45.913 -16.880  44.330  0.00  0.00     0.018 A 
ATOM      7  C   UNL d   1      46.026 -17.118  43.562  0.00  0.00     0.002 A 
ATOM      8  C   UNL d   1      46.230 -17.881  43.370  0.00  0.00     0.011 A 
ATOM      9  C   UNL d   1      46.327 -18.443  43.989  0.00  0.00     0.058 A 
ATOM     10  C   UNL d   1      46.216 -18.215  44.770  0.00  0.00     0.011 A 
ATOM     11 CL   UNL d   1      46.533 -19.226  43.824  0.00  0.00    -0.082 Cl
ATOM     12  C   UNL d   1      46.008 -17.434  44.953  0.00  0.00     0.002 A 
ENDBRANCH   3   6
BRANCH   2  13
ATOM     13  C   UNL d   1      46.120 -13.989  44.557  0.00  0.00     0.058 C 
BRANCH  13  14
ATOM     14  C   UNL d   1      45.620 -13.382  44.332  0.00  0.00     0.159 C 
ATOM     15  S   UNL d   1      45.446 -13.156  43.516  0.00  0.00    -0.055 SA
ATOM     16  N   UNL d   1      45.297 -13.006  44.918  0.00  0.00    -0.136 N 
ENDBRANCH  13  14
ENDBRANCH   2  13
TORSDOF 3
ENDMDL
