MODEL 1
REMARK VINA RESULT:      -3.3      0.000      0.000
REMARK  4 active torsions:
REMARK  status: ('A' for Active; 'I' for Inactive)
REMARK    1  A    between atoms: N_3  and  C_1 
REMARK    2  A    between atoms: C_4  and  C_2 
REMARK       I    between atoms: C_6  and  N_3 
REMARK    3  A    between atoms: C_18  and  C_6 
REMARK    4  A    between atoms: C_17  and  C_18 
ROOT
ATOM      1  N   UNL d   1      30.300  16.296 -24.183  0.00  0.00    -0.201 NA
ATOM      2  C   UNL d   1      31.035  16.214 -23.823  0.00  0.00     0.280 C 
ATOM      3  O   UNL d   1      31.099  15.928 -23.047  0.00  0.00    -0.265 OA
ENDROOT
BRANCH   2   4
ATOM      4  C   UNL d   1      31.725  16.420 -24.242  0.00  0.00     0.063 C 
BRANCH   4   5
ATOM      5  C   UNL d   1      32.113  17.144 -24.091  0.00  0.00     0.007 A 
ATOM      6  C   UNL d   1      32.227  17.697 -24.700  0.00  0.00     0.026 A 
ATOM      7  C   UNL d   1      32.616  18.415 -24.540  0.00  0.00     0.119 A 
ATOM      8  O   UNL d   1      32.805  19.061 -25.027  0.00  0.00    -0.300 OA
ATOM      9  C   UNL d   1      32.885  18.577 -23.783  0.00  0.00     0.119 A 
ATOM     10  C   UNL d   1      33.200  19.628 -24.551  0.00  0.00     0.304 A 
ATOM     11  O   UNL d   1      33.241  19.317 -23.795  0.00  0.00    -0.300 OA
ATOM     12  C   UNL d   1      32.773  18.027 -23.175  0.00  0.00     0.026 A 
ATOM     13  C   UNL d   1      32.388  17.317 -23.334  0.00  0.00     0.002 A 
ENDBRANCH   4   5
ENDBRANCH   2   4
BRANCH   1  14
ATOM     14  C   UNL d   1      29.616  16.094 -23.773  0.00  0.00     0.119 A 
ATOM     15  C   UNL d   1      28.894  16.477 -23.815  0.00  0.00     0.084 A 
ATOM     16  C   UNL d   1      28.369  16.094 -23.319  0.00  0.00     0.014 A 
ATOM     17  C   UNL d   1      28.761  15.459 -22.957  0.00  0.00     0.037 A 
ATOM     18  S   UNL d   1      29.542  15.465 -23.246  0.00  0.00    -0.067 SA
BRANCH  15  19
ATOM     19  C   UNL d   1      28.709  17.139 -24.274  0.00  0.00     0.299 C 
ATOM     20  O   UNL d   1      28.711  17.110 -25.097  0.00  0.00    -0.264 OA
ATOM     21  N   UNL d   1      28.519  17.845 -23.894  0.00  0.00    -0.102 N 
ENDBRANCH  15  19
ENDBRANCH   1  14
TORSDOF 4
ENDMDL
MODEL 2
REMARK VINA RESULT:      -2.9      2.000      3.191
REMARK  4 active torsions:
REMARK  status: ('A' for Active; 'I' for Inactive)
REMARK    1  A    between atoms: N_3  and  C_1 
REMARK    2  A    between atoms: C_4  and  C_2 
REMARK       I    between atoms: C_6  and  N_3 
REMARK    3  A    between atoms: C_18  and  C_6 
REMARK    4  A    between atoms: C_17  and  C_18 
ROOT
ATOM      1  N   UNL d   1      32.570  17.609 -23.970  0.00  0.00    -0.201 NA
ATOM      2  C   UNL d   1      32.552  18.428 -23.888  0.00  0.00     0.280 C 
ATOM      3  O   UNL d   1      31.859  18.856 -24.040  0.00  0.00    -0.265 OA
ENDROOT
BRANCH   2   4
ATOM      4  C   UNL d   1      33.241  18.833 -23.651  0.00  0.00     0.063 C 
BRANCH   4   5
ATOM      5  C   UNL d   1      33.233  19.324 -22.976  0.00  0.00     0.007 A 
ATOM      6  C   UNL d   1      33.226  20.151 -23.055  0.00  0.00     0.026 A 
ATOM      7  C   UNL d   1      33.218  20.632 -22.376  0.00  0.00     0.119 A 
ATOM      8  O   UNL d   1      33.210  21.458 -22.285  0.00  0.00    -0.300 OA
ATOM      9  C   UNL d   1      33.217  20.292 -21.631  0.00  0.00     0.119 A 
ATOM     10  C   UNL d   1      33.204  21.620 -21.462  0.00  0.00     0.304 A 
ATOM     11  O   UNL d   1      33.209  20.898 -21.077  0.00  0.00    -0.300 OA
ATOM     12  C   UNL d   1      33.225  19.468 -21.550  0.00  0.00     0.026 A 
ATOM     13  C   UNL d   1      33.232  18.993 -22.222  0.00  0.00     0.002 A 
ENDBRANCH   4   5
ENDBRANCH   2   4
BRANCH   1  14
ATOM     14  C   UNL d   1      31.893  17.205 -24.204  0.00  0.00     0.119 A 
ATOM     15  C   UNL d   1      31.783  16.394 -24.189  0.00  0.00     0.084 A 
ATOM     16  C   UNL d   1      31.033  16.230 -24.469  0.00  0.00     0.014 A 
ATOM     17  C   UNL d   1      30.660  16.945 -24.664  0.00  0.00     0.037 A 
ATOM     18  S   UNL d   1      31.205  17.552 -24.495  0.00  0.00    -0.067 SA
BRANCH  15  19
ATOM     19  C   UNL d   1      32.326  15.824 -23.939  0.00  0.00     0.299 C 
ATOM     20  O   UNL d   1      32.383  15.597 -23.149  0.00  0.00    -0.264 OA
ATOM     21  N   UNL d   1      32.822  15.476 -24.496  0.00  0.00    -0.102 N 
ENDBRANCH  15  19
ENDBRANCH   1  14
TORSDOF 4
ENDMDL
MODEL 3
REMARK VINA RESULT:      -2.9      3.566      5.281
REMARK  4 active torsions:
REMARK  status: ('A' for Active; 'I' for Inactive)
REMARK    1  A    between atoms: N_3  and  C_1 
REMARK    2  A    between atoms: C_4  and  C_2 
REMARK       I    between atoms: C_6  and  N_3 
REMARK    3  A    between atoms: C_18  and  C_6 
REMARK    4  A    between atoms: C_17  and  C_18 
ROOT
ATOM      1  N   UNL d   1      32.926  20.896 -21.831  0.00  0.00    -0.201 NA
ATOM      2  C   UNL d   1      33.133  20.454 -22.494  0.00  0.00     0.280 C 
ATOM      3  O   UNL d   1      33.235  20.817 -23.232  0.00  0.00    -0.265 OA
ENDROOT
BRANCH   2   4
ATOM      4  C   UNL d   1      33.241  19.631 -22.423  0.00  0.00     0.063 C 
BRANCH   4   5
ATOM      5  C   UNL d   1      32.998  19.116 -23.034  0.00  0.00     0.007 A 
ATOM      6  C   UNL d   1      32.527  18.453 -22.866  0.00  0.00     0.026 A 
ATOM      7  C   UNL d   1      32.290  17.946 -23.481  0.00  0.00     0.119 A 
ATOM      8  O   UNL d   1      31.828  17.255 -23.480  0.00  0.00    -0.300 OA
ATOM      9  C   UNL d   1      32.521  18.099 -24.252  0.00  0.00     0.119 A 
ATOM     10  C   UNL d   1      31.779  16.985 -24.274  0.00  0.00     0.304 A 
ATOM     11  O   UNL d   1      32.207  17.511 -24.731  0.00  0.00    -0.300 OA
ATOM     12  C   UNL d   1      32.991  18.760 -24.422  0.00  0.00     0.026 A 
ATOM     13  C   UNL d   1      33.224  19.261 -23.812  0.00  0.00     0.002 A 
ENDBRANCH   4   5
ENDBRANCH   2   4
BRANCH   1  14
ATOM     14  C   UNL d   1      32.819  21.709 -21.896  0.00  0.00     0.119 A 
ATOM     15  C   UNL d   1      32.484  22.201 -21.334  0.00  0.00     0.084 A 
ATOM     16  C   UNL d   1      32.486  22.965 -21.625  0.00  0.00     0.014 A 
ATOM     17  C   UNL d   1      32.826  22.959 -22.382  0.00  0.00     0.037 A 
ATOM     18  S   UNL d   1      33.032  22.169 -22.546  0.00  0.00    -0.067 SA
BRANCH  15  19
ATOM     19  C   UNL d   1      32.190  21.981 -20.595  0.00  0.00     0.299 C 
ATOM     20  O   UNL d   1      31.472  21.585 -20.514  0.00  0.00    -0.264 OA
ATOM     21  N   UNL d   1      32.630  22.164 -19.922  0.00  0.00    -0.102 N 
ENDBRANCH  15  19
ENDBRANCH   1  14
TORSDOF 4
ENDMDL
