MODEL 1
REMARK VINA RESULT:      16.4      0.000      0.000
REMARK  4 active torsions:
REMARK  status: ('A' for Active; 'I' for Inactive)
REMARK    1  A    between atoms: C_8  and  C_4 
REMARK       I    between atoms: C_7  and  N_10 
REMARK    2  A    between atoms: C_16  and  C_7 
REMARK    3  A    between atoms: N_10  and  C_13 
REMARK    4  A    between atoms: C_17  and  C_16 
ROOT
ATOM      1  C   UNL d   1      45.351 -15.561  44.482  0.00  0.00     0.021 A 
ATOM      2  C   UNL d   1      45.903 -16.076  44.141  0.00  0.00     0.021 A 
ATOM      3  C   UNL d   1      45.801 -16.889  44.205  0.00  0.00     0.085 A 
ATOM      4  C   UNL d   1      44.700 -15.863  44.886  0.00  0.00     0.002 A 
ATOM      5  C   UNL d   1      44.592 -16.678  44.955  0.00  0.00     0.002 A 
ATOM      6  C   UNL d   1      45.149 -17.194  44.610  0.00  0.00     0.019 A 
ENDROOT
BRANCH   1   7
ATOM      7  C   UNL d   1      45.453 -14.745  44.417  0.00  0.00     0.118 A 
ATOM      8  N   UNL d   1      45.134 -14.266  43.834  0.00  0.00    -0.059 NA
ATOM      9  C   UNL d   1      45.377 -13.494  43.985  0.00  0.00     0.735 A 
ATOM     10  N   UNL d   1      45.845 -13.494  44.658  0.00  0.00    -0.136 N 
ATOM     11  N   UNL d   1      45.221 -12.789  43.578  0.00  0.00    -0.059 NA
ATOM     12  C   UNL d   1      45.893 -14.269  44.928  0.00  0.00     0.118 A 
ATOM     13  C   UNL d   1      46.165 -12.788  44.936  0.00  0.00     0.100 A 
ATOM     14  C   UNL d   1      46.016 -12.087  44.539  0.00  0.00     0.041 A 
ATOM     15  C   UNL d   1      45.548 -12.087  43.866  0.00  0.00     0.119 A 
ENDBRANCH   1   7
BRANCH   3  16
ATOM     16  N   UNL d   1      46.353 -17.398  43.865  0.00  0.00    -0.208 NA
ATOM     17  C   UNL d   1      46.100 -18.015  43.375  0.00  0.00     0.275 C 
ATOM     18  O   UNL d   1      45.300 -18.120  43.227  0.00  0.00    -0.266 OA
BRANCH  17  19
ATOM     19  C   UNL d   1      46.647 -18.522  43.036  0.00  0.00     0.036 C 
BRANCH  19  20
ATOM     20  C   UNL d   1      46.439 -19.304  42.897  0.00  0.00     0.023 C 
ATOM     21  C   UNL d   1      46.220 -19.329  42.091  0.00  0.00     0.004 C 
ATOM     22  C   UNL d   1      46.543 -19.689  43.608  0.00  0.00     0.004 C 
ATOM     23  C   UNL d   1      46.228 -20.093  42.752  0.00  0.00     0.004 C 
ENDBRANCH  19  20
ENDBRANCH  17  19
ENDBRANCH   3  16
TORSDOF 4
ENDMDL
