MODEL 1
REMARK VINA RESULT:      -5.9      0.000      0.000
REMARK  1 active torsions:
REMARK  status: ('A' for Active; 'I' for Inactive)
REMARK       I    between atoms: C_3  and  N_1 
REMARK    1  A    between atoms: C_6  and  C_3 
ROOT
ATOM      1  N   UNL d   1     -41.595-122.818 -52.282  0.00  0.00    -0.175 N 
ATOM      2  N   UNL d   1     -41.870-123.610 -52.267  0.00  0.00    -0.057 NA
ATOM      3  C   UNL d   1     -41.398-122.385 -52.976  0.00  0.00     0.282 C 
ATOM      4  N   UNL d   1     -41.992-123.815 -51.518  0.00  0.00    -0.129 NA
ATOM      5  C   UNL d   1     -41.557-122.552 -51.501  0.00  0.00     0.107 A 
ATOM      6  C   UNL d   1     -41.808-123.182 -51.019  0.00  0.00     0.122 A 
ATOM      7  O   UNL d   1     -41.130-121.596 -52.901  0.00  0.00    -0.265 OA
ATOM      8  C   UNL d   1     -41.328-121.822 -51.158  0.00  0.00     0.021 A 
ATOM      9  C   UNL d   1     -41.835-123.095 -50.183  0.00  0.00     0.022 A 
ATOM     10  C   UNL d   1     -41.355-121.734 -50.329  0.00  0.00     0.002 A 
ATOM     11  C   UNL d   1     -41.606-122.364 -49.847  0.00  0.00     0.002 A 
ENDROOT
BRANCH   3  12
ATOM     12  C   UNL d   1     -41.464-122.726 -53.723  0.00  0.00     0.058 A 
ATOM     13  C   UNL d   1     -41.858-122.343 -54.326  0.00  0.00     0.005 A 
ATOM     14  C   UNL d   1     -41.922-122.677 -55.055  0.00  0.00     0.000 A 
ATOM     15  C   UNL d   1     -42.184-121.610 -54.156  0.00  0.00     0.000 A 
ATOM     16  C   UNL d   1     -42.319-122.278 -55.642  0.00  0.00     0.000 A 
ATOM     17  C   UNL d   1     -41.584-123.421 -55.206  0.00  0.00     0.000 A 
ATOM     18  C   UNL d   1     -42.644-121.567 -55.506  0.00  0.00     0.000 A 
ATOM     19  C   UNL d   1     -42.579-121.229 -54.763  0.00  0.00     0.000 A 
ATOM     20  C   UNL d   1     -41.183-123.817 -54.605  0.00  0.00     0.000 A 
ATOM     21  C   UNL d   1     -41.123-123.464 -53.856  0.00  0.00     0.005 A 
ENDBRANCH   3  12
TORSDOF 1
ENDMDL
MODEL 2
REMARK VINA RESULT:      -4.7      0.949      3.804
REMARK  1 active torsions:
REMARK  status: ('A' for Active; 'I' for Inactive)
REMARK       I    between atoms: C_3  and  N_1 
REMARK    1  A    between atoms: C_6  and  C_3 
ROOT
ATOM      1  N   UNL d   1     -41.744-122.819 -52.657  0.00  0.00    -0.175 N 
ATOM      2  N   UNL d   1     -41.801-123.651 -52.745  0.00  0.00    -0.057 NA
ATOM      3  C   UNL d   1     -41.695-122.411 -51.923  0.00  0.00     0.282 C 
ATOM      4  N   UNL d   1     -41.836-123.816 -53.512  0.00  0.00    -0.129 NA
ATOM      5  C   UNL d   1     -41.746-122.487 -53.413  0.00  0.00     0.107 A 
ATOM      6  C   UNL d   1     -41.803-123.117 -53.953  0.00  0.00     0.122 A 
ATOM      7  O   UNL d   1     -41.641-121.576 -51.925  0.00  0.00    -0.265 OA
ATOM      8  C   UNL d   1     -41.703-121.696 -53.688  0.00  0.00     0.021 A 
ATOM      9  C   UNL d   1     -41.819-122.970 -54.781  0.00  0.00     0.022 A 
ATOM     10  C   UNL d   1     -41.718-121.549 -54.509  0.00  0.00     0.002 A 
ATOM     11  C   UNL d   1     -41.776-122.179 -55.049  0.00  0.00     0.002 A 
ENDROOT
BRANCH   3  12
ATOM     12  C   UNL d   1     -41.700-122.818 -51.207  0.00  0.00     0.058 A 
ATOM     13  C   UNL d   1     -42.258-122.656 -50.635  0.00  0.00     0.005 A 
ATOM     14  C   UNL d   1     -42.260-123.056 -49.936  0.00  0.00     0.000 A 
ATOM     15  C   UNL d   1     -42.809-122.074 -50.803  0.00  0.00     0.000 A 
ATOM     16  C   UNL d   1     -42.826-122.878 -49.379  0.00  0.00     0.000 A 
ATOM     17  C   UNL d   1     -41.691-123.643 -49.787  0.00  0.00     0.000 A 
ATOM     18  C   UNL d   1     -43.372-122.319 -49.514  0.00  0.00     0.000 A 
ATOM     19  C   UNL d   1     -43.368-121.914 -50.226  0.00  0.00     0.000 A 
ATOM     20  C   UNL d   1     -41.123-123.815 -50.358  0.00  0.00     0.000 A 
ATOM     21  C   UNL d   1     -41.128-123.397 -51.076  0.00  0.00     0.005 A 
ENDBRANCH   3  12
TORSDOF 1
ENDMDL
