MODEL 1
REMARK VINA RESULT:      -1.7      0.000      0.000
REMARK  6 active torsions:
REMARK  status: ('A' for Active; 'I' for Inactive)
REMARK    1  A    between atoms: O_8  and  C_1 
REMARK    2  A    between atoms: C_10  and  C_5 
REMARK    3  A    between atoms: C_12  and  O_8 
REMARK    4  A    between atoms: N_9  and  C_10 
REMARK    5  A    between atoms: O_24  and  C_17 
REMARK    6  A    between atoms: C_28  and  O_24 
ROOT
ATOM      1  C   UNL d   1     -41.521-122.404 -50.783  0.00  0.00     0.161 A 
ATOM      2  C   UNL d   1     -41.458-122.414 -52.443  0.00  0.00     0.108 A 
ATOM      3  C   UNL d   1     -41.320-123.118 -52.020  0.00  0.00     0.064 A 
ATOM      4  C   UNL d   1     -41.352-123.110 -51.194  0.00  0.00     0.222 A 
ATOM      5  C   UNL d   1     -41.425-122.421 -53.270  0.00  0.00     0.079 A 
ATOM      6  O   UNL d   1     -41.627-121.703 -52.050  0.00  0.00    -0.305 OA
ATOM      7  C   UNL d   1     -41.658-121.703 -51.211  0.00  0.00     0.126 A 
ATOM      8  C   UNL d   1     -41.154-123.811 -52.424  0.00  0.00     0.009 A 
ATOM      9  C   UNL d   1     -41.258-123.121 -53.669  0.00  0.00     0.199 A 
ATOM     10  O   UNL d   1     -41.216-123.806 -50.770  0.00  0.00    -0.284 OA
ATOM     11  C   UNL d   1     -41.123-123.816 -53.246  0.00  0.00     0.042 A 
ATOM     12  O   UNL d   1     -41.227-123.126 -54.492  0.00  0.00    -0.286 OA
ATOM     13  C   UNL d   1     -41.825-121.002 -50.811  0.00  0.00     0.029 C 
ENDROOT
BRANCH   1  14
ATOM     14  O   UNL d   1     -41.552-122.403 -49.958  0.00  0.00    -0.300 OA
BRANCH  14  15
ATOM     15  C   UNL d   1     -42.232-122.667 -49.576  0.00  0.00     0.123 A 
ATOM     16  C   UNL d   1     -42.206-122.848 -48.773  0.00  0.00     0.123 A 
ATOM     17  C   UNL d   1     -42.879-123.112 -48.388  0.00  0.00     0.027 A 
ATOM     18  C   UNL d   1     -43.587-123.197 -48.801  0.00  0.00     0.002 A 
ATOM     19  C   UNL d   1     -43.616-123.014 -49.614  0.00  0.00     0.002 A 
ATOM     20  C   UNL d   1     -42.936-122.750 -49.997  0.00  0.00     0.027 A 
BRANCH  16  21
ATOM     21  O   UNL d   1     -41.499-122.764 -48.356  0.00  0.00    -0.303 OA
BRANCH  21  22
ATOM     22  C   UNL d   1     -41.347-123.248 -47.708  0.00  0.00     0.123 C 
ATOM     23  C   UNL d   1     -41.137-122.922 -46.983  0.00  0.00     0.029 C 
ENDBRANCH  21  22
ENDBRANCH  16  21
ENDBRANCH  14  15
ENDBRANCH   1  14
BRANCH   5  24
ATOM     24  C   UNL d   1     -41.560-121.730 -53.700  0.00  0.00     0.086 C 
BRANCH  24  25
ATOM     25  N   UNL d   1     -41.986-121.771 -54.411  0.00  0.00    -0.300 N 
ATOM     26  C   UNL d   1     -42.812-121.812 -54.401  0.00  0.00     0.100 A 
ATOM     27  C   UNL d   1     -43.228-121.853 -55.107  0.00  0.00     0.100 A 
ATOM     28  N   UNL d   1     -42.828-121.854 -55.828  0.00  0.00    -0.299 N 
ATOM     29  C   UNL d   1     -42.002-121.813 -55.839  0.00  0.00     0.100 A 
ATOM     30  C   UNL d   1     -43.246-121.895 -56.536  0.00  0.00     0.100 C 
ATOM     31  C   UNL d   1     -41.576-121.772 -55.126  0.00  0.00     0.100 A 
ENDBRANCH  24  25
ENDBRANCH   5  24
TORSDOF 6
ENDMDL
