MODEL 1
REMARK VINA RESULT:       9.9      0.000      0.000
REMARK  4 active torsions:
REMARK  status: ('A' for Active; 'I' for Inactive)
REMARK    1  A    between atoms: C_9  and  N_2 
REMARK    2  A    between atoms: C_7  and  O_10 
REMARK    3  A    between atoms: C_11  and  C_9 
REMARK    4  A    between atoms: O_10  and  C_11 
ROOT
ATOM      1  C   UNL d   1      46.246 -17.858  43.083  0.00  0.00     0.378 A 
ATOM      2  N   UNL d   1      46.245 -17.909  43.915  0.00  0.00    -0.249 N 
ATOM      3  O   UNL d   1      46.374 -18.620  42.779  0.00  0.00    -0.258 OA
ATOM      4  C   UNL d   1      46.372 -18.700  44.119  0.00  0.00     0.092 A 
ATOM      5  C   UNL d   1      46.452 -19.138  43.417  0.00  0.00     0.121 A 
ATOM      6  O   UNL d   1      46.138 -17.168  42.650  0.00  0.00    -0.237 OA
ATOM      7  C   UNL d   1      46.426 -19.078  44.853  0.00  0.00     0.020 A 
ATOM      8  C   UNL d   1      46.586 -19.958  43.461  0.00  0.00     0.026 A 
ATOM      9  C   UNL d   1      46.559 -19.893  44.884  0.00  0.00     0.002 A 
ATOM     10  C   UNL d   1      46.638 -20.330  44.192  0.00  0.00     0.002 A 
ENDROOT
BRANCH   2  11
ATOM     11  C   UNL d   1      46.141 -17.308  44.471  0.00  0.00     0.112 C 
BRANCH  11  12
ATOM     12  C   UNL d   1      45.913 -16.561  44.227  0.00  0.00     0.142 C 
BRANCH  12  13
ATOM     13  O   UNL d   1      45.573 -16.039  44.768  0.00  0.00    -0.304 OA
BRANCH  13  14
ATOM     14  C   UNL d   1      45.589 -15.225  44.621  0.00  0.00     0.100 A 
ATOM     15  C   UNL d   1      44.903 -14.789  44.716  0.00  0.00     0.023 A 
ATOM     16  C   UNL d   1      44.206 -15.154  44.955  0.00  0.00     0.002 C 
ATOM     17  C   UNL d   1      44.911 -13.973  44.572  0.00  0.00     0.002 A 
ATOM     18  C   UNL d   1      45.616 -13.611  44.332  0.00  0.00     0.000 A 
ATOM     19  C   UNL d   1      46.301 -14.060  44.239  0.00  0.00     0.002 A 
ATOM     20  C   UNL d   1      46.285 -14.864  44.384  0.00  0.00     0.025 A 
ENDBRANCH  13  14
ENDBRANCH  12  13
ENDBRANCH  11  12
ENDBRANCH   2  11
TORSDOF 4
ENDMDL
MODEL 2
REMARK VINA RESULT:      10.9      1.062      4.527
REMARK  4 active torsions:
REMARK  status: ('A' for Active; 'I' for Inactive)
REMARK    1  A    between atoms: C_9  and  N_2 
REMARK    2  A    between atoms: C_7  and  O_10 
REMARK    3  A    between atoms: C_11  and  C_9 
REMARK    4  A    between atoms: O_10  and  C_11 
ROOT
ATOM      1  C   UNL d   1      44.629 -15.469  44.880  0.00  0.00     0.378 A 
ATOM      2  N   UNL d   1      45.461 -15.510  44.864  0.00  0.00    -0.249 N 
ATOM      3  O   UNL d   1      44.409 -14.672  44.808  0.00  0.00    -0.258 OA
ATOM      4  C   UNL d   1      45.749 -14.739  44.783  0.00  0.00     0.092 A 
ATOM      5  C   UNL d   1      45.098 -14.223  44.748  0.00  0.00     0.121 A 
ATOM      6  O   UNL d   1      44.124 -16.114  44.955  0.00  0.00    -0.237 OA
ATOM      7  C   UNL d   1      46.519 -14.440  44.735  0.00  0.00     0.020 A 
ATOM      8  C   UNL d   1      45.230 -13.406  44.666  0.00  0.00     0.026 A 
ATOM      9  C   UNL d   1      46.637 -13.626  44.654  0.00  0.00     0.002 A 
ATOM     10  C   UNL d   1      45.996 -13.112  44.620  0.00  0.00     0.002 A 
ENDROOT
BRANCH   2  11
ATOM     11  C   UNL d   1      45.950 -16.173  44.917  0.00  0.00     0.112 C 
BRANCH  11  12
ATOM     12  C   UNL d   1      45.894 -16.766  44.356  0.00  0.00     0.142 C 
BRANCH  12  13
ATOM     13  O   UNL d   1      46.104 -17.539  44.554  0.00  0.00    -0.304 OA
BRANCH  13  14
ATOM     14  C   UNL d   1      46.271 -18.087  43.958  0.00  0.00     0.100 A 
ATOM     15  C   UNL d   1      46.458 -18.857  44.164  0.00  0.00     0.023 A 
ATOM     16  C   UNL d   1      46.479 -19.084  44.953  0.00  0.00     0.002 C 
ATOM     17  C   UNL d   1      46.627 -19.411  43.572  0.00  0.00     0.002 A 
ATOM     18  C   UNL d   1      46.604 -19.176  42.778  0.00  0.00     0.000 A 
ATOM     19  C   UNL d   1      46.415 -18.398  42.581  0.00  0.00     0.002 A 
ATOM     20  C   UNL d   1      46.250 -17.858  43.171  0.00  0.00     0.025 A 
ENDBRANCH  13  14
ENDBRANCH  12  13
ENDBRANCH  11  12
ENDBRANCH   2  11
TORSDOF 4
ENDMDL
