MODEL 1
REMARK VINA RESULT:      -3.6      0.000      0.000
REMARK  3 active torsions:
REMARK  status: ('A' for Active; 'I' for Inactive)
REMARK    1  A    between atoms: C_5  and  S_1 
REMARK    2  A    between atoms: N_7  and  S_1 
REMARK       I    between atoms: N_2  and  C_3 
REMARK    3  A    between atoms: C_3  and  C_9 
ROOT
ATOM      1  C   UNL d   1      58.330  -0.128  30.110  0.00  0.00     0.104 A 
ATOM      2  C   UNL d   1      59.463  -0.630  29.401  0.00  0.00     0.059 A 
ATOM      3  C   UNL d   1      59.028  -0.565  30.100  0.00  0.00     0.018 A 
ATOM      4  C   UNL d   1      58.065   0.245  29.425  0.00  0.00     0.012 A 
ATOM      5  C   UNL d   1      59.200  -0.258  28.713  0.00  0.00     0.005 A 
ATOM      6  C   UNL d   1      58.500   0.180  28.726  0.00  0.00     0.001 A 
ATOM      7  C   UNL d   1      57.368   0.682  29.435  0.00  0.00     0.001 C 
ENDROOT
BRANCH   1   8
ATOM      8  S   UNL d   1      57.899  -0.063  30.802  0.00  0.00     0.272 S 
ATOM      9  O   UNL d   1      57.450  -0.876  30.598  0.00  0.00    -0.200 OA
ATOM     10  O   UNL d   1      58.290   0.644  30.979  0.00  0.00    -0.200 OA
BRANCH   8  11
ATOM     11  N   UNL d   1      57.434  -0.051  31.488  0.00  0.00    -0.225 N 
ATOM     12  C   UNL d   1      57.482   0.587  31.998  0.00  0.00     0.118 A 
ATOM     13  C   UNL d   1      57.020   0.600  32.682  0.00  0.00     0.142 A 
ATOM     14  O   UNL d   1      56.509  -0.033  32.849  0.00  0.00    -0.300 OA
ATOM     15  C   UNL d   1      56.468  -0.673  32.327  0.00  0.00     0.142 A 
ATOM     16  C   UNL d   1      56.933  -0.686  31.640  0.00  0.00     0.118 A 
ENDBRANCH   8  11
ENDBRANCH   1   8
BRANCH   2  17
ATOM     17  C   UNL d   1      60.162  -1.066  29.383  0.00  0.00     0.280 C 
ATOM     18  N   UNL d   1      60.168  -1.818  29.055  0.00  0.00    -0.195 N 
ATOM     19  N   UNL d   1      60.808  -2.315  28.995  0.00  0.00    -0.163 NA
ATOM     20  C   UNL d   1      59.511  -2.199  28.726  0.00  0.00     0.088 A 
ATOM     21  C   UNL d   1      60.569  -3.015  28.629  0.00  0.00     0.103 A 
ATOM     22  C   UNL d   1      61.042  -3.667  28.461  0.00  0.00     0.022 C 
ATOM     23  C   UNL d   1      59.764  -2.941  28.463  0.00  0.00     0.040 A 
ATOM     24  C   UNL d   1      58.743  -1.895  28.669  0.00  0.00     0.021 C 
ATOM     25  O   UNL d   1      60.853  -0.746  29.694  0.00  0.00    -0.265 OA
ENDBRANCH   2  17
TORSDOF 3
ENDMDL
MODEL 2
REMARK VINA RESULT:      -3.3      1.179      4.409
REMARK  3 active torsions:
REMARK  status: ('A' for Active; 'I' for Inactive)
REMARK    1  A    between atoms: C_5  and  S_1 
REMARK    2  A    between atoms: N_7  and  S_1 
REMARK       I    between atoms: N_2  and  C_3 
REMARK    3  A    between atoms: C_3  and  C_9 
ROOT
ATOM      1  C   UNL d   1      58.462  -0.859  29.858  0.00  0.00     0.104 A 
ATOM      2  C   UNL d   1      57.535  -0.406  30.844  0.00  0.00     0.059 A 
ATOM      3  C   UNL d   1      57.995  -1.010  30.518  0.00  0.00     0.018 A 
ATOM      4  C   UNL d   1      58.474  -0.107  29.521  0.00  0.00     0.012 A 
ATOM      5  C   UNL d   1      57.545   0.348  30.509  0.00  0.00     0.005 A 
ATOM      6  C   UNL d   1      58.015   0.497  29.847  0.00  0.00     0.001 A 
ATOM      7  C   UNL d   1      58.941   0.043  28.861  0.00  0.00     0.001 C 
ENDROOT
BRANCH   1   8
ATOM      8  S   UNL d   1      58.917  -1.457  29.535  0.00  0.00     0.272 S 
ATOM      9  O   UNL d   1      58.145  -2.008  29.467  0.00  0.00    -0.200 OA
ATOM     10  O   UNL d   1      59.589  -0.978  29.594  0.00  0.00    -0.200 OA
BRANCH   8  11
ATOM     11  N   UNL d   1      59.327  -2.098  29.204  0.00  0.00    -0.225 N 
ATOM     12  C   UNL d   1      58.909  -2.707  28.854  0.00  0.00     0.118 A 
ATOM     13  C   UNL d   1      59.316  -3.345  28.524  0.00  0.00     0.142 A 
ATOM     14  O   UNL d   1      60.145  -3.366  28.549  0.00  0.00    -0.300 OA
ATOM     15  C   UNL d   1      60.558  -2.744  28.906  0.00  0.00     0.142 A 
ATOM     16  C   UNL d   1      60.149  -2.103  29.237  0.00  0.00     0.118 A 
ENDBRANCH   8  11
ENDBRANCH   1   8
BRANCH   2  17
ATOM     17  C   UNL d   1      57.064  -0.549  31.505  0.00  0.00     0.280 C 
ATOM     18  N   UNL d   1      57.206  -0.145  32.205  0.00  0.00    -0.195 N 
ATOM     19  N   UNL d   1      56.794  -0.223  32.901  0.00  0.00    -0.163 NA
ATOM     20  C   UNL d   1      57.802   0.417  32.317  0.00  0.00     0.088 A 
ATOM     21  C   UNL d   1      57.120   0.286  33.462  0.00  0.00     0.103 A 
ATOM     22  C   UNL d   1      56.871   0.382  34.240  0.00  0.00     0.022 C 
ATOM     23  C   UNL d   1      57.745   0.682  33.098  0.00  0.00     0.040 A 
ATOM     24  C   UNL d   1      58.354   0.670  31.754  0.00  0.00     0.021 C 
ATOM     25  O   UNL d   1      56.453  -1.097  31.462  0.00  0.00    -0.265 OA
ENDBRANCH   2  17
TORSDOF 3
ENDMDL
MODEL 3
REMARK VINA RESULT:      -2.7      1.074      4.264
REMARK  3 active torsions:
REMARK  status: ('A' for Active; 'I' for Inactive)
REMARK    1  A    between atoms: C_5  and  S_1 
REMARK    2  A    between atoms: N_7  and  S_1 
REMARK       I    between atoms: N_2  and  C_3 
REMARK    3  A    between atoms: C_3  and  C_9 
ROOT
ATOM      1  C   UNL d   1      58.624  -0.379  29.943  0.00  0.00     0.104 A 
ATOM      2  C   UNL d   1      58.031   0.224  31.093  0.00  0.00     0.059 A 
ATOM      3  C   UNL d   1      58.570  -0.307  30.761  0.00  0.00     0.018 A 
ATOM      4  C   UNL d   1      58.144   0.077  29.454  0.00  0.00     0.012 A 
ATOM      5  C   UNL d   1      57.548   0.682  30.605  0.00  0.00     0.005 A 
ATOM      6  C   UNL d   1      57.605   0.608  29.785  0.00  0.00     0.001 A 
ATOM      7  C   UNL d   1      58.199   0.006  28.636  0.00  0.00     0.001 C 
ENDROOT
BRANCH   1   8
ATOM      8  S   UNL d   1      59.158  -0.904  29.614  0.00  0.00     0.272 S 
ATOM      9  O   UNL d   1      58.503  -1.593  29.651  0.00  0.00    -0.200 OA
ATOM     10  O   UNL d   1      59.728  -0.306  29.582  0.00  0.00    -0.200 OA
BRANCH   8  11
ATOM     11  N   UNL d   1      59.655  -1.481  29.284  0.00  0.00    -0.225 N 
ATOM     12  C   UNL d   1      59.367  -2.235  29.152  0.00  0.00     0.118 A 
ATOM     13  C   UNL d   1      59.860  -2.809  28.823  0.00  0.00     0.142 A 
ATOM     14  O   UNL d   1      60.644  -2.620  28.630  0.00  0.00    -0.300 OA
ATOM     15  C   UNL d   1      60.926  -1.855  28.768  0.00  0.00     0.142 A 
ATOM     16  C   UNL d   1      60.430  -1.277  29.098  0.00  0.00     0.118 A 
ENDBRANCH   8  11
ENDBRANCH   1   8
BRANCH   2  17
ATOM     17  C   UNL d   1      57.971   0.301  31.911  0.00  0.00     0.280 C 
ATOM     18  N   UNL d   1      57.317  -0.003  32.304  0.00  0.00    -0.195 N 
ATOM     19  N   UNL d   1      57.176   0.029  33.104  0.00  0.00    -0.163 NA
ATOM     20  C   UNL d   1      56.685  -0.396  31.943  0.00  0.00     0.088 A 
ATOM     21  C   UNL d   1      56.456  -0.342  33.262  0.00  0.00     0.103 A 
ATOM     22  C   UNL d   1      56.104  -0.435  34.000  0.00  0.00     0.022 C 
ATOM     23  C   UNL d   1      56.154  -0.605  32.541  0.00  0.00     0.040 A 
ATOM     24  C   UNL d   1      56.599  -0.552  31.135  0.00  0.00     0.021 C 
ATOM     25  O   UNL d   1      58.565   0.682  32.332  0.00  0.00    -0.265 OA
ENDBRANCH   2  17
TORSDOF 3
ENDMDL
MODEL 4
REMARK VINA RESULT:      -2.3      1.064      1.491
REMARK  3 active torsions:
REMARK  status: ('A' for Active; 'I' for Inactive)
REMARK    1  A    between atoms: C_5  and  S_1 
REMARK    2  A    between atoms: N_7  and  S_1 
REMARK       I    between atoms: N_2  and  C_3 
REMARK    3  A    between atoms: C_3  and  C_9 
ROOT
ATOM      1  C   UNL d   1      57.521   0.089  31.088  0.00  0.00     0.104 A 
ATOM      2  C   UNL d   1      58.718   0.089  30.310  0.00  0.00     0.059 A 
ATOM      3  C   UNL d   1      58.316  -0.109  31.004  0.00  0.00     0.018 A 
ATOM      4  C   UNL d   1      57.126   0.484  30.484  0.00  0.00     0.012 A 
ATOM      5  C   UNL d   1      58.324   0.485  29.702  0.00  0.00     0.005 A 
ATOM      6  C   UNL d   1      57.527   0.682  29.790  0.00  0.00     0.001 A 
ATOM      7  C   UNL d   1      56.332   0.681  30.569  0.00  0.00     0.001 C 
ENDROOT
BRANCH   1   8
ATOM      8  S   UNL d   1      57.123  -0.107  31.776  0.00  0.00     0.272 S 
ATOM      9  O   UNL d   1      56.742  -0.861  31.340  0.00  0.00    -0.200 OA
ATOM     10  O   UNL d   1      57.455   0.549  32.155  0.00  0.00    -0.200 OA
BRANCH   8  11
ATOM     11  N   UNL d   1      56.696  -0.354  32.442  0.00  0.00    -0.225 N 
ATOM     12  C   UNL d   1      56.358  -1.099  32.452  0.00  0.00     0.118 A 
ATOM     13  C   UNL d   1      55.933  -1.346  33.115  0.00  0.00     0.142 A 
ATOM     14  O   UNL d   1      55.850  -0.840  33.767  0.00  0.00    -0.300 OA
ATOM     15  C   UNL d   1      56.196  -0.089  33.747  0.00  0.00     0.142 A 
ATOM     16  C   UNL d   1      56.624   0.159  33.081  0.00  0.00     0.118 A 
ENDBRANCH   8  11
ENDBRANCH   1   8
BRANCH   2  17
ATOM     17  C   UNL d   1      59.513  -0.105  30.218  0.00  0.00     0.280 C 
ATOM     18  N   UNL d   1      59.733  -0.686  29.681  0.00  0.00    -0.195 N 
ATOM     19  N   UNL d   1      60.490  -0.940  29.526  0.00  0.00    -0.163 NA
ATOM     20  C   UNL d   1      59.212  -1.114  29.203  0.00  0.00     0.088 A 
ATOM     21  C   UNL d   1      60.460  -1.530  28.951  0.00  0.00     0.103 A 
ATOM     22  C   UNL d   1      61.100  -1.938  28.632  0.00  0.00     0.022 C 
ATOM     23  C   UNL d   1      59.667  -1.637  28.751  0.00  0.00     0.040 A 
ATOM     24  C   UNL d   1      58.388  -1.037  29.179  0.00  0.00     0.021 C 
ATOM     25  O   UNL d   1      60.085   0.283  30.663  0.00  0.00    -0.265 OA
ENDBRANCH   2  17
TORSDOF 3
ENDMDL
MODEL 5
REMARK VINA RESULT:      -1.2      2.155      3.389
REMARK  3 active torsions:
REMARK  status: ('A' for Active; 'I' for Inactive)
REMARK    1  A    between atoms: C_5  and  S_1 
REMARK    2  A    between atoms: N_7  and  S_1 
REMARK       I    between atoms: N_2  and  C_3 
REMARK    3  A    between atoms: C_3  and  C_9 
ROOT
ATOM      1  C   UNL d   1      56.435  -0.384  32.729  0.00  0.00     0.104 A 
ATOM      2  C   UNL d   1      57.547  -0.236  31.846  0.00  0.00     0.059 A 
ATOM      3  C   UNL d   1      57.087   0.047  32.471  0.00  0.00     0.018 A 
ATOM      4  C   UNL d   1      56.239  -1.097  32.366  0.00  0.00     0.012 A 
ATOM      5  C   UNL d   1      57.353  -0.950  31.480  0.00  0.00     0.005 A 
ATOM      6  C   UNL d   1      56.699  -1.380  31.741  0.00  0.00     0.001 A 
ATOM      7  C   UNL d   1      55.588  -1.527  32.625  0.00  0.00     0.001 C 
ENDROOT
BRANCH   1   8
ATOM      8  S   UNL d   1      55.980  -0.103  33.348  0.00  0.00     0.272 S 
ATOM      9  O   UNL d   1      56.625  -0.425  33.968  0.00  0.00    -0.200 OA
ATOM     10  O   UNL d   1      55.419   0.177  32.809  0.00  0.00    -0.200 OA
BRANCH   8  11
ATOM     11  N   UNL d   1      55.562   0.160  34.014  0.00  0.00    -0.225 N 
ATOM     12  C   UNL d   1      55.955   0.261  34.724  0.00  0.00     0.118 A 
ATOM     13  C   UNL d   1      55.540   0.522  35.388  0.00  0.00     0.142 A 
ATOM     14  O   UNL d   1      54.728   0.681  35.333  0.00  0.00    -0.300 OA
ATOM     15  C   UNL d   1      54.340   0.576  34.610  0.00  0.00     0.142 A 
ATOM     16  C   UNL d   1      54.757   0.313  33.943  0.00  0.00     0.118 A 
ENDBRANCH   8  11
ENDBRANCH   1   8
BRANCH   2  17
ATOM     17  C   UNL d   1      58.201   0.189  31.581  0.00  0.00     0.280 C 
ATOM     18  N   UNL d   1      58.446   0.121  30.801  0.00  0.00    -0.195 N 
ATOM     19  N   UNL d   1      59.077   0.501  30.457  0.00  0.00    -0.163 NA
ATOM     20  C   UNL d   1      58.085  -0.355  30.229  0.00  0.00     0.088 A 
ATOM     21  C   UNL d   1      59.125   0.274  29.665  0.00  0.00     0.103 A 
ATOM     22  C   UNL d   1      59.682   0.527  29.115  0.00  0.00     0.022 C 
ATOM     23  C   UNL d   1      58.509  -0.257  29.526  0.00  0.00     0.040 A 
ATOM     24  C   UNL d   1      57.423  -0.839  30.337  0.00  0.00     0.021 C 
ATOM     25  O   UNL d   1      58.606   0.682  32.099  0.00  0.00    -0.265 OA
ENDBRANCH   2  17
TORSDOF 3
ENDMDL
