MODEL 1
REMARK VINA RESULT:      58.8      0.000      0.000
REMARK  5 active torsions:
REMARK  status: ('A' for Active; 'I' for Inactive)
REMARK    1  A    between atoms: N_7  and  C_1 
REMARK    2  A    between atoms: C_4  and  C_3 
REMARK       I    between atoms: C_8  and  N_7 
REMARK    3  A    between atoms: C_15  and  C_8 
REMARK    4  A    between atoms: O_20  and  C_15 
REMARK    5  A    between atoms: C_22  and  O_20 
ROOT
ATOM      1  C   UNL d   1     -49.342  27.162  33.676  0.00  0.00     0.204 A 
ATOM      2  S   UNL d   1     -50.106  26.858  33.680  0.00  0.00    -0.031 SA
ATOM      3  C   UNL d   1     -50.060  26.042  33.513  0.00  0.00     0.119 A 
ATOM      4  N   UNL d   1     -48.816  26.544  33.507  0.00  0.00    -0.123 NA
ATOM      5  N   UNL d   1     -49.274  25.863  33.411  0.00  0.00    -0.143 NA
ENDROOT
BRANCH   1   6
ATOM      6  N   UNL d   1     -49.078  27.934  33.807  0.00  0.00    -0.248 N 
ATOM      7  C   UNL d   1     -48.381  28.039  34.312  0.00  0.00     0.291 C 
ATOM      8  O   UNL d   1     -47.999  27.353  34.650  0.00  0.00    -0.264 OA
ATOM      9  C   UNL d   1     -49.458  28.571  33.475  0.00  0.00     0.104 C 
BRANCH   7  10
ATOM     10  C   UNL d   1     -48.094  28.799  34.462  0.00  0.00     0.184 C 
BRANCH  10  11
ATOM     11  O   UNL d   1     -48.183  29.118  35.231  0.00  0.00    -0.300 OA
BRANCH  11  12
ATOM     12  C   UNL d   1     -47.799  29.842  35.380  0.00  0.00     0.100 A 
ATOM     13  C   UNL d   1     -47.196  29.934  35.935  0.00  0.00     0.025 A 
ATOM     14  C   UNL d   1     -46.836  30.653  36.062  0.00  0.00     0.002 A 
ATOM     15  C   UNL d   1     -47.059  31.339  35.635  0.00  0.00     0.000 A 
ATOM     16  C   UNL d   1     -47.683  31.256  35.057  0.00  0.00     0.002 A 
ATOM     17  C   UNL d   1     -48.055  30.501  34.930  0.00  0.00     0.025 A 
ENDBRANCH  11  12
ENDBRANCH  10  11
ENDBRANCH   7  10
ENDBRANCH   1   6
BRANCH   3  18
ATOM     18  C   UNL d   1     -50.647  25.465  33.448  0.00  0.00     0.081 A 
ATOM     19  C   UNL d   1     -50.779  24.670  33.410  0.00  0.00    -0.017 A 
ATOM     20  C   UNL d   1     -51.517  24.413  33.344  0.00  0.00    -0.008 A 
ATOM     21  C   UNL d   1     -51.617  23.588  33.308  0.00  0.00    -0.001 A 
ATOM     22  C   UNL d   1     -52.026  25.044  33.328  0.00  0.00    -0.022 A 
ATOM     23  C   UNL d   1     -51.712  24.394  33.329  0.00  0.00    -0.008 A 
ATOM     24  C   UNL d   1     -51.032  24.760  33.394  0.00  0.00    -0.017 A 
ATOM     25  C   UNL d   1     -52.345  25.139  33.306  0.00  0.00    -0.022 A 
ATOM     26  C   UNL d   1     -51.999  25.885  33.359  0.00  0.00     0.045 A 
ATOM     27  C   UNL d   1     -51.204  26.067  33.426  0.00  0.00     0.023 A 
ENDBRANCH   3  18
TORSDOF 5
ENDMDL
MODEL 2
REMARK VINA RESULT:      61.2      1.582      6.269
REMARK  5 active torsions:
REMARK  status: ('A' for Active; 'I' for Inactive)
REMARK    1  A    between atoms: N_7  and  C_1 
REMARK    2  A    between atoms: C_4  and  C_3 
REMARK       I    between atoms: C_8  and  N_7 
REMARK    3  A    between atoms: C_15  and  C_8 
REMARK    4  A    between atoms: O_20  and  C_15 
REMARK    5  A    between atoms: C_22  and  O_20 
ROOT
ATOM      1  C   UNL d   1     -48.391  29.250  34.891  0.00  0.00     0.204 A 
ATOM      2  S   UNL d   1     -48.533  29.914  34.428  0.00  0.00    -0.031 SA
ATOM      3  C   UNL d   1     -48.046  30.532  34.706  0.00  0.00     0.119 A 
ATOM      4  N   UNL d   1     -47.819  29.445  35.459  0.00  0.00    -0.123 NA
ATOM      5  N   UNL d   1     -47.618  30.236  35.330  0.00  0.00    -0.143 NA
ENDROOT
BRANCH   1   6
ATOM      6  N   UNL d   1     -48.724  28.495  34.852  0.00  0.00    -0.248 N 
ATOM      7  C   UNL d   1     -49.189  28.298  34.147  0.00  0.00     0.291 C 
ATOM      8  O   UNL d   1     -49.285  28.881  33.530  0.00  0.00    -0.264 OA
ATOM      9  C   UNL d   1     -48.620  27.957  35.452  0.00  0.00     0.104 C 
BRANCH   7  10
ATOM     10  C   UNL d   1     -49.535  27.550  34.079  0.00  0.00     0.184 C 
BRANCH  10  11
ATOM     11  O   UNL d   1     -49.803  27.298  33.327  0.00  0.00    -0.300 OA
BRANCH  11  12
ATOM     12  C   UNL d   1     -50.400  26.718  33.321  0.00  0.00     0.100 A 
ATOM     13  C   UNL d   1     -51.206  26.891  33.322  0.00  0.00     0.025 A 
ATOM     14  C   UNL d   1     -51.770  26.304  33.315  0.00  0.00     0.002 A 
ATOM     15  C   UNL d   1     -51.561  25.491  33.307  0.00  0.00     0.000 A 
ATOM     16  C   UNL d   1     -50.728  25.301  33.306  0.00  0.00     0.002 A 
ATOM     17  C   UNL d   1     -50.145  25.920  33.313  0.00  0.00     0.025 A 
ENDBRANCH  11  12
ENDBRANCH  10  11
ENDBRANCH   7  10
ENDBRANCH   1   6
BRANCH   3  18
ATOM     18  C   UNL d   1     -47.958  31.313  34.452  0.00  0.00     0.081 A 
ATOM     19  C   UNL d   1     -48.240  31.868  33.939  0.00  0.00    -0.017 A 
ATOM     20  C   UNL d   1     -47.916  32.582  33.942  0.00  0.00    -0.008 A 
ATOM     21  C   UNL d   1     -48.231  33.130  33.400  0.00  0.00    -0.001 A 
ATOM     22  C   UNL d   1     -47.327  32.614  34.498  0.00  0.00    -0.022 A 
ATOM     23  C   UNL d   1     -47.809  32.744  33.976  0.00  0.00    -0.008 A 
ATOM     24  C   UNL d   1     -48.048  32.011  34.062  0.00  0.00    -0.017 A 
ATOM     25  C   UNL d   1     -47.094  32.805  34.640  0.00  0.00    -0.022 A 
ATOM     26  C   UNL d   1     -46.962  32.113  35.068  0.00  0.00     0.045 A 
ATOM     27  C   UNL d   1     -47.353  31.398  35.000  0.00  0.00     0.023 A 
ENDBRANCH   3  18
TORSDOF 5
ENDMDL
