MODEL 1
REMARK VINA RESULT:      45.8      0.000      0.000
REMARK  4 active torsions:
REMARK  status: ('A' for Active; 'I' for Inactive)
REMARK    1  A    between atoms: C_2  and  C_1 
REMARK    2  A    between atoms: N_12  and  C_6 
REMARK    3  A    between atoms: C_16  and  N_12 
REMARK    4  A    between atoms: O_25  and  C_17 
ROOT
ATOM      1  C   UNL d   1      13.749  14.479  -4.012  0.00  0.00     0.082 A 
ATOM      2  C   UNL d   1      13.713  14.892  -4.724  0.00  0.00     0.302 A 
ATOM      3  C   UNL d   1      14.086  14.834  -3.347  0.00  0.00     0.009 A 
ATOM      4  O   UNL d   1      14.015  15.663  -4.778  0.00  0.00    -0.273 OA
ATOM      5  C   UNL d   1      14.390  15.604  -3.392  0.00  0.00     0.025 A 
ATOM      6  C   UNL d   1      14.350  16.014  -4.115  0.00  0.00     0.103 A 
ATOM      7  O   UNL d   1      13.374  14.539  -5.398  0.00  0.00    -0.259 OA
ATOM      8  C   UNL d   1      14.726  15.953  -2.725  0.00  0.00     0.026 A 
ATOM      9  C   UNL d   1      14.655  16.781  -4.153  0.00  0.00     0.027 A 
ATOM     10  C   UNL d   1      15.026  16.719  -2.778  0.00  0.00     0.094 A 
ATOM     11  C   UNL d   1      14.990  17.135  -3.497  0.00  0.00     0.026 A 
ENDROOT
BRANCH   1  12
ATOM     12  C   UNL d   1      13.445  13.710  -3.967  0.00  0.00     0.095 A 
ATOM     13  N   UNL d   1      13.595  13.162  -3.369  0.00  0.00    -0.221 NA
ATOM     14  C   UNL d   1      13.179  12.473  -3.551  0.00  0.00     0.194 A 
ATOM     15  S   UNL d   1      12.771  12.592  -4.263  0.00  0.00    -0.046 SA
ATOM     16  C   UNL d   1      12.938  13.364  -4.521  0.00  0.00     0.058 A 
BRANCH  14  17
ATOM     17  N   UNL d   1      13.171  11.779  -3.099  0.00  0.00    -0.221 NA
BRANCH  17  18
ATOM     18  C   UNL d   1      13.482  11.779  -2.335  0.00  0.00     0.084 A 
ATOM     19  C   UNL d   1      14.298  11.779  -2.232  0.00  0.00     0.020 A 
ATOM     20  C   UNL d   1      14.609  11.779  -1.459  0.00  0.00     0.013 A 
ATOM     21  C   UNL d   1      14.100  11.779  -0.807  0.00  0.00     0.058 A 
ATOM     22  C   UNL d   1      13.284  11.779  -0.931  0.00  0.00     0.013 A 
ATOM     23 CL   UNL d   1      14.402  11.779  -0.043  0.00  0.00    -0.082 Cl
ATOM     24  C   UNL d   1      12.973  11.779  -1.690  0.00  0.00     0.020 A 
ENDBRANCH  17  18
ENDBRANCH  14  17
ENDBRANCH   1  12
BRANCH  10  25
ATOM     25  O   UNL d   1      15.363  17.073  -2.114  0.00  0.00    -0.328 OA
ATOM     26  C   UNL d   1      15.133  16.845  -1.356  0.00  0.00     0.181 C 
ENDBRANCH  10  25
TORSDOF 4
ENDMDL
MODEL 2
REMARK VINA RESULT:      48.2      2.273      4.266
REMARK  4 active torsions:
REMARK  status: ('A' for Active; 'I' for Inactive)
REMARK    1  A    between atoms: C_2  and  C_1 
REMARK    2  A    between atoms: N_12  and  C_6 
REMARK    3  A    between atoms: C_16  and  N_12 
REMARK    4  A    between atoms: O_25  and  C_17 
ROOT
ATOM      1  C   UNL d   1      13.664  12.856  -3.131  0.00  0.00     0.082 A 
ATOM      2  C   UNL d   1      13.289  12.145  -2.950  0.00  0.00     0.302 A 
ATOM      3  C   UNL d   1      14.167  13.208  -2.579  0.00  0.00     0.009 A 
ATOM      4  O   UNL d   1      13.414  11.779  -2.215  0.00  0.00    -0.273 OA
ATOM      5  C   UNL d   1      14.297  12.850  -1.843  0.00  0.00     0.025 A 
ATOM      6  C   UNL d   1      13.915  12.132  -1.667  0.00  0.00     0.103 A 
ATOM      7  O   UNL d   1      12.781  11.785  -3.503  0.00  0.00    -0.259 OA
ATOM      8  C   UNL d   1      14.800  13.206  -1.295  0.00  0.00     0.026 A 
ATOM      9  C   UNL d   1      14.048  11.781  -0.932  0.00  0.00     0.027 A 
ATOM     10  C   UNL d   1      14.924  12.845  -0.566  0.00  0.00     0.094 A 
ATOM     11  C   UNL d   1      14.545  12.127  -0.383  0.00  0.00     0.026 A 
ENDROOT
BRANCH   1  12
ATOM     12  C   UNL d   1      13.535  13.213  -3.867  0.00  0.00     0.095 A 
ATOM     13  N   UNL d   1      13.516  14.024  -4.017  0.00  0.00    -0.221 NA
ATOM     14  C   UNL d   1      13.370  14.125  -4.823  0.00  0.00     0.194 A 
ATOM     15  S   UNL d   1      13.299  13.378  -5.174  0.00  0.00    -0.046 SA
ATOM     16  C   UNL d   1      13.402  12.809  -4.577  0.00  0.00     0.058 A 
BRANCH  14  17
ATOM     17  N   UNL d   1      13.307  14.852  -5.215  0.00  0.00    -0.221 NA
BRANCH  17  18
ATOM     18  C   UNL d   1      13.850  15.454  -5.063  0.00  0.00     0.084 A 
ATOM     19  C   UNL d   1      13.989  15.685  -4.286  0.00  0.00     0.020 A 
ATOM     20  C   UNL d   1      14.538  16.292  -4.137  0.00  0.00     0.013 A 
ATOM     21  C   UNL d   1      14.938  16.656  -4.764  0.00  0.00     0.058 A 
ATOM     22  C   UNL d   1      14.785  16.410  -5.537  0.00  0.00     0.013 A 
ATOM     23 CL   UNL d   1      15.480  17.256  -4.621  0.00  0.00    -0.082 Cl
ATOM     24  C   UNL d   1      14.244  15.812  -5.690  0.00  0.00     0.020 A 
ENDBRANCH  17  18
ENDBRANCH  14  17
ENDBRANCH   1  12
BRANCH  10  25
ATOM     25  O   UNL d   1      15.426  13.196  -0.014  0.00  0.00    -0.328 OA
ATOM     26  C   UNL d   1      15.636  13.990  -0.086  0.00  0.00     0.181 C 
ENDBRANCH  10  25
TORSDOF 4
ENDMDL
