MODEL 1
REMARK VINA RESULT:      -4.3      0.000      0.000
REMARK  3 active torsions:
REMARK  status: ('A' for Active; 'I' for Inactive)
REMARK    1  A    between atoms: C_7  and  C_3 
REMARK    2  A    between atoms: N_5  and  C_8 
REMARK    3  A    between atoms: C_13  and  C_7 
ROOT
ATOM      1  C   UNL d   1      60.008  -7.113  35.858  0.00  0.00     0.127 A 
ATOM      2  C   UNL d   1      60.055  -8.522  35.534  0.00  0.00     0.002 A 
ATOM      3  C   UNL d   1      59.669  -7.762  35.477  0.00  0.00     0.024 A 
ATOM      4  C   UNL d   1      60.699  -7.196  36.282  0.00  0.00     0.024 A 
ATOM      5  C   UNL d   1      61.069  -7.953  36.329  0.00  0.00     0.002 A 
ATOM      6  C   UNL d   1      60.730  -8.605  35.947  0.00  0.00     0.000 A 
ENDROOT
BRANCH   2   7
ATOM      7  C   UNL d   1      59.710  -9.163  35.151  0.00  0.00     0.011 C 
BRANCH   7   8
ATOM      8  C   UNL d   1      59.924  -9.314  34.353  0.00  0.00     0.092 A 
ATOM      9  C   UNL d   1      59.404  -9.614  33.855  0.00  0.00     0.288 A 
ATOM     10  N   UNL d   1      59.777  -9.696  33.124  0.00  0.00    -0.163 NA
ATOM     11  O   UNL d   1      58.604  -9.818  34.031  0.00  0.00    -0.265 OA
ATOM     12  C   UNL d   1      60.540  -9.435  33.202  0.00  0.00     0.313 A 
ATOM     13  S   UNL d   1      60.659  -9.191  33.955  0.00  0.00    -0.021 SA
ATOM     14  O   UNL d   1      61.132  -9.414  32.596  0.00  0.00    -0.258 OA
ENDBRANCH   7   8
ENDBRANCH   2   7
BRANCH   1  15
ATOM     15  N   UNL d   1      59.654  -6.376  35.816  0.00  0.00    -0.114 N 
ATOM     16  O   UNL d   1      58.873  -6.302  35.561  0.00  0.00    -0.532 OA
ATOM     17  O   UNL d   1      60.076  -5.712  36.026  0.00  0.00    -0.532 OA
ENDBRANCH   1  15
TORSDOF 3
ENDMDL
MODEL 2
REMARK VINA RESULT:      -4.2      8.823      9.499
REMARK  3 active torsions:
REMARK  status: ('A' for Active; 'I' for Inactive)
REMARK    1  A    between atoms: C_7  and  C_3 
REMARK    2  A    between atoms: N_5  and  C_8 
REMARK    3  A    between atoms: C_13  and  C_7 
ROOT
ATOM      1  C   UNL d   1      56.465  -0.532  32.648  0.00  0.00     0.127 A 
ATOM      2  C   UNL d   1      57.181   0.199  31.626  0.00  0.00     0.002 A 
ATOM      3  C   UNL d   1      56.645  -0.427  31.850  0.00  0.00     0.024 A 
ATOM      4  C   UNL d   1      56.793  -0.047  33.214  0.00  0.00     0.024 A 
ATOM      5  C   UNL d   1      57.321   0.568  32.979  0.00  0.00     0.002 A 
ATOM      6  C   UNL d   1      57.503   0.674  32.177  0.00  0.00     0.000 A 
ENDROOT
BRANCH   2   7
ATOM      7  C   UNL d   1      57.355   0.296  30.828  0.00  0.00     0.011 C 
BRANCH   7   8
ATOM      8  C   UNL d   1      58.160   0.297  30.592  0.00  0.00     0.092 A 
ATOM      9  C   UNL d   1      58.376  -0.042  29.923  0.00  0.00     0.288 A 
ATOM     10  N   UNL d   1      59.192   0.051  29.848  0.00  0.00    -0.163 NA
ATOM     11  O   UNL d   1      57.867  -0.433  29.375  0.00  0.00    -0.265 OA
ATOM     12  C   UNL d   1      59.458   0.458  30.495  0.00  0.00     0.313 A 
ATOM     13  S   UNL d   1      58.839   0.624  30.975  0.00  0.00    -0.021 SA
ATOM     14  O   UNL d   1      60.259   0.682  30.659  0.00  0.00    -0.258 OA
ENDBRANCH   7   8
ENDBRANCH   2   7
BRANCH   1  15
ATOM     15  N   UNL d   1      55.953  -1.127  32.883  0.00  0.00    -0.114 N 
ATOM     16  O   UNL d   1      56.192  -1.916  32.861  0.00  0.00    -0.532 OA
ATOM     17  O   UNL d   1      55.205  -0.937  33.140  0.00  0.00    -0.532 OA
ENDBRANCH   1  15
TORSDOF 3
ENDMDL
MODEL 3
REMARK VINA RESULT:      -3.3      8.641      9.611
REMARK  3 active torsions:
REMARK  status: ('A' for Active; 'I' for Inactive)
REMARK    1  A    between atoms: C_7  and  C_3 
REMARK    2  A    between atoms: N_5  and  C_8 
REMARK    3  A    between atoms: C_13  and  C_7 
ROOT
ATOM      1  C   UNL d   1      57.792  -0.602  30.446  0.00  0.00     0.127 A 
ATOM      2  C   UNL d   1      57.209  -0.417  31.756  0.00  0.00     0.002 A 
ATOM      3  C   UNL d   1      57.570  -0.925  31.172  0.00  0.00     0.024 A 
ATOM      4  C   UNL d   1      57.669   0.188  30.288  0.00  0.00     0.024 A 
ATOM      5  C   UNL d   1      57.311   0.678  30.875  0.00  0.00     0.002 A 
ATOM      6  C   UNL d   1      57.087   0.354  31.605  0.00  0.00     0.000 A 
ENDROOT
BRANCH   2   7
ATOM      7  C   UNL d   1      56.991  -0.748  32.477  0.00  0.00     0.011 C 
BRANCH   7   8
ATOM      8  C   UNL d   1      56.245  -0.542  32.802  0.00  0.00     0.092 A 
ATOM      9  C   UNL d   1      55.727  -1.097  32.985  0.00  0.00     0.288 A 
ATOM     10  N   UNL d   1      55.057  -0.722  33.288  0.00  0.00    -0.163 NA
ATOM     11  O   UNL d   1      55.832  -1.929  32.891  0.00  0.00    -0.265 OA
ATOM     12  C   UNL d   1      55.192   0.076  33.280  0.00  0.00     0.313 A 
ATOM     13  S   UNL d   1      55.922   0.217  32.983  0.00  0.00    -0.021 SA
ATOM     14  O   UNL d   1      54.659   0.681  33.539  0.00  0.00    -0.258 OA
ENDBRANCH   7   8
ENDBRANCH   2   7
BRANCH   1  15
ATOM     15  N   UNL d   1      58.140  -1.072  29.872  0.00  0.00    -0.114 N 
ATOM     16  O   UNL d   1      58.127  -1.894  29.941  0.00  0.00    -0.532 OA
ATOM     17  O   UNL d   1      58.501  -0.724  29.230  0.00  0.00    -0.532 OA
ENDBRANCH   1  15
TORSDOF 3
ENDMDL
MODEL 4
REMARK VINA RESULT:      -2.8      8.903      9.428
REMARK  3 active torsions:
REMARK  status: ('A' for Active; 'I' for Inactive)
REMARK    1  A    between atoms: C_7  and  C_3 
REMARK    2  A    between atoms: N_5  and  C_8 
REMARK    3  A    between atoms: C_13  and  C_7 
ROOT
ATOM      1  C   UNL d   1      58.147   0.321  30.027  0.00  0.00     0.127 A 
ATOM      2  C   UNL d   1      59.117  -0.372  29.208  0.00  0.00     0.002 A 
ATOM      3  C   UNL d   1      58.790  -0.194  29.977  0.00  0.00     0.024 A 
ATOM      4  C   UNL d   1      57.829   0.654  29.355  0.00  0.00     0.024 A 
ATOM      5  C   UNL d   1      58.163   0.469  28.602  0.00  0.00     0.002 A 
ATOM      6  C   UNL d   1      58.809  -0.048  28.550  0.00  0.00     0.000 A 
ENDROOT
BRANCH   2   7
ATOM      7  C   UNL d   1      59.757  -0.886  29.168  0.00  0.00     0.011 C 
BRANCH   7   8
ATOM      8  C   UNL d   1      59.606  -1.708  29.088  0.00  0.00     0.092 A 
ATOM      9  C   UNL d   1      60.193  -2.222  29.107  0.00  0.00     0.288 A 
ATOM     10  N   UNL d   1      59.868  -2.974  29.015  0.00  0.00    -0.163 NA
ATOM     11  O   UNL d   1      61.011  -2.041  29.203  0.00  0.00    -0.265 OA
ATOM     12  C   UNL d   1      59.066  -2.894  28.941  0.00  0.00     0.313 A 
ATOM     13  S   UNL d   1      58.874  -2.118  28.983  0.00  0.00    -0.021 SA
ATOM     14  O   UNL d   1      58.502  -3.518  28.836  0.00  0.00    -0.258 OA
ENDBRANCH   7   8
ENDBRANCH   2   7
BRANCH   1  15
ATOM     15  N   UNL d   1      57.819   0.505  30.754  0.00  0.00    -0.114 N 
ATOM     16  O   UNL d   1      58.303   0.682  31.399  0.00  0.00    -0.532 OA
ATOM     17  O   UNL d   1      57.009   0.513  30.842  0.00  0.00    -0.532 OA
ENDBRANCH   1  15
TORSDOF 3
ENDMDL
MODEL 5
REMARK VINA RESULT:      -2.7      8.835      9.695
REMARK  3 active torsions:
REMARK  status: ('A' for Active; 'I' for Inactive)
REMARK    1  A    between atoms: C_7  and  C_3 
REMARK    2  A    between atoms: N_5  and  C_8 
REMARK    3  A    between atoms: C_13  and  C_7 
ROOT
ATOM      1  C   UNL d   1      59.360  -2.811  28.806  0.00  0.00     0.127 A 
ATOM      2  C   UNL d   1      59.524  -1.382  28.667  0.00  0.00     0.002 A 
ATOM      3  C   UNL d   1      59.023  -2.073  28.657  0.00  0.00     0.024 A 
ATOM      4  C   UNL d   1      60.156  -2.881  28.960  0.00  0.00     0.024 A 
ATOM      5  C   UNL d   1      60.640  -2.188  28.967  0.00  0.00     0.002 A 
ATOM      6  C   UNL d   1      60.302  -1.446  28.817  0.00  0.00     0.000 A 
ENDROOT
BRANCH   2   7
ATOM      7  C   UNL d   1      59.180  -0.650  28.518  0.00  0.00     0.011 C 
BRANCH   7   8
ATOM      8  C   UNL d   1      58.925  -0.187  29.169  0.00  0.00     0.092 A 
ATOM      9  C   UNL d   1      58.272   0.237  29.123  0.00  0.00     0.288 A 
ATOM     10  N   UNL d   1      58.174   0.625  29.844  0.00  0.00    -0.163 NA
ATOM     11  O   UNL d   1      57.759   0.290  28.455  0.00  0.00    -0.265 OA
ATOM     12  C   UNL d   1      58.791   0.418  30.325  0.00  0.00     0.313 A 
ATOM     13  S   UNL d   1      59.274  -0.085  29.932  0.00  0.00    -0.021 SA
ATOM     14  O   UNL d   1      58.924   0.681  31.119  0.00  0.00    -0.258 OA
ENDBRANCH   7   8
ENDBRANCH   2   7
BRANCH   1  15
ATOM     15  N   UNL d   1      58.897  -3.487  28.802  0.00  0.00    -0.114 N 
ATOM     16  O   UNL d   1      58.124  -3.467  29.091  0.00  0.00    -0.532 OA
ATOM     17  O   UNL d   1      59.201  -4.183  28.509  0.00  0.00    -0.532 OA
ENDBRANCH   1  15
TORSDOF 3
ENDMDL
MODEL 6
REMARK VINA RESULT:      -2.7      8.467      9.409
REMARK  3 active torsions:
REMARK  status: ('A' for Active; 'I' for Inactive)
REMARK    1  A    between atoms: C_7  and  C_3 
REMARK    2  A    between atoms: N_5  and  C_8 
REMARK    3  A    between atoms: C_13  and  C_7 
ROOT
ATOM      1  C   UNL d   1      60.145  -3.234  28.972  0.00  0.00     0.127 A 
ATOM      2  C   UNL d   1      59.504  -1.988  28.614  0.00  0.00     0.002 A 
ATOM      3  C   UNL d   1      60.196  -2.417  28.871  0.00  0.00     0.024 A 
ATOM      4  C   UNL d   1      59.445  -3.626  28.830  0.00  0.00     0.024 A 
ATOM      5  C   UNL d   1      58.768  -3.189  28.577  0.00  0.00     0.002 A 
ATOM      6  C   UNL d   1      58.819  -2.368  28.475  0.00  0.00     0.000 A 
ENDROOT
BRANCH   2   7
ATOM      7  C   UNL d   1      59.564  -1.174  28.516  0.00  0.00     0.011 C 
BRANCH   7   8
ATOM      8  C   UNL d   1      59.200  -0.675  29.083  0.00  0.00     0.092 A 
ATOM      9  C   UNL d   1      59.500   0.028  29.242  0.00  0.00     0.288 A 
ATOM     10  N   UNL d   1      59.022   0.379  29.816  0.00  0.00    -0.163 NA
ATOM     11  O   UNL d   1      60.188   0.367  28.892  0.00  0.00    -0.265 OA
ATOM     12  C   UNL d   1      58.425  -0.137  29.995  0.00  0.00     0.313 A 
ATOM     13  S   UNL d   1      58.510  -0.801  29.555  0.00  0.00    -0.021 SA
ATOM     14  O   UNL d   1      57.800  -0.015  30.554  0.00  0.00    -0.258 OA
ENDBRANCH   7   8
ENDBRANCH   2   7
BRANCH   1  15
ATOM     15  N   UNL d   1      60.798  -3.664  29.217  0.00  0.00    -0.114 N 
ATOM     16  O   UNL d   1      61.117  -3.547  29.969  0.00  0.00    -0.532 OA
ATOM     17  O   UNL d   1      61.133  -4.210  28.715  0.00  0.00    -0.532 OA
ENDBRANCH   1  15
TORSDOF 3
ENDMDL
MODEL 7
REMARK VINA RESULT:      -2.0      8.930      9.798
REMARK  3 active torsions:
REMARK  status: ('A' for Active; 'I' for Inactive)
REMARK    1  A    between atoms: C_7  and  C_3 
REMARK    2  A    between atoms: N_5  and  C_8 
REMARK    3  A    between atoms: C_13  and  C_7 
ROOT
ATOM      1  C   UNL d   1      59.740  -0.729  29.240  0.00  0.00     0.127 A 
ATOM      2  C   UNL d   1      58.471  -0.233  29.725  0.00  0.00     0.002 A 
ATOM      3  C   UNL d   1      59.012  -0.882  29.595  0.00  0.00     0.024 A 
ATOM      4  C   UNL d   1      59.942   0.028  29.016  0.00  0.00     0.024 A 
ATOM      5  C   UNL d   1      59.398   0.659  29.150  0.00  0.00     0.002 A 
ATOM      6  C   UNL d   1      58.665   0.507  29.507  0.00  0.00     0.000 A 
ENDROOT
BRANCH   2   7
ATOM      7  C   UNL d   1      57.747  -0.395  30.080  0.00  0.00     0.011 C 
BRANCH   7   8
ATOM      8  C   UNL d   1      57.665  -0.255  30.903  0.00  0.00     0.092 A 
ATOM      9  C   UNL d   1      57.219  -0.721  31.341  0.00  0.00     0.288 A 
ATOM     10  N   UNL d   1      57.251  -0.441  32.116  0.00  0.00    -0.163 NA
ATOM     11  O   UNL d   1      56.782  -1.390  31.072  0.00  0.00    -0.265 OA
ATOM     12  C   UNL d   1      57.733   0.210  32.128  0.00  0.00     0.313 A 
ATOM     13  S   UNL d   1      58.004   0.349  31.387  0.00  0.00    -0.021 SA
ATOM     14  O   UNL d   1      57.930   0.682  32.803  0.00  0.00    -0.258 OA
ENDBRANCH   7   8
ENDBRANCH   2   7
BRANCH   1  15
ATOM     15  N   UNL d   1      60.273  -1.337  29.107  0.00  0.00    -0.114 N 
ATOM     16  O   UNL d   1      61.084  -1.208  29.189  0.00  0.00    -0.532 OA
ATOM     17  O   UNL d   1      60.000  -2.074  28.893  0.00  0.00    -0.532 OA
ENDBRANCH   1  15
TORSDOF 3
ENDMDL
MODEL 8
REMARK VINA RESULT:      -1.4      8.743      9.214
REMARK  3 active torsions:
REMARK  status: ('A' for Active; 'I' for Inactive)
REMARK    1  A    between atoms: C_7  and  C_3 
REMARK    2  A    between atoms: N_5  and  C_8 
REMARK    3  A    between atoms: C_13  and  C_7 
ROOT
ATOM      1  C   UNL d   1      56.031   0.430  34.649  0.00  0.00     0.127 A 
ATOM      2  C   UNL d   1      56.254   0.177  33.243  0.00  0.00     0.002 A 
ATOM      3  C   UNL d   1      55.733   0.184  33.920  0.00  0.00     0.024 A 
ATOM      4  C   UNL d   1      56.808   0.663  34.723  0.00  0.00     0.024 A 
ATOM      5  C   UNL d   1      57.311   0.652  34.044  0.00  0.00     0.002 A 
ATOM      6  C   UNL d   1      57.013   0.405  33.312  0.00  0.00     0.000 A 
ENDROOT
BRANCH   2   7
ATOM      7  C   UNL d   1      55.949  -0.069  32.520  0.00  0.00     0.011 C 
BRANCH   7   8
ATOM      8  C   UNL d   1      56.475  -0.394  31.954  0.00  0.00     0.092 A 
ATOM      9  C   UNL d   1      56.460  -1.157  31.791  0.00  0.00     0.288 A 
ATOM     10  N   UNL d   1      57.037  -1.302  31.220  0.00  0.00    -0.163 NA
ATOM     11  O   UNL d   1      55.947  -1.731  32.137  0.00  0.00    -0.265 OA
ATOM     12  C   UNL d   1      57.399  -0.599  31.045  0.00  0.00     0.313 A 
ATOM     13  S   UNL d   1      57.070  -0.017  31.486  0.00  0.00    -0.021 SA
ATOM     14  O   UNL d   1      58.026  -0.477  30.489  0.00  0.00    -0.258 OA
ENDBRANCH   7   8
ENDBRANCH   2   7
BRANCH   1  15
ATOM     15  N   UNL d   1      55.548   0.443  35.311  0.00  0.00    -0.114 N 
ATOM     16  O   UNL d   1      55.845   0.222  36.049  0.00  0.00    -0.532 OA
ATOM     17  O   UNL d   1      54.772   0.676  35.240  0.00  0.00    -0.532 OA
ENDBRANCH   1  15
TORSDOF 3
ENDMDL
