MODEL 1
REMARK VINA RESULT:      40.7      0.000      0.000
REMARK  2 active torsions:
REMARK  status: ('A' for Active; 'I' for Inactive)
REMARK    1  A    between atoms: C_3  and  C_1 
REMARK       I    between atoms: N_7  and  C_3 
REMARK    2  A    between atoms: C_11  and  N_7 
ROOT
ATOM      1  C   UNL d   1      14.216  13.390  -2.402  0.00  0.00     0.121 A 
ATOM      2  C   UNL d   1      14.186  12.592  -2.193  0.00  0.00     0.305 A 
ATOM      3  C   UNL d   1      13.872  13.651  -3.116  0.00  0.00     0.012 A 
ATOM      4  O   UNL d   1      13.811  12.066  -2.701  0.00  0.00    -0.273 OA
ATOM      5  C   UNL d   1      13.507  13.104  -3.599  0.00  0.00     0.023 A 
ATOM      6  C   UNL d   1      13.476  12.306  -3.391  0.00  0.00     0.103 A 
ATOM      7  O   UNL d   1      14.517  12.326  -1.501  0.00  0.00    -0.259 OA
ATOM      8  C   UNL d   1      13.160  13.364  -4.316  0.00  0.00     0.002 A 
ATOM      9  C   UNL d   1      13.100  11.779  -3.902  0.00  0.00     0.025 A 
ATOM     10  C   UNL d   1      12.800  12.819  -4.792  0.00  0.00     0.000 A 
ATOM     11  C   UNL d   1      12.770  12.021  -4.583  0.00  0.00     0.002 A 
ENDROOT
BRANCH   1  12
ATOM     12  C   UNL d   1      14.589  13.940  -1.905  0.00  0.00     0.284 C 
ATOM     13  N   UNL d   1      14.425  14.747  -1.967  0.00  0.00    -0.208 NA
ATOM     14  O   UNL d   1      15.136  13.720  -1.329  0.00  0.00    -0.265 OA
BRANCH  13  15
ATOM     15  C   UNL d   1      14.796  15.283  -1.475  0.00  0.00     0.085 A 
ATOM     16  C   UNL d   1      14.961  15.092  -0.696  0.00  0.00     0.019 A 
ATOM     17  C   UNL d   1      15.335  15.630  -0.195  0.00  0.00     0.002 A 
ATOM     18  C   UNL d   1      15.544  16.375  -0.493  0.00  0.00     0.000 A 
ATOM     19  C   UNL d   1      15.388  16.592  -1.275  0.00  0.00     0.002 A 
ATOM     20  C   UNL d   1      15.909  16.907  -0.014  0.00  0.00     0.000 C 
ATOM     21  C   UNL d   1      15.012  16.041  -1.766  0.00  0.00     0.019 A 
ENDBRANCH  13  15
ENDBRANCH   1  12
TORSDOF 2
ENDMDL
MODEL 2
REMARK VINA RESULT:      41.6      1.920      3.631
REMARK  2 active torsions:
REMARK  status: ('A' for Active; 'I' for Inactive)
REMARK    1  A    between atoms: C_3  and  C_1 
REMARK       I    between atoms: N_7  and  C_3 
REMARK    2  A    between atoms: C_11  and  N_7 
ROOT
ATOM      1  C   UNL d   1      13.966  13.004  -2.672  0.00  0.00     0.121 A 
ATOM      2  C   UNL d   1      13.738  12.215  -2.592  0.00  0.00     0.305 A 
ATOM      3  C   UNL d   1      14.382  13.386  -2.058  0.00  0.00     0.012 A 
ATOM      4  O   UNL d   1      13.930  11.819  -1.898  0.00  0.00    -0.273 OA
ATOM      5  C   UNL d   1      14.558  12.965  -1.381  0.00  0.00     0.023 A 
ATOM      6  C   UNL d   1      14.330  12.176  -1.301  0.00  0.00     0.103 A 
ATOM      7  O   UNL d   1      13.333  11.833  -3.183  0.00  0.00    -0.259 OA
ATOM      8  C   UNL d   1      14.976  13.347  -0.763  0.00  0.00     0.002 A 
ATOM      9  C   UNL d   1      14.524  11.779  -0.604  0.00  0.00     0.025 A 
ATOM     10  C   UNL d   1      15.147  12.926  -0.096  0.00  0.00     0.000 A 
ATOM     11  C   UNL d   1      14.920  12.137  -0.015  0.00  0.00     0.002 A 
ENDROOT
BRANCH   1  12
ATOM     12  C   UNL d   1      13.783  13.425  -3.363  0.00  0.00     0.284 C 
ATOM     13  N   UNL d   1      13.847  14.249  -3.389  0.00  0.00    -0.208 NA
ATOM     14  O   UNL d   1      13.532  13.056  -4.056  0.00  0.00    -0.265 OA
BRANCH  13  15
ATOM     15  C   UNL d   1      13.666  14.657  -4.072  0.00  0.00     0.085 A 
ATOM     16  C   UNL d   1      12.962  14.521  -4.467  0.00  0.00     0.019 A 
ATOM     17  C   UNL d   1      12.774  14.931  -5.158  0.00  0.00     0.002 A 
ATOM     18  C   UNL d   1      13.314  15.489  -5.451  0.00  0.00     0.000 A 
ATOM     19  C   UNL d   1      14.031  15.644  -5.070  0.00  0.00     0.002 A 
ATOM     20  C   UNL d   1      13.142  15.894  -6.123  0.00  0.00     0.000 C 
ATOM     21  C   UNL d   1      14.205  15.224  -4.377  0.00  0.00     0.019 A 
ENDBRANCH  13  15
ENDBRANCH   1  12
TORSDOF 2
ENDMDL
MODEL 3
REMARK VINA RESULT:      41.8      0.641      4.376
REMARK  2 active torsions:
REMARK  status: ('A' for Active; 'I' for Inactive)
REMARK    1  A    between atoms: C_3  and  C_1 
REMARK       I    between atoms: N_7  and  C_3 
REMARK    2  A    between atoms: C_11  and  N_7 
ROOT
ATOM      1  C   UNL d   1      14.662  14.240  -1.637  0.00  0.00     0.121 A 
ATOM      2  C   UNL d   1      14.933  13.984  -0.901  0.00  0.00     0.305 A 
ATOM      3  C   UNL d   1      14.692  15.049  -1.838  0.00  0.00     0.012 A 
ATOM      4  O   UNL d   1      15.230  14.542  -0.375  0.00  0.00    -0.273 OA
ATOM      5  C   UNL d   1      14.993  15.579  -1.294  0.00  0.00     0.023 A 
ATOM      6  C   UNL d   1      15.263  15.323  -0.558  0.00  0.00     0.103 A 
ATOM      7  O   UNL d   1      14.909  13.200  -0.694  0.00  0.00    -0.259 OA
ATOM      8  C   UNL d   1      15.024  16.392  -1.494  0.00  0.00     0.002 A 
ATOM      9  C   UNL d   1      15.562  15.884  -0.032  0.00  0.00     0.025 A 
ATOM     10  C   UNL d   1      15.322  16.912  -0.953  0.00  0.00     0.000 A 
ATOM     11  C   UNL d   1      15.593  16.656  -0.217  0.00  0.00     0.002 A 
ENDROOT
BRANCH   1  12
ATOM     12  C   UNL d   1      14.357  13.696  -2.185  0.00  0.00     0.284 C 
ATOM     13  N   UNL d   1      13.977  13.952  -2.872  0.00  0.00    -0.208 NA
ATOM     14  O   UNL d   1      14.414  12.880  -2.080  0.00  0.00    -0.265 OA
BRANCH  13  15
ATOM     15  C   UNL d   1      13.680  13.411  -3.407  0.00  0.00     0.085 A 
ATOM     16  C   UNL d   1      13.749  12.607  -3.271  0.00  0.00     0.019 A 
ATOM     17  C   UNL d   1      13.450  12.056  -3.808  0.00  0.00     0.002 A 
ATOM     18  C   UNL d   1      13.075  12.331  -4.494  0.00  0.00     0.000 A 
ATOM     19  C   UNL d   1      12.992  13.138  -4.654  0.00  0.00     0.002 A 
ATOM     20  C   UNL d   1      12.780  11.805  -5.025  0.00  0.00     0.000 C 
ATOM     21  C   UNL d   1      13.297  13.679  -4.105  0.00  0.00     0.019 A 
ENDBRANCH  13  15
ENDBRANCH   1  12
TORSDOF 2
ENDMDL
