MODEL 1
REMARK VINA RESULT:      -4.3      0.000      0.000
REMARK  5 active torsions:
REMARK  status: ('A' for Active; 'I' for Inactive)
REMARK    1  A    between atoms: C_3  and  N_1 
REMARK    2  A    between atoms: C_4  and  N_1 
REMARK    3  A    between atoms: N_7  and  C_3 
REMARK    4  A    between atoms: C_10  and  N_7 
REMARK    5  A    between atoms: C_8  and  C_10 
ROOT
ATOM      1  N   UNL d   1      57.303   0.284  30.713  0.00  0.00    -0.198 NA
ENDROOT
BRANCH   1   2
ATOM      2  C   UNL d   1      57.335   0.228  31.542  0.00  0.00     0.222 C 
ATOM      3  S   UNL d   1      57.833   0.682  31.950  0.00  0.00    -0.037 SA
BRANCH   2   4
ATOM      4  N   UNL d   1      56.858  -0.287  31.921  0.00  0.00    -0.216 NA
BRANCH   4   5
ATOM      5  C   UNL d   1      56.535  -0.089  32.650  0.00  0.00     0.101 C 
BRANCH   5   6
ATOM      6  C   UNL d   1      55.930  -0.561  32.981  0.00  0.00     0.019 C 
ATOM      7  C   UNL d   1      55.982  -1.384  32.947  0.00  0.00     0.002 C 
ATOM      8  C   UNL d   1      55.281  -0.202  33.343  0.00  0.00     0.002 C 
ENDBRANCH   5   6
ENDBRANCH   4   5
ENDBRANCH   2   4
ENDBRANCH   1   2
BRANCH   1   9
ATOM      9  C   UNL d   1      57.964   0.082  30.264  0.00  0.00     0.167 A 
ATOM     10  N   UNL d   1      58.037  -0.678  29.950  0.00  0.00    -0.206 NA
ATOM     11  C   UNL d   1      58.699  -0.879  29.501  0.00  0.00     0.185 A 
ATOM     12  N   UNL d   1      58.760  -1.638  29.195  0.00  0.00    -0.127 N 
ATOM     13  C   UNL d   1      59.287  -0.320  29.366  0.00  0.00     0.041 A 
ATOM     14  C   UNL d   1      59.219   0.447  29.678  0.00  0.00     0.006 A 
ATOM     15  C   UNL d   1      58.551   0.644  30.130  0.00  0.00     0.039 A 
ENDBRANCH   1   9
TORSDOF 5
ENDMDL
MODEL 2
REMARK VINA RESULT:      -3.8      0.944      3.911
REMARK  5 active torsions:
REMARK  status: ('A' for Active; 'I' for Inactive)
REMARK    1  A    between atoms: C_3  and  N_1 
REMARK    2  A    between atoms: C_4  and  N_1 
REMARK    3  A    between atoms: N_7  and  C_3 
REMARK    4  A    between atoms: C_10  and  N_7 
REMARK    5  A    between atoms: C_8  and  C_10 
ROOT
ATOM      1  N   UNL d   1      57.522  -0.174  31.866  0.00  0.00    -0.198 NA
ENDROOT
BRANCH   1   2
ATOM      2  C   UNL d   1      57.475  -0.002  31.054  0.00  0.00     0.222 C 
ATOM      3  S   UNL d   1      57.146   0.671  30.810  0.00  0.00    -0.037 SA
BRANCH   2   4
ATOM      4  N   UNL d   1      57.766  -0.523  30.524  0.00  0.00    -0.216 NA
BRANCH   4   5
ATOM      5  C   UNL d   1      58.294  -0.272  29.948  0.00  0.00     0.101 C 
BRANCH   5   6
ATOM      6  C   UNL d   1      58.564  -0.807  29.365  0.00  0.00     0.019 C 
ATOM      7  C   UNL d   1      58.637  -1.610  29.545  0.00  0.00     0.002 C 
ATOM      8  C   UNL d   1      58.757  -0.532  28.612  0.00  0.00     0.002 C 
ENDBRANCH   5   6
ENDBRANCH   4   5
ENDBRANCH   2   4
ENDBRANCH   1   2
BRANCH   1   9
ATOM      9  C   UNL d   1      56.835  -0.348  32.288  0.00  0.00     0.167 A 
ATOM     10  N   UNL d   1      56.444   0.245  32.707  0.00  0.00    -0.206 NA
ATOM     11  C   UNL d   1      55.757   0.070  33.129  0.00  0.00     0.185 A 
ATOM     12  N   UNL d   1      55.377   0.669  33.542  0.00  0.00    -0.127 N 
ATOM     13  C   UNL d   1      55.462  -0.698  33.130  0.00  0.00     0.041 A 
ATOM     14  C   UNL d   1      55.852  -1.300  32.709  0.00  0.00     0.006 A 
ATOM     15  C   UNL d   1      56.543  -1.118  32.287  0.00  0.00     0.039 A 
ENDBRANCH   1   9
TORSDOF 5
ENDMDL
MODEL 3
REMARK VINA RESULT:      -3.7      0.773      1.108
REMARK  5 active torsions:
REMARK  status: ('A' for Active; 'I' for Inactive)
REMARK    1  A    between atoms: C_3  and  N_1 
REMARK    2  A    between atoms: C_4  and  N_1 
REMARK    3  A    between atoms: N_7  and  C_3 
REMARK    4  A    between atoms: C_10  and  N_7 
REMARK    5  A    between atoms: C_8  and  C_10 
ROOT
ATOM      1  N   UNL d   1      57.710  -0.232  29.955  0.00  0.00    -0.198 NA
ENDROOT
BRANCH   1   2
ATOM      2  C   UNL d   1      57.717   0.018  30.749  0.00  0.00     0.222 C 
ATOM      3  S   UNL d   1      58.112   0.666  30.957  0.00  0.00    -0.037 SA
BRANCH   2   4
ATOM      4  N   UNL d   1      57.320  -0.405  31.298  0.00  0.00    -0.216 NA
BRANCH   4   5
ATOM      5  C   UNL d   1      56.811  -0.026  31.819  0.00  0.00     0.101 C 
BRANCH   5   6
ATOM      6  C   UNL d   1      56.503  -0.440  32.477  0.00  0.00     0.019 C 
ATOM      7  C   UNL d   1      56.562  -0.115  33.233  0.00  0.00     0.002 C 
ATOM      8  C   UNL d   1      56.140  -1.172  32.368  0.00  0.00     0.002 C 
ENDBRANCH   5   6
ENDBRANCH   4   5
ENDBRANCH   2   4
ENDBRANCH   1   2
BRANCH   1   9
ATOM      9  C   UNL d   1      58.356  -0.645  29.652  0.00  0.00     0.167 A 
ATOM     10  N   UNL d   1      58.308  -1.460  29.532  0.00  0.00    -0.206 NA
ATOM     11  C   UNL d   1      58.954  -1.873  29.229  0.00  0.00     0.185 A 
ATOM     12  N   UNL d   1      58.894  -2.684  29.115  0.00  0.00    -0.127 N 
ATOM     13  C   UNL d   1      59.647  -1.471  29.044  0.00  0.00     0.041 A 
ATOM     14  C   UNL d   1      59.702  -0.650  29.162  0.00  0.00     0.006 A 
ATOM     15  C   UNL d   1      59.049  -0.239  29.468  0.00  0.00     0.039 A 
ENDBRANCH   1   9
TORSDOF 5
ENDMDL
MODEL 4
REMARK VINA RESULT:      -2.0      9.128      9.701
REMARK  5 active torsions:
REMARK  status: ('A' for Active; 'I' for Inactive)
REMARK    1  A    between atoms: C_3  and  N_1 
REMARK    2  A    between atoms: C_4  and  N_1 
REMARK    3  A    between atoms: N_7  and  C_3 
REMARK    4  A    between atoms: C_10  and  N_7 
REMARK    5  A    between atoms: C_8  and  C_10 
ROOT
ATOM      1  N   UNL d   1      58.786  -9.762  34.089  0.00  0.00    -0.198 NA
ENDROOT
BRANCH   1   2
ATOM      2  C   UNL d   1      59.401  -9.411  34.525  0.00  0.00     0.222 C 
ATOM      3  S   UNL d   1      60.111  -9.751  34.552  0.00  0.00    -0.037 SA
BRANCH   2   4
ATOM      4  N   UNL d   1      59.268  -8.727  34.914  0.00  0.00    -0.216 NA
BRANCH   4   5
ATOM      5  C   UNL d   1      59.588  -8.610  35.661  0.00  0.00     0.101 C 
BRANCH   5   6
ATOM      6  C   UNL d   1      59.697  -7.833  35.952  0.00  0.00     0.019 C 
ATOM      7  C   UNL d   1      60.408  -7.625  36.315  0.00  0.00     0.002 C 
ATOM      8  C   UNL d   1      59.093  -7.278  35.874  0.00  0.00     0.002 C 
ENDBRANCH   5   6
ENDBRANCH   4   5
ENDBRANCH   2   4
ENDBRANCH   1   2
BRANCH   1   9
ATOM      9  C   UNL d   1      58.817  -9.763  33.266  0.00  0.00     0.167 A 
ATOM     10  N   UNL d   1      58.121  -9.714  32.824  0.00  0.00    -0.206 NA
ATOM     11  C   UNL d   1      58.151  -9.715  32.000  0.00  0.00     0.185 A 
ATOM     12  N   UNL d   1      57.452  -9.666  31.573  0.00  0.00    -0.127 N 
ATOM     13  C   UNL d   1      58.878  -9.765  31.618  0.00  0.00     0.041 A 
ATOM     14  C   UNL d   1      59.582  -9.814  32.056  0.00  0.00     0.006 A 
ATOM     15  C   UNL d   1      59.546  -9.813  32.886  0.00  0.00     0.039 A 
ENDBRANCH   1   9
TORSDOF 5
ENDMDL
