MODEL 1
REMARK VINA RESULT:      -2.6      0.000      0.000
REMARK  5 active torsions:
REMARK  status: ('A' for Active; 'I' for Inactive)
REMARK    1  A    between atoms: C_2  and  N_8 
REMARK    2  A    between atoms: C_14  and  C_4 
REMARK    3  A    between atoms: S_13  and  C_5 
REMARK       I    between atoms: N_8  and  C_11 
REMARK    4  A    between atoms: C_11  and  C_17 
REMARK    5  A    between atoms: C_17  and  S_13 
ROOT
ATOM      1  O   UNL d   1      32.982  20.320 -22.641  0.00  0.00    -0.263 OA
ATOM      2  N   UNL d   1      33.042  19.699 -21.461  0.00  0.00    -0.120 NA
ATOM      3  C   UNL d   1      32.924  20.425 -21.817  0.00  0.00     0.205 A 
ATOM      4  C   UNL d   1      33.137  19.519 -22.777  0.00  0.00     0.236 A 
ATOM      5  N   UNL d   1      33.175  19.136 -22.053  0.00  0.00    -0.114 NA
ENDROOT
BRANCH   4   6
ATOM      6  S   UNL d   1      33.240  19.152 -23.522  0.00  0.00    -0.036 SA
BRANCH   6   7
ATOM      7  C   UNL d   1      32.692  18.595 -23.789  0.00  0.00     0.101 C 
BRANCH   7   8
ATOM      8  C   UNL d   1      32.498  18.565 -24.590  0.00  0.00     0.288 C 
ATOM      9  N   UNL d   1      32.100  17.910 -24.898  0.00  0.00    -0.182 NA
ATOM     10  O   UNL d   1      32.703  19.194 -25.095  0.00  0.00    -0.265 OA
BRANCH   9  11
ATOM     11  C   UNL d   1      31.898  17.291 -24.403  0.00  0.00     0.197 A 
ATOM     12  N   UNL d   1      32.356  16.685 -24.056  0.00  0.00    -0.221 NA
ATOM     13  C   UNL d   1      31.847  16.222 -23.611  0.00  0.00     0.090 A 
ATOM     14  C   UNL d   1      32.069  15.548 -23.165  0.00  0.00     0.021 C 
ATOM     15  C   UNL d   1      31.092  16.522 -23.672  0.00  0.00     0.058 A 
ATOM     16  S   UNL d   1      31.123  17.182 -24.161  0.00  0.00    -0.046 SA
ENDBRANCH   9  11
ENDBRANCH   7   8
ENDBRANCH   6   7
ENDBRANCH   4   6
BRANCH   3  17
ATOM     17  C   UNL d   1      32.771  21.164 -21.477  0.00  0.00     0.046 A 
ATOM     18  C   UNL d   1      32.251  21.235 -20.840  0.00  0.00     0.024 A 
ATOM     19  C   UNL d   1      32.101  21.972 -20.505  0.00  0.00     0.099 A 
ATOM     20  N   UNL d   1      32.475  22.649 -20.809  0.00  0.00    -0.242 NA
ATOM     21  C   UNL d   1      32.994  22.573 -21.446  0.00  0.00     0.099 A 
ATOM     22  C   UNL d   1      33.141  21.833 -21.779  0.00  0.00     0.024 A 
ENDBRANCH   3  17
TORSDOF 5
ENDMDL
MODEL 2
REMARK VINA RESULT:      -2.0      2.776      5.239
REMARK  5 active torsions:
REMARK  status: ('A' for Active; 'I' for Inactive)
REMARK    1  A    between atoms: C_2  and  N_8 
REMARK    2  A    between atoms: C_14  and  C_4 
REMARK    3  A    between atoms: S_13  and  C_5 
REMARK       I    between atoms: N_8  and  C_11 
REMARK    4  A    between atoms: C_11  and  C_17 
REMARK    5  A    between atoms: C_17  and  S_13 
ROOT
ATOM      1  O   UNL d   1      30.173  15.997 -23.740  0.00  0.00    -0.263 OA
ATOM      2  N   UNL d   1      29.729  16.058 -24.996  0.00  0.00    -0.120 NA
ATOM      3  C   UNL d   1      29.493  16.065 -24.214  0.00  0.00     0.205 A 
ATOM      4  C   UNL d   1      30.824  15.949 -24.247  0.00  0.00     0.236 A 
ATOM      5  N   UNL d   1      30.553  15.986 -25.020  0.00  0.00    -0.114 NA
ENDROOT
BRANCH   4   6
ATOM      6  S   UNL d   1      31.627  15.874 -24.022  0.00  0.00    -0.036 SA
BRANCH   6   7
ATOM      7  C   UNL d   1      32.070  16.547 -23.840  0.00  0.00     0.101 C 
BRANCH   7   8
ATOM      8  C   UNL d   1      32.747  16.476 -23.375  0.00  0.00     0.288 C 
ATOM      9  N   UNL d   1      33.241  17.127 -23.255  0.00  0.00    -0.182 NA
ATOM     10  O   UNL d   1      32.939  15.746 -23.023  0.00  0.00    -0.265 OA
BRANCH   9  11
ATOM     11  C   UNL d   1      33.054  17.844 -23.600  0.00  0.00     0.197 A 
ATOM     12  N   UNL d   1      33.042  18.090 -24.397  0.00  0.00    -0.221 NA
ATOM     13  C   UNL d   1      32.809  18.876 -24.405  0.00  0.00     0.090 A 
ATOM     14  C   UNL d   1      32.720  19.350 -25.092  0.00  0.00     0.021 C 
ATOM     15  C   UNL d   1      32.677  19.122 -23.639  0.00  0.00     0.058 A 
ATOM     16  S   UNL d   1      32.828  18.485 -23.143  0.00  0.00    -0.046 SA
ENDBRANCH   9  11
ENDBRANCH   7   8
ENDBRANCH   6   7
ENDBRANCH   4   6
BRANCH   3  17
ATOM     17  C   UNL d   1      28.734  16.126 -23.889  0.00  0.00     0.046 A 
ATOM     18  C   UNL d   1      28.259  15.457 -23.801  0.00  0.00     0.024 A 
ATOM     19  C   UNL d   1      27.505  15.521 -23.477  0.00  0.00     0.099 A 
ATOM     20  N   UNL d   1      27.219  16.264 -23.237  0.00  0.00    -0.242 NA
ATOM     21  C   UNL d   1      27.698  16.930 -23.327  0.00  0.00     0.099 A 
ATOM     22  C   UNL d   1      28.453  16.861 -23.652  0.00  0.00     0.024 A 
ENDBRANCH   3  17
TORSDOF 5
ENDMDL
MODEL 3
REMARK VINA RESULT:      -1.6      2.552      5.209
REMARK  5 active torsions:
REMARK  status: ('A' for Active; 'I' for Inactive)
REMARK    1  A    between atoms: C_2  and  N_8 
REMARK    2  A    between atoms: C_14  and  C_4 
REMARK    3  A    between atoms: S_13  and  C_5 
REMARK       I    between atoms: N_8  and  C_11 
REMARK    4  A    between atoms: C_11  and  C_17 
REMARK    5  A    between atoms: C_17  and  S_13 
ROOT
ATOM      1  O   UNL d   1      30.015  16.388 -24.315  0.00  0.00    -0.263 OA
ATOM      2  N   UNL d   1      29.340  17.395 -24.872  0.00  0.00    -0.120 NA
ATOM      3  C   UNL d   1      29.264  16.737 -24.394  0.00  0.00     0.205 A 
ATOM      4  C   UNL d   1      30.547  16.845 -24.754  0.00  0.00     0.236 A 
ATOM      5  N   UNL d   1      30.133  17.465 -25.097  0.00  0.00    -0.114 NA
ENDROOT
BRANCH   4   6
ATOM      6  S   UNL d   1      31.368  16.708 -24.840  0.00  0.00    -0.036 SA
BRANCH   6   7
ATOM      7  C   UNL d   1      31.900  17.017 -24.289  0.00  0.00     0.101 C 
BRANCH   7   8
ATOM      8  C   UNL d   1      32.613  16.628 -24.147  0.00  0.00     0.288 C 
ATOM      9  N   UNL d   1      33.241  17.027 -23.789  0.00  0.00    -0.182 NA
ATOM     10  O   UNL d   1      32.704  15.830 -24.363  0.00  0.00    -0.265 OA
BRANCH   9  11
ATOM     11  C   UNL d   1      33.152  17.811 -23.576  0.00  0.00     0.197 A 
ATOM     12  N   UNL d   1      33.187  18.515 -24.023  0.00  0.00    -0.221 NA
ATOM     13  C   UNL d   1      33.055  19.137 -23.506  0.00  0.00     0.090 A 
ATOM     14  C   UNL d   1      33.040  19.949 -23.716  0.00  0.00     0.021 C 
ATOM     15  C   UNL d   1      32.939  18.839 -22.756  0.00  0.00     0.058 A 
ATOM     16  S   UNL d   1      33.000  18.022 -22.799  0.00  0.00    -0.046 SA
ENDBRANCH   9  11
ENDBRANCH   7   8
ENDBRANCH   6   7
ENDBRANCH   4   6
BRANCH   3  17
ATOM     17  C   UNL d   1      28.592  16.424 -24.024  0.00  0.00     0.046 A 
ATOM     18  C   UNL d   1      28.298  16.760 -23.331  0.00  0.00     0.024 A 
ATOM     19  C   UNL d   1      27.630  16.447 -22.966  0.00  0.00     0.099 A 
ATOM     20  N   UNL d   1      27.248  15.787 -23.299  0.00  0.00    -0.242 NA
ATOM     21  C   UNL d   1      27.546  15.454 -23.993  0.00  0.00     0.099 A 
ATOM     22  C   UNL d   1      28.216  15.773 -24.354  0.00  0.00     0.024 A 
ENDBRANCH   3  17
TORSDOF 5
ENDMDL
