MODEL 1
REMARK VINA RESULT:      14.6      0.000      0.000
REMARK  4 active torsions:
REMARK  status: ('A' for Active; 'I' for Inactive)
REMARK    1  A    between atoms: C_13  and  N_3 
REMARK    2  A    between atoms: C_11  and  C_6 
REMARK    3  A    between atoms: O_22  and  C_11 
REMARK    4  A    between atoms: C_21  and  C_13 
ROOT
ATOM      1  C   UNL d   1     -41.667-121.733 -52.823  0.00  0.00     0.155 A 
ATOM      2  C   UNL d   1     -41.708-121.007 -53.208  0.00  0.00     0.091 A 
ATOM      3  N   UNL d   1     -41.472-121.766 -52.025  0.00  0.00    -0.274 N 
ATOM      4  N   UNL d   1     -41.820-122.430 -53.238  0.00  0.00    -0.210 NA
ATOM      5  N   UNL d   1     -42.056-121.668 -54.423  0.00  0.00    -0.258 N 
ATOM      6  C   UNL d   1     -41.359-120.349 -51.988  0.00  0.00     0.100 A 
ATOM      7  C   UNL d   1     -42.016-122.401 -54.043  0.00  0.00     0.152 A 
ATOM      8  C   UNL d   1     -41.319-121.078 -51.609  0.00  0.00     0.175 A 
ATOM      9  C   UNL d   1     -41.903-120.964 -54.012  0.00  0.00     0.269 A 
ATOM     10  C   UNL d   1     -41.554-120.306 -52.791  0.00  0.00     0.016 A 
ATOM     11  C   UNL d   1     -42.169-123.092 -54.457  0.00  0.00     0.035 A 
ATOM     12  C   UNL d   1     -42.253-121.632 -55.232  0.00  0.00     0.084 A 
ATOM     13  N   UNL d   1     -41.123-121.111 -50.803  0.00  0.00    -0.128 N 
ATOM     14  O   UNL d   1     -41.944-120.238 -54.397  0.00  0.00    -0.266 OA
ATOM     15  C   UNL d   1     -42.405-122.333 -55.640  0.00  0.00     0.019 A 
ATOM     16  C   UNL d   1     -42.363-123.063 -55.253  0.00  0.00     0.005 A 
ATOM     17  C   UNL d   1     -42.126-123.818 -54.063  0.00  0.00     0.003 C 
ENDROOT
BRANCH   3  18
ATOM     18  C   UNL d   1     -41.432-122.494 -51.643  0.00  0.00     0.084 C 
BRANCH  18  19
ATOM     19  C   UNL d   1     -41.910-122.643 -50.983  0.00  0.00     0.037 A 
ATOM     20  C   UNL d   1     -41.591-123.010 -50.328  0.00  0.00     0.100 A 
ATOM     21  N   UNL d   1     -42.061-123.162 -49.668  0.00  0.00    -0.242 NA
ATOM     22  C   UNL d   1     -42.853-122.938 -49.678  0.00  0.00     0.099 A 
ATOM     23  C   UNL d   1     -43.176-122.565 -50.341  0.00  0.00     0.021 A 
ATOM     24  C   UNL d   1     -42.698-122.420 -50.993  0.00  0.00     0.005 A 
ENDBRANCH  18  19
ENDBRANCH   3  18
BRANCH   6  25
ATOM     25  C   UNL d   1     -41.205-119.653 -51.572  0.00  0.00     0.299 C 
ATOM     26  O   UNL d   1     -41.131-119.665 -50.743  0.00  0.00    -0.259 OA
BRANCH  25  27
ATOM     27  O   UNL d   1     -41.123-118.942 -51.975  0.00  0.00    -0.296 OA
ATOM     28  C   UNL d   1     -41.123-118.226 -51.564  0.00  0.00     0.185 C 
ENDBRANCH  25  27
ENDBRANCH   6  25
TORSDOF 4
ENDMDL
MODEL 2
REMARK VINA RESULT:      15.5      1.289      3.259
REMARK  4 active torsions:
REMARK  status: ('A' for Active; 'I' for Inactive)
REMARK    1  A    between atoms: C_13  and  N_3 
REMARK    2  A    between atoms: C_11  and  C_6 
REMARK    3  A    between atoms: O_22  and  C_11 
REMARK    4  A    between atoms: C_21  and  C_13 
ROOT
ATOM      1  C   UNL d   1     -41.467-121.643 -52.447  0.00  0.00     0.155 A 
ATOM      2  C   UNL d   1     -41.546-121.454 -53.244  0.00  0.00     0.091 A 
ATOM      3  N   UNL d   1     -41.502-122.427 -52.204  0.00  0.00    -0.274 N 
ATOM      4  N   UNL d   1     -41.352-121.044 -51.890  0.00  0.00    -0.210 NA
ATOM      5  N   UNL d   1     -41.397-120.070 -52.934  0.00  0.00    -0.258 N 
ATOM      6  C   UNL d   1     -41.695-122.843 -53.550  0.00  0.00     0.100 A 
ATOM      7  C   UNL d   1     -41.317-120.252 -52.131  0.00  0.00     0.152 A 
ATOM      8  C   UNL d   1     -41.615-123.024 -52.752  0.00  0.00     0.175 A 
ATOM      9  C   UNL d   1     -41.512-120.667 -53.498  0.00  0.00     0.269 A 
ATOM     10  C   UNL d   1     -41.661-122.055 -53.805  0.00  0.00     0.016 A 
ATOM     11  C   UNL d   1     -41.203-119.657 -51.580  0.00  0.00     0.035 A 
ATOM     12  C   UNL d   1     -41.362-119.276 -53.182  0.00  0.00     0.084 A 
ATOM     13  N   UNL d   1     -41.650-123.817 -52.507  0.00  0.00    -0.128 N 
ATOM     14  O   UNL d   1     -41.591-120.477 -54.295  0.00  0.00    -0.266 OA
ATOM     15  C   UNL d   1     -41.247-118.683 -52.619  0.00  0.00     0.019 A 
ATOM     16  C   UNL d   1     -41.168-118.873 -51.818  0.00  0.00     0.005 A 
ATOM     17  C   UNL d   1     -41.124-119.855 -50.781  0.00  0.00     0.003 C 
ENDROOT
BRANCH   3  18
ATOM     18  C   UNL d   1     -41.422-122.613 -51.406  0.00  0.00     0.084 C 
BRANCH  18  19
ATOM     19  C   UNL d   1     -42.096-122.727 -50.938  0.00  0.00     0.037 A 
ATOM     20  C   UNL d   1     -42.715-122.197 -50.985  0.00  0.00     0.100 A 
ATOM     21  N   UNL d   1     -43.388-122.304 -50.521  0.00  0.00    -0.242 NA
ATOM     22  C   UNL d   1     -43.428-122.950 -50.013  0.00  0.00     0.099 A 
ATOM     23  C   UNL d   1     -42.801-123.486 -49.965  0.00  0.00     0.021 A 
ATOM     24  C   UNL d   1     -42.135-123.369 -50.432  0.00  0.00     0.005 A 
ENDBRANCH  18  19
ENDBRANCH   3  18
BRANCH   6  25
ATOM     25  C   UNL d   1     -41.809-123.441 -54.106  0.00  0.00     0.299 C 
ATOM     26  O   UNL d   1     -42.569-123.752 -54.240  0.00  0.00    -0.259 OA
BRANCH  25  27
ATOM     27  O   UNL d   1     -41.171-123.736 -54.531  0.00  0.00    -0.296 OA
ATOM     28  C   UNL d   1     -41.202-123.779 -55.356  0.00  0.00     0.185 C 
ENDBRANCH  25  27
ENDBRANCH   6  25
TORSDOF 4
ENDMDL
MODEL 3
REMARK VINA RESULT:      16.0      1.594      4.320
REMARK  4 active torsions:
REMARK  status: ('A' for Active; 'I' for Inactive)
REMARK    1  A    between atoms: C_13  and  N_3 
REMARK    2  A    between atoms: C_11  and  C_6 
REMARK    3  A    between atoms: O_22  and  C_11 
REMARK    4  A    between atoms: C_21  and  C_13 
ROOT
ATOM      1  C   UNL d   1     -42.192-122.501 -50.840  0.00  0.00     0.155 A 
ATOM      2  C   UNL d   1     -42.867-122.932 -51.029  0.00  0.00     0.091 A 
ATOM      3  N   UNL d   1     -41.797-122.077 -51.423  0.00  0.00    -0.274 N 
ATOM      4  N   UNL d   1     -41.911-122.495 -50.064  0.00  0.00    -0.210 NA
ATOM      5  N   UNL d   1     -42.984-123.352 -49.671  0.00  0.00    -0.258 N 
ATOM      6  C   UNL d   1     -42.747-122.508 -52.390  0.00  0.00     0.100 A 
ATOM      7  C   UNL d   1     -42.306-122.922 -49.474  0.00  0.00     0.152 A 
ATOM      8  C   UNL d   1     -42.073-122.080 -52.193  0.00  0.00     0.175 A 
ATOM      9  C   UNL d   1     -43.272-123.362 -50.449  0.00  0.00     0.269 A 
ATOM     10  C   UNL d   1     -43.152-122.939 -51.810  0.00  0.00     0.016 A 
ATOM     11  C   UNL d   1     -42.027-122.917 -48.703  0.00  0.00     0.035 A 
ATOM     12  C   UNL d   1     -43.385-123.783 -49.083  0.00  0.00     0.084 A 
ATOM     13  N   UNL d   1     -41.674-121.651 -52.782  0.00  0.00    -0.128 N 
ATOM     14  O   UNL d   1     -43.947-123.793 -50.638  0.00  0.00    -0.266 OA
ATOM     15  C   UNL d   1     -43.097-123.772 -48.309  0.00  0.00     0.019 A 
ATOM     16  C   UNL d   1     -42.419-123.339 -48.119  0.00  0.00     0.005 A 
ATOM     17  C   UNL d   1     -41.348-122.482 -48.521  0.00  0.00     0.003 C 
ENDROOT
BRANCH   3  18
ATOM     18  C   UNL d   1     -41.123-121.647 -51.230  0.00  0.00     0.084 C 
BRANCH  18  19
ATOM     19  C   UNL d   1     -41.133-120.820 -51.268  0.00  0.00     0.037 A 
ATOM     20  C   UNL d   1     -41.153-120.383 -50.579  0.00  0.00     0.100 A 
ATOM     21  N   UNL d   1     -41.163-119.560 -50.610  0.00  0.00    -0.242 NA
ATOM     22  C   UNL d   1     -41.153-119.185 -51.343  0.00  0.00     0.099 A 
ATOM     23  C   UNL d   1     -41.133-119.626 -52.040  0.00  0.00     0.021 A 
ATOM     24  C   UNL d   1     -41.123-120.447 -51.997  0.00  0.00     0.005 A 
ENDBRANCH  18  19
ENDBRANCH   3  18
BRANCH   6  25
ATOM     25  C   UNL d   1     -43.028-122.513 -53.165  0.00  0.00     0.299 C 
ATOM     26  O   UNL d   1     -43.661-122.022 -53.388  0.00  0.00    -0.259 OA
BRANCH  25  27
ATOM     27  O   UNL d   1     -42.682-123.005 -53.724  0.00  0.00    -0.296 OA
ATOM     28  C   UNL d   1     -42.800-122.871 -54.531  0.00  0.00     0.185 C 
ENDBRANCH  25  27
ENDBRANCH   6  25
TORSDOF 4
ENDMDL
