MODEL 1
REMARK VINA RESULT:       4.8      0.000      0.000
REMARK  8 active torsions:
REMARK  status: ('A' for Active; 'I' for Inactive)
REMARK    1  A    between atoms: C_5  and  C_1 
REMARK    2  A    between atoms: N_6  and  C_2 
REMARK    3  A    between atoms: C_7  and  C_5 
REMARK    4  A    between atoms: C_8  and  C_5 
REMARK    5  A    between atoms: O_12  and  C_7 
REMARK    6  A    between atoms: C_14  and  O_12 
REMARK    7  A    between atoms: C_19  and  C_14 
REMARK    8  A    between atoms: C_20  and  C_19 
ROOT
ATOM      1  C   UNL d   1     -42.060-122.747 -49.515  0.00  0.00     0.122 A 
ATOM      2  C   UNL d   1     -42.857-122.780 -49.317  0.00  0.00     0.166 A 
ATOM      3  N   UNL d   1     -43.077-123.010 -48.552  0.00  0.00    -0.225 NA
ATOM      4  N   UNL d   1     -41.482-122.940 -48.958  0.00  0.00    -0.241 NA
ATOM      5  C   UNL d   1     -42.504-123.202 -47.997  0.00  0.00     0.101 A 
ATOM      6  C   UNL d   1     -41.704-123.167 -48.200  0.00  0.00     0.099 A 
ATOM      7  C   UNL d   1     -42.726-123.429 -47.239  0.00  0.00     0.021 A 
ATOM      8  C   UNL d   1     -41.130-123.360 -47.645  0.00  0.00     0.021 A 
ATOM      9  C   UNL d   1     -41.342-123.589 -46.882  0.00  0.00     0.002 A 
ATOM     10  C   UNL d   1     -42.147-123.623 -46.682  0.00  0.00     0.002 A 
ENDROOT
BRANCH   1  11
ATOM     11  C   UNL d   1     -41.832-122.516 -50.283  0.00  0.00     0.105 C 
BRANCH  11  12
ATOM     12  C   UNL d   1     -41.530-123.072 -50.809  0.00  0.00     0.303 C 
ATOM     13  O   UNL d   1     -41.301-123.816 -50.541  0.00  0.00    -0.259 OA
BRANCH  12  14
ATOM     14  O   UNL d   1     -41.456-122.880 -51.611  0.00  0.00    -0.271 OA
BRANCH  14  15
ATOM     15  C   UNL d   1     -41.131-123.034 -52.347  0.00  0.00     0.126 C 
BRANCH  15  16
ATOM     16  C   UNL d   1     -41.524-122.793 -53.023  0.00  0.00     0.025 C 
ATOM     17  C   UNL d   1     -41.973-122.110 -53.007  0.00  0.00     0.002 C 
BRANCH  16  18
ATOM     18  C   UNL d   1     -41.465-123.240 -53.714  0.00  0.00     0.002 C 
ATOM     19  C   UNL d   1     -41.359-122.865 -54.442  0.00  0.00     0.000 C 
ENDBRANCH  16  18
ENDBRANCH  15  16
ENDBRANCH  14  15
ENDBRANCH  12  14
ENDBRANCH  11  12
BRANCH  11  20
ATOM     20  C   UNL d   1     -41.910-121.721 -50.519  0.00  0.00     0.129 C 
ATOM     21  N   UNL d   1     -41.193-121.233 -50.920  0.00  0.00    -0.146 N 
ENDBRANCH  11  20
ENDBRANCH   1  11
BRANCH   2  22
ATOM     22  N   UNL d   1     -43.440-122.587 -49.873  0.00  0.00    -0.288 N 
ATOM     23  C   UNL d   1     -43.898-123.187 -50.203  0.00  0.00     0.082 A 
ATOM     24  C   UNL d   1     -44.481-122.990 -50.760  0.00  0.00     0.019 A 
ATOM     25  C   UNL d   1     -44.599-122.198 -50.981  0.00  0.00     0.003 A 
ATOM     26  C   UNL d   1     -44.133-121.604 -50.645  0.00  0.00     0.019 A 
ATOM     27  C   UNL d   1     -43.557-121.796 -50.095  0.00  0.00     0.082 A 
ENDBRANCH   2  22
TORSDOF 8
ENDMDL
