MODEL 1
REMARK VINA RESULT:      -3.3      0.000      0.000
REMARK  7 active torsions:
REMARK  status: ('A' for Active; 'I' for Inactive)
REMARK    1  A    between atoms: N_4  and  C_1 
REMARK       I    between atoms: C_3  and  N_4 
REMARK    2  A    between atoms: C_8  and  C_3 
REMARK    3  A    between atoms: S_10  and  C_5 
REMARK    4  A    between atoms: C_9  and  C_15 
REMARK       I    between atoms: N_12  and  C_9 
REMARK    5  A    between atoms: C_15  and  S_10 
REMARK    6  A    between atoms: C_17  and  N_12 
REMARK    7  A    between atoms: O_18  and  C_13 
ROOT
ATOM      1  C   UNL d   1      57.176   0.481  31.912  0.00  0.00     0.219 A 
ATOM      2  S   UNL d   1      57.112   0.099  31.184  0.00  0.00    -0.019 SA
ATOM      3  C   UNL d   1      57.856   0.059  30.839  0.00  0.00     0.165 A 
ATOM      4  N   UNL d   1      57.974   0.680  32.017  0.00  0.00    -0.120 NA
ATOM      5  N   UNL d   1      58.393   0.420  31.355  0.00  0.00    -0.133 NA
ENDROOT
BRANCH   1   6
ATOM      6  N   UNL d   1      56.554   0.635  32.438  0.00  0.00    -0.181 NA
ATOM      7  C   UNL d   1      56.511   0.212  33.150  0.00  0.00     0.283 C 
ATOM      8  O   UNL d   1      57.078  -0.355  33.330  0.00  0.00    -0.265 OA
BRANCH   7   9
ATOM      9  C   UNL d   1      55.891   0.363  33.678  0.00  0.00     0.080 A 
ATOM     10  C   UNL d   1      56.056   0.503  34.462  0.00  0.00     0.099 A 
ATOM     11  C   UNL d   1      55.438   0.656  34.995  0.00  0.00     0.024 A 
ATOM     12  C   UNL d   1      54.665   0.664  34.727  0.00  0.00     0.002 A 
ATOM     13  C   UNL d   1      54.502   0.521  33.925  0.00  0.00     0.000 A 
ATOM     14  C   UNL d   1      55.121   0.371  33.405  0.00  0.00     0.007 A 
BRANCH  10  15
ATOM     15  O   UNL d   1      56.837   0.496  34.740  0.00  0.00    -0.328 OA
ATOM     16  C   UNL d   1      57.008   0.682  35.520  0.00  0.00     0.181 C 
ENDBRANCH  10  15
ENDBRANCH   7   9
ENDBRANCH   1   6
BRANCH   3  17
ATOM     17  S   UNL d   1      58.032  -0.280  30.108  0.00  0.00    -0.054 SA
BRANCH  17  18
ATOM     18  C   UNL d   1      58.756  -0.678  30.006  0.00  0.00     0.100 C 
BRANCH  18  19
ATOM     19  C   UNL d   1      58.800  -1.325  29.500  0.00  0.00     0.286 C 
ATOM     20  N   UNL d   1      59.228  -1.998  29.723  0.00  0.00    -0.208 NA
ATOM     21  O   UNL d   1      58.419  -1.314  28.762  0.00  0.00    -0.265 OA
BRANCH  20  22
ATOM     22  C   UNL d   1      59.279  -2.646  29.229  0.00  0.00     0.085 A 
ATOM     23  C   UNL d   1      58.642  -3.092  28.932  0.00  0.00     0.019 A 
ATOM     24  C   UNL d   1      58.948  -3.690  28.459  0.00  0.00     0.002 A 
ATOM     25  C   UNL d   1      59.774  -3.624  28.455  0.00  0.00     0.002 A 
ATOM     26  C   UNL d   1      59.974  -2.976  28.933  0.00  0.00     0.019 A 
ENDBRANCH  20  22
ENDBRANCH  18  19
ENDBRANCH  17  18
ENDBRANCH   3  17
TORSDOF 7
ENDMDL
