MODEL 1
REMARK VINA RESULT:      53.6      0.000      0.000
REMARK  4 active torsions:
REMARK  status: ('A' for Active; 'I' for Inactive)
REMARK    1  A    between atoms: C_4  and  C_10 
REMARK    2  A    between atoms: C_18  and  C_7 
REMARK       I    between atoms: C_10  and  N_17 
REMARK    3  A    between atoms: N_17  and  C_20 
REMARK    4  A    between atoms: C_20  and  C_18 
ROOT
ATOM      1  C   UNL d   1     -48.725  27.563  34.004  0.00  0.00     0.042 C 
ENDROOT
BRANCH   1   2
ATOM      2  C   UNL d   1     -49.420  27.137  33.847  0.00  0.00     0.102 A 
ATOM      3  N   UNL d   1     -49.466  26.329  33.717  0.00  0.00    -0.227 NA
ATOM      4  C   UNL d   1     -50.247  26.131  33.583  0.00  0.00     0.148 A 
ATOM      5  N   UNL d   1     -50.700  26.820  33.629  0.00  0.00    -0.288 N 
ATOM      6  C   UNL d   1     -50.623  25.414  33.423  0.00  0.00     0.035 A 
ATOM      7  C   UNL d   1     -50.181  27.446  33.793  0.00  0.00     0.101 A 
ATOM      8  C   UNL d   1     -51.514  26.796  33.517  0.00  0.00     0.082 A 
ATOM      9  C   UNL d   1     -51.882  26.081  33.359  0.00  0.00     0.019 A 
ATOM     10  C   UNL d   1     -51.436  25.381  33.311  0.00  0.00     0.004 A 
ATOM     11  C   UNL d   1     -50.176  24.709  33.375  0.00  0.00     0.003 C 
ENDBRANCH   1   2
BRANCH   1  12
ATOM     12  C   UNL d   1     -48.742  28.205  34.527  0.00  0.00     0.104 C 
BRANCH  12  13
ATOM     13  N   UNL d   1     -48.735  28.075  35.337  0.00  0.00    -0.205 NA
ATOM     14  C   UNL d   1     -48.326  28.593  35.836  0.00  0.00     0.302 C 
ATOM     15  O   UNL d   1     -48.322  28.459  36.638  0.00  0.00    -0.263 OA
BRANCH  14  16
ATOM     16  C   UNL d   1     -47.927  29.241  35.513  0.00  0.00     0.158 A 
ATOM     17  O   UNL d   1     -48.127  30.033  35.435  0.00  0.00    -0.296 OA
ATOM     18  C   UNL d   1     -47.502  30.425  35.063  0.00  0.00     0.134 A 
ATOM     19 BR   UNL d   1     -47.449  31.226  34.867  0.00  0.00    -0.022 Br
ATOM     20  C   UNL d   1     -46.929  29.862  34.919  0.00  0.00     0.034 A 
ATOM     21  C   UNL d   1     -47.176  29.133  35.190  0.00  0.00     0.032 A 
ENDBRANCH  14  16
ENDBRANCH  12  13
ENDBRANCH   1  12
TORSDOF 4
ENDMDL
MODEL 2
REMARK VINA RESULT:      55.6      1.196      1.659
REMARK  4 active torsions:
REMARK  status: ('A' for Active; 'I' for Inactive)
REMARK    1  A    between atoms: C_4  and  C_10 
REMARK    2  A    between atoms: C_18  and  C_7 
REMARK       I    between atoms: C_10  and  N_17 
REMARK    3  A    between atoms: N_17  and  C_20 
REMARK    4  A    between atoms: C_20  and  C_18 
ROOT
ATOM      1  C   UNL d   1     -50.232  27.098  33.355  0.00  0.00     0.042 C 
ENDROOT
BRANCH   1   2
ATOM      2  C   UNL d   1     -50.780  26.474  33.344  0.00  0.00     0.102 A 
ATOM      3  N   UNL d   1     -50.595  25.677  33.337  0.00  0.00    -0.227 NA
ATOM      4  C   UNL d   1     -51.290  25.247  33.327  0.00  0.00     0.148 A 
ATOM      5  N   UNL d   1     -51.921  25.780  33.329  0.00  0.00    -0.288 N 
ATOM      6  C   UNL d   1     -51.447  24.437  33.317  0.00  0.00     0.035 A 
ATOM      7  C   UNL d   1     -51.600  26.545  33.340  0.00  0.00     0.101 A 
ATOM      8  C   UNL d   1     -52.698  25.510  33.321  0.00  0.00     0.082 A 
ATOM      9  C   UNL d   1     -52.848  24.705  33.311  0.00  0.00     0.019 A 
ATOM     10  C   UNL d   1     -52.220  24.160  33.309  0.00  0.00     0.004 A 
ATOM     11  C   UNL d   1     -50.817  23.889  33.315  0.00  0.00     0.003 C 
ENDBRANCH   1   2
BRANCH   1  12
ATOM     12  C   UNL d   1     -49.761  27.225  34.024  0.00  0.00     0.104 C 
BRANCH  12  13
ATOM     13  N   UNL d   1     -50.106  27.264  34.767  0.00  0.00    -0.205 NA
ATOM     14  C   UNL d   1     -49.703  27.625  35.393  0.00  0.00     0.302 C 
ATOM     15  O   UNL d   1     -50.050  27.661  36.128  0.00  0.00    -0.263 OA
BRANCH  14  16
ATOM     16  C   UNL d   1     -48.952  27.946  35.263  0.00  0.00     0.158 A 
ATOM     17  O   UNL d   1     -48.692  28.714  35.135  0.00  0.00    -0.296 OA
ATOM     18  C   UNL d   1     -47.872  28.700  35.039  0.00  0.00     0.134 A 
ATOM     19 BR   UNL d   1     -47.365  29.336  34.898  0.00  0.00    -0.022 Br
ATOM     20  C   UNL d   1     -47.644  27.919  35.112  0.00  0.00     0.034 A 
ATOM     21  C   UNL d   1     -48.296  27.447  35.250  0.00  0.00     0.032 A 
ENDBRANCH  14  16
ENDBRANCH  12  13
ENDBRANCH   1  12
TORSDOF 4
ENDMDL
