MODEL 1
REMARK VINA RESULT:      -8.5      0.000      0.000
REMARK  5 active torsions:
REMARK  status: ('A' for Active; 'I' for Inactive)
REMARK    1  A    between atoms: C_5  and  C_1 
REMARK       I    between atoms: N_7  and  C_5 
REMARK    2  A    between atoms: C_10  and  N_7 
REMARK    3  A    between atoms: S_15  and  C_14 
REMARK    4  A    between atoms: C_20  and  S_15 
REMARK    5  A    between atoms: C_16  and  C_20 
ROOT
ATOM      1  N   UNL d   1     -42.506  15.919  15.802  0.00  0.00    -0.191 NA
ATOM      2  C   UNL d   1     -41.843  15.911  16.309  0.00  0.00     0.102 C 
ATOM      3  C   UNL d   1     -41.186  15.896  16.806  0.00  0.00     0.085 C 
ENDROOT
BRANCH   3   4
ATOM      4  C   UNL d   1     -40.581  15.357  16.680  0.00  0.00     0.046 C 
BRANCH   4   5
ATOM      5  S   UNL d   1     -39.974  15.275  17.241  0.00  0.00    -0.084 SA
BRANCH   5   6
ATOM      6  C   UNL d   1     -39.338  14.765  17.090  0.00  0.00     0.047 A 
ATOM      7  C   UNL d   1     -38.889  14.476  17.715  0.00  0.00     0.091 A 
ATOM      8  C   UNL d   1     -38.253  13.966  17.572  0.00  0.00     0.020 A 
ATOM      9  C   UNL d   1     -38.068  13.747  16.801  0.00  0.00     0.002 A 
ATOM     10  C   UNL d   1     -38.520  14.038  16.168  0.00  0.00     0.001 A 
ATOM     11  C   UNL d   1     -39.152  14.546  16.319  0.00  0.00     0.008 A 
BRANCH   7  12
ATOM     12  N   UNL d   1     -39.074  14.694  18.489  0.00  0.00    -0.206 NA
ATOM     13  C   UNL d   1     -38.780  14.256  19.115  0.00  0.00     0.302 C 
ATOM     14  O   UNL d   1     -38.301  13.601  18.980  0.00  0.00    -0.263 OA
BRANCH  13  15
ATOM     15  C   UNL d   1     -38.964  14.474  19.898  0.00  0.00     0.161 A 
ATOM     16  C   UNL d   1     -39.650  14.207  20.253  0.00  0.00     0.072 A 
ATOM     17  C   UNL d   1     -39.824  14.429  21.032  0.00  0.00     0.200 A 
ATOM     18  O   UNL d   1     -40.518  14.162  21.397  0.00  0.00    -0.286 OA
ATOM     19  C   UNL d   1     -39.306  14.917  21.442  0.00  0.00     0.062 A 
ATOM     20  C   UNL d   1     -38.618  15.187  21.090  0.00  0.00     0.103 A 
ATOM     21  C   UNL d   1     -39.478  15.142  22.223  0.00  0.00     0.005 A 
ATOM     22  O   UNL d   1     -38.446  14.962  20.309  0.00  0.00    -0.302 OA
ATOM     23  C   UNL d   1     -38.092  15.678  21.497  0.00  0.00     0.025 A 
ATOM     24  C   UNL d   1     -38.267  15.898  22.274  0.00  0.00     0.002 A 
ATOM     25  C   UNL d   1     -38.960  15.629  22.633  0.00  0.00     0.000 A 
ENDBRANCH  13  15
ENDBRANCH   7  12
ENDBRANCH   5   6
ENDBRANCH   4   5
ENDBRANCH   3   4
TORSDOF 5
ENDMDL
MODEL 2
REMARK VINA RESULT:      -8.5      8.975     10.383
REMARK  5 active torsions:
REMARK  status: ('A' for Active; 'I' for Inactive)
REMARK    1  A    between atoms: C_5  and  C_1 
REMARK       I    between atoms: N_7  and  C_5 
REMARK    2  A    between atoms: C_10  and  N_7 
REMARK    3  A    between atoms: S_15  and  C_14 
REMARK    4  A    between atoms: C_20  and  S_15 
REMARK    5  A    between atoms: C_16  and  C_20 
ROOT
ATOM      1  N   UNL d   1     -49.967  11.063  23.231  0.00  0.00    -0.191 NA
ATOM      2  C   UNL d   1     -50.417  11.730  23.452  0.00  0.00     0.102 C 
ATOM      3  C   UNL d   1     -50.858  12.393  23.666  0.00  0.00     0.085 C 
ENDROOT
BRANCH   3   4
ATOM      4  C   UNL d   1     -50.685  13.128  23.347  0.00  0.00     0.046 C 
BRANCH   4   5
ATOM      5  S   UNL d   1     -50.008  13.540  23.597  0.00  0.00    -0.084 SA
BRANCH   5   6
ATOM      6  C   UNL d   1     -49.884  14.321  23.347  0.00  0.00     0.047 A 
ATOM      7  C   UNL d   1     -49.137  14.556  23.100  0.00  0.00     0.091 A 
ATOM      8  C   UNL d   1     -49.005  15.333  22.849  0.00  0.00     0.020 A 
ATOM      9  C   UNL d   1     -49.624  15.874  22.847  0.00  0.00     0.002 A 
ATOM     10  C   UNL d   1     -50.381  15.639  23.096  0.00  0.00     0.001 A 
ATOM     11  C   UNL d   1     -50.504  14.862  23.344  0.00  0.00     0.008 A 
BRANCH   7  12
ATOM     12  N   UNL d   1     -48.513  14.015  23.102  0.00  0.00    -0.206 NA
ATOM     13  C   UNL d   1     -47.762  14.260  22.889  0.00  0.00     0.302 C 
ATOM     14  O   UNL d   1     -47.622  15.042  22.673  0.00  0.00    -0.263 OA
BRANCH  13  15
ATOM     15  C   UNL d   1     -47.131  13.716  22.890  0.00  0.00     0.161 A 
ATOM     16  C   UNL d   1     -46.431  13.890  22.504  0.00  0.00     0.072 A 
ATOM     17  C   UNL d   1     -45.810  13.343  22.511  0.00  0.00     0.200 A 
ATOM     18  O   UNL d   1     -45.099  13.514  22.122  0.00  0.00    -0.286 OA
ATOM     19  C   UNL d   1     -45.901  12.629  22.905  0.00  0.00     0.062 A 
ATOM     20  C   UNL d   1     -46.599  12.450  23.292  0.00  0.00     0.103 A 
ATOM     21  C   UNL d   1     -45.279  12.077  22.913  0.00  0.00     0.005 A 
ATOM     22  O   UNL d   1     -47.221  13.001  23.283  0.00  0.00    -0.302 OA
ATOM     23  C   UNL d   1     -46.698  11.732  23.691  0.00  0.00     0.025 A 
ATOM     24  C   UNL d   1     -46.077  11.188  23.696  0.00  0.00     0.002 A 
ATOM     25  C   UNL d   1     -45.370  11.363  23.308  0.00  0.00     0.000 A 
ENDBRANCH  13  15
ENDBRANCH   7  12
ENDBRANCH   5   6
ENDBRANCH   4   5
ENDBRANCH   3   4
TORSDOF 5
ENDMDL
MODEL 3
REMARK VINA RESULT:      -8.4      8.936     10.305
REMARK  5 active torsions:
REMARK  status: ('A' for Active; 'I' for Inactive)
REMARK    1  A    between atoms: C_5  and  C_1 
REMARK       I    between atoms: N_7  and  C_5 
REMARK    2  A    between atoms: C_10  and  N_7 
REMARK    3  A    between atoms: S_15  and  C_14 
REMARK    4  A    between atoms: C_20  and  S_15 
REMARK    5  A    between atoms: C_16  and  C_20 
ROOT
ATOM      1  N   UNL d   1     -49.152  15.832  21.853  0.00  0.00    -0.191 NA
ATOM      2  C   UNL d   1     -49.389  15.442  22.552  0.00  0.00     0.102 C 
ATOM      3  C   UNL d   1     -49.625  15.050  23.238  0.00  0.00     0.085 C 
ENDROOT
BRANCH   3   4
ATOM      4  C   UNL d   1     -49.925  14.287  23.198  0.00  0.00     0.046 C 
BRANCH   4   5
ATOM      5  S   UNL d   1     -49.567  13.678  23.635  0.00  0.00    -0.084 SA
BRANCH   5   6
ATOM      6  C   UNL d   1     -49.901  12.919  23.635  0.00  0.00     0.047 A 
ATOM      7  C   UNL d   1     -49.414  12.259  23.590  0.00  0.00     0.091 A 
ATOM      8  C   UNL d   1     -49.740  11.499  23.589  0.00  0.00     0.020 A 
ATOM      9  C   UNL d   1     -50.555  11.401  23.635  0.00  0.00     0.002 A 
ATOM     10  C   UNL d   1     -51.049  12.067  23.681  0.00  0.00     0.001 A 
ATOM     11  C   UNL d   1     -50.717  12.822  23.680  0.00  0.00     0.008 A 
BRANCH   7  12
ATOM     12  N   UNL d   1     -48.595  12.354  23.544  0.00  0.00    -0.206 NA
ATOM     13  C   UNL d   1     -48.154  11.848  23.076  0.00  0.00     0.302 C 
ATOM     14  O   UNL d   1     -48.518  11.245  22.651  0.00  0.00    -0.263 OA
BRANCH  13  15
ATOM     15  C   UNL d   1     -47.326  11.941  23.028  0.00  0.00     0.161 A 
ATOM     16  C   UNL d   1     -46.826  11.405  23.389  0.00  0.00     0.072 A 
ATOM     17  C   UNL d   1     -46.006  11.506  23.335  0.00  0.00     0.200 A 
ATOM     18  O   UNL d   1     -45.494  10.966  23.698  0.00  0.00    -0.286 OA
ATOM     19  C   UNL d   1     -45.701  12.145  22.920  0.00  0.00     0.062 A 
ATOM     20  C   UNL d   1     -46.199  12.686  22.557  0.00  0.00     0.103 A 
ATOM     21  C   UNL d   1     -44.879  12.251  22.864  0.00  0.00     0.005 A 
ATOM     22  O   UNL d   1     -47.021  12.580  22.613  0.00  0.00    -0.302 OA
ATOM     23  C   UNL d   1     -45.898  13.332  22.137  0.00  0.00     0.025 A 
ATOM     24  C   UNL d   1     -45.080  13.431  22.085  0.00  0.00     0.002 A 
ATOM     25  C   UNL d   1     -44.574  12.890  22.448  0.00  0.00     0.000 A 
ENDBRANCH  13  15
ENDBRANCH   7  12
ENDBRANCH   5   6
ENDBRANCH   4   5
ENDBRANCH   3   4
TORSDOF 5
ENDMDL
MODEL 4
REMARK VINA RESULT:      -7.9      1.487      2.681
REMARK  5 active torsions:
REMARK  status: ('A' for Active; 'I' for Inactive)
REMARK    1  A    between atoms: C_5  and  C_1 
REMARK       I    between atoms: N_7  and  C_5 
REMARK    2  A    between atoms: C_10  and  N_7 
REMARK    3  A    between atoms: S_15  and  C_14 
REMARK    4  A    between atoms: C_20  and  S_15 
REMARK    5  A    between atoms: C_16  and  C_20 
ROOT
ATOM      1  N   UNL d   1     -38.135  11.495  17.761  0.00  0.00    -0.191 NA
ATOM      2  C   UNL d   1     -38.160  12.315  17.605  0.00  0.00     0.102 C 
ATOM      3  C   UNL d   1     -38.193  13.125  17.453  0.00  0.00     0.085 C 
ENDROOT
BRANCH   3   4
ATOM      4  C   UNL d   1     -38.912  13.520  17.458  0.00  0.00     0.046 C 
BRANCH   4   5
ATOM      5  S   UNL d   1     -39.048  14.125  18.010  0.00  0.00    -0.084 SA
BRANCH   5   6
ATOM      6  C   UNL d   1     -39.701  14.628  17.918  0.00  0.00     0.047 A 
ATOM      7  C   UNL d   1     -40.000  15.032  18.569  0.00  0.00     0.091 A 
ATOM      8  C   UNL d   1     -40.651  15.535  18.486  0.00  0.00     0.020 A 
ATOM      9  C   UNL d   1     -41.002  15.633  17.749  0.00  0.00     0.002 A 
ATOM     10  C   UNL d   1     -40.702  15.227  17.090  0.00  0.00     0.001 A 
ATOM     11  C   UNL d   1     -40.053  14.727  17.181  0.00  0.00     0.008 A 
BRANCH   7  12
ATOM     12  N   UNL d   1     -39.649  14.934  19.310  0.00  0.00    -0.206 NA
ATOM     13  C   UNL d   1     -40.115  14.938  19.983  0.00  0.00     0.302 C 
ATOM     14  O   UNL d   1     -40.930  15.038  19.928  0.00  0.00    -0.263 OA
BRANCH  13  15
ATOM     15  C   UNL d   1     -39.763  14.841  20.733  0.00  0.00     0.161 A 
ATOM     16  C   UNL d   1     -39.811  15.433  21.294  0.00  0.00     0.072 A 
ATOM     17  C   UNL d   1     -39.459  15.326  22.036  0.00  0.00     0.200 A 
ATOM     18  O   UNL d   1     -39.504  15.922  22.610  0.00  0.00    -0.286 OA
ATOM     19  C   UNL d   1     -39.064  14.626  22.202  0.00  0.00     0.062 A 
ATOM     20  C   UNL d   1     -39.013  14.030  21.643  0.00  0.00     0.103 A 
ATOM     21  C   UNL d   1     -38.709  14.515  22.946  0.00  0.00     0.005 A 
ATOM     22  O   UNL d   1     -39.368  14.141  20.899  0.00  0.00    -0.302 OA
ATOM     23  C   UNL d   1     -38.617  13.322  21.803  0.00  0.00     0.025 A 
ATOM     24  C   UNL d   1     -38.266  13.218  22.543  0.00  0.00     0.002 A 
ATOM     25  C   UNL d   1     -38.314  13.814  23.112  0.00  0.00     0.000 A 
ENDBRANCH  13  15
ENDBRANCH   7  12
ENDBRANCH   5   6
ENDBRANCH   4   5
ENDBRANCH   3   4
TORSDOF 5
ENDMDL
MODEL 5
REMARK VINA RESULT:      -7.7      8.565     10.010
REMARK  5 active torsions:
REMARK  status: ('A' for Active; 'I' for Inactive)
REMARK    1  A    between atoms: C_5  and  C_1 
REMARK       I    between atoms: N_7  and  C_5 
REMARK    2  A    between atoms: C_10  and  N_7 
REMARK    3  A    between atoms: S_15  and  C_14 
REMARK    4  A    between atoms: C_20  and  S_15 
REMARK    5  A    between atoms: C_16  and  C_20 
ROOT
ATOM      1  N   UNL d   1     -43.531  12.852  20.976  0.00  0.00    -0.191 NA
ATOM      2  C   UNL d   1     -44.154  13.079  21.483  0.00  0.00     0.102 C 
ATOM      3  C   UNL d   1     -44.769  13.297  21.987  0.00  0.00     0.085 C 
ENDROOT
BRANCH   3   4
ATOM      4  C   UNL d   1     -45.039  12.777  22.561  0.00  0.00     0.046 C 
BRANCH   4   5
ATOM      5  S   UNL d   1     -45.855  12.656  22.659  0.00  0.00    -0.084 SA
BRANCH   5   6
ATOM      6  C   UNL d   1     -46.129  11.954  23.006  0.00  0.00     0.047 A 
ATOM      7  C   UNL d   1     -46.931  11.862  23.162  0.00  0.00     0.091 A 
ATOM      8  C   UNL d   1     -47.212  11.166  23.508  0.00  0.00     0.020 A 
ATOM      9  C   UNL d   1     -46.688  10.561  23.698  0.00  0.00     0.002 A 
ATOM     10  C   UNL d   1     -45.877  10.652  23.541  0.00  0.00     0.001 A 
ATOM     11  C   UNL d   1     -45.605  11.349  23.196  0.00  0.00     0.008 A 
BRANCH   7  12
ATOM     12  N   UNL d   1     -47.459  12.468  22.972  0.00  0.00    -0.206 NA
ATOM     13  C   UNL d   1     -48.232  12.285  22.778  0.00  0.00     0.302 C 
ATOM     14  O   UNL d   1     -48.489  11.503  22.770  0.00  0.00    -0.263 OA
BRANCH  13  15
ATOM     15  C   UNL d   1     -48.768  12.894  22.586  0.00  0.00     0.161 A 
ATOM     16  C   UNL d   1     -49.281  12.813  21.954  0.00  0.00     0.072 A 
ATOM     17  C   UNL d   1     -49.809  13.424  21.772  0.00  0.00     0.200 A 
ATOM     18  O   UNL d   1     -50.330  13.348  21.132  0.00  0.00    -0.286 OA
ATOM     19  C   UNL d   1     -49.815  14.107  22.227  0.00  0.00     0.062 A 
ATOM     20  C   UNL d   1     -49.304  14.193  22.861  0.00  0.00     0.103 A 
ATOM     21  C   UNL d   1     -50.344  14.722  22.047  0.00  0.00     0.005 A 
ATOM     22  O   UNL d   1     -48.775  13.578  23.041  0.00  0.00    -0.302 OA
ATOM     23  C   UNL d   1     -49.304  14.878  23.324  0.00  0.00     0.025 A 
ATOM     24  C   UNL d   1     -49.832  15.486  23.140  0.00  0.00     0.002 A 
ATOM     25  C   UNL d   1     -50.350  15.405  22.502  0.00  0.00     0.000 A 
ENDBRANCH  13  15
ENDBRANCH   7  12
ENDBRANCH   5   6
ENDBRANCH   4   5
ENDBRANCH   3   4
TORSDOF 5
ENDMDL
MODEL 6
REMARK VINA RESULT:      -7.6      1.741      2.748
REMARK  5 active torsions:
REMARK  status: ('A' for Active; 'I' for Inactive)
REMARK    1  A    between atoms: C_5  and  C_1 
REMARK       I    between atoms: N_7  and  C_5 
REMARK    2  A    between atoms: C_10  and  N_7 
REMARK    3  A    between atoms: S_15  and  C_14 
REMARK    4  A    between atoms: C_20  and  S_15 
REMARK    5  A    between atoms: C_16  and  C_20 
ROOT
ATOM      1  N   UNL d   1     -38.047   9.992  17.711  0.00  0.00    -0.191 NA
ATOM      2  C   UNL d   1     -38.004  10.807  17.883  0.00  0.00     0.102 C 
ATOM      3  C   UNL d   1     -37.967  11.614  18.048  0.00  0.00     0.085 C 
ENDROOT
BRANCH   3   4
ATOM      4  C   UNL d   1     -38.389  12.151  17.594  0.00  0.00     0.046 C 
BRANCH   4   5
ATOM      5  S   UNL d   1     -38.392  12.956  17.799  0.00  0.00    -0.084 SA
BRANCH   5   6
ATOM      6  C   UNL d   1     -38.513  13.531  17.213  0.00  0.00     0.047 A 
ATOM      7  C   UNL d   1     -38.807  14.269  17.422  0.00  0.00     0.091 A 
ATOM      8  C   UNL d   1     -38.930  14.848  16.844  0.00  0.00     0.020 A 
ATOM      9  C   UNL d   1     -38.758  14.684  16.056  0.00  0.00     0.002 A 
ATOM     10  C   UNL d   1     -38.461  13.939  15.843  0.00  0.00     0.001 A 
ATOM     11  C   UNL d   1     -38.341  13.367  16.426  0.00  0.00     0.008 A 
BRANCH   7  12
ATOM     12  N   UNL d   1     -38.980  14.436  18.212  0.00  0.00    -0.206 NA
ATOM     13  C   UNL d   1     -39.509  15.033  18.394  0.00  0.00     0.302 C 
ATOM     14  O   UNL d   1     -39.871  15.469  17.797  0.00  0.00    -0.263 OA
BRANCH  13  15
ATOM     15  C   UNL d   1     -39.686  15.203  19.191  0.00  0.00     0.161 A 
ATOM     16  C   UNL d   1     -40.460  15.203  19.453  0.00  0.00     0.072 A 
ATOM     17  C   UNL d   1     -40.625  15.374  20.246  0.00  0.00     0.200 A 
ATOM     18  O   UNL d   1     -41.408  15.376  20.519  0.00  0.00    -0.286 OA
ATOM     19  C   UNL d   1     -40.011  15.542  20.764  0.00  0.00     0.062 A 
ATOM     20  C   UNL d   1     -39.234  15.543  20.505  0.00  0.00     0.103 A 
ATOM     21  C   UNL d   1     -40.173  15.714  21.561  0.00  0.00     0.005 A 
ATOM     22  O   UNL d   1     -39.072  15.371  19.708  0.00  0.00    -0.302 OA
ATOM     23  C   UNL d   1     -38.609  15.711  21.020  0.00  0.00     0.025 A 
ATOM     24  C   UNL d   1     -38.776  15.881  21.811  0.00  0.00     0.002 A 
ATOM     25  C   UNL d   1     -39.557  15.882  22.078  0.00  0.00     0.000 A 
ENDBRANCH  13  15
ENDBRANCH   7  12
ENDBRANCH   5   6
ENDBRANCH   4   5
ENDBRANCH   3   4
TORSDOF 5
ENDMDL
MODEL 7
REMARK VINA RESULT:      -7.5      1.829      4.580
REMARK  5 active torsions:
REMARK  status: ('A' for Active; 'I' for Inactive)
REMARK    1  A    between atoms: C_5  and  C_1 
REMARK       I    between atoms: N_7  and  C_5 
REMARK    2  A    between atoms: C_10  and  N_7 
REMARK    3  A    between atoms: S_15  and  C_14 
REMARK    4  A    between atoms: C_20  and  S_15 
REMARK    5  A    between atoms: C_16  and  C_20 
ROOT
ATOM      1  N   UNL d   1     -43.006  12.802  21.456  0.00  0.00    -0.191 NA
ATOM      2  C   UNL d   1     -42.493  13.260  20.984  0.00  0.00     0.102 C 
ATOM      3  C   UNL d   1     -41.982  13.715  20.524  0.00  0.00     0.085 C 
ENDROOT
BRANCH   3   4
ATOM      4  C   UNL d   1     -41.358  14.119  20.872  0.00  0.00     0.046 C 
BRANCH   4   5
ATOM      5  S   UNL d   1     -40.798  14.506  20.396  0.00  0.00    -0.084 SA
BRANCH   5   6
ATOM      6  C   UNL d   1     -40.213  14.978  20.747  0.00  0.00     0.047 A 
ATOM      7  C   UNL d   1     -39.573  15.234  20.301  0.00  0.00     0.091 A 
ATOM      8  C   UNL d   1     -38.986  15.705  20.644  0.00  0.00     0.020 A 
ATOM      9  C   UNL d   1     -39.043  15.921  21.436  0.00  0.00     0.002 A 
ATOM     10  C   UNL d   1     -39.690  15.664  21.888  0.00  0.00     0.001 A 
ATOM     11  C   UNL d   1     -40.271  15.194  21.539  0.00  0.00     0.008 A 
BRANCH   7  12
ATOM     12  N   UNL d   1     -39.513  15.019  19.506  0.00  0.00    -0.206 NA
ATOM     13  C   UNL d   1     -38.922  15.342  19.042  0.00  0.00     0.302 C 
ATOM     14  O   UNL d   1     -38.386  15.880  19.359  0.00  0.00    -0.263 OA
BRANCH  13  15
ATOM     15  C   UNL d   1     -38.859  15.127  18.238  0.00  0.00     0.161 A 
ATOM     16  C   UNL d   1     -39.180  15.601  17.655  0.00  0.00     0.072 A 
ATOM     17  C   UNL d   1     -39.112  15.379  16.861  0.00  0.00     0.200 A 
ATOM     18  O   UNL d   1     -39.435  15.856  16.264  0.00  0.00    -0.286 OA
ATOM     19  C   UNL d   1     -38.723  14.684  16.664  0.00  0.00     0.062 A 
ATOM     20  C   UNL d   1     -38.400  14.205  17.245  0.00  0.00     0.103 A 
ATOM     21  C   UNL d   1     -38.653  14.457  15.867  0.00  0.00     0.005 A 
ATOM     22  O   UNL d   1     -38.470  14.432  18.041  0.00  0.00    -0.302 OA
ATOM     23  C   UNL d   1     -38.006  13.504  17.054  0.00  0.00     0.025 A 
ATOM     24  C   UNL d   1     -37.940  13.284  16.261  0.00  0.00     0.002 A 
ATOM     25  C   UNL d   1     -38.263  13.762  15.671  0.00  0.00     0.000 A 
ENDBRANCH  13  15
ENDBRANCH   7  12
ENDBRANCH   5   6
ENDBRANCH   4   5
ENDBRANCH   3   4
TORSDOF 5
ENDMDL
MODEL 8
REMARK VINA RESULT:      -7.0      7.047      8.633
REMARK  5 active torsions:
REMARK  status: ('A' for Active; 'I' for Inactive)
REMARK    1  A    between atoms: C_5  and  C_1 
REMARK       I    between atoms: N_7  and  C_5 
REMARK    2  A    between atoms: C_10  and  N_7 
REMARK    3  A    between atoms: S_15  and  C_14 
REMARK    4  A    between atoms: C_20  and  S_15 
REMARK    5  A    between atoms: C_16  and  C_20 
ROOT
ATOM      1  N   UNL d   1     -41.650  13.777  21.068  0.00  0.00    -0.191 NA
ATOM      2  C   UNL d   1     -42.393  13.399  21.110  0.00  0.00     0.102 C 
ATOM      3  C   UNL d   1     -43.124  13.021  21.157  0.00  0.00     0.085 C 
ENDROOT
BRANCH   3   4
ATOM      4  C   UNL d   1     -43.264  12.457  21.737  0.00  0.00     0.046 C 
BRANCH   4   5
ATOM      5  S   UNL d   1     -44.027  12.367  22.052  0.00  0.00    -0.084 SA
BRANCH   5   6
ATOM      6  C   UNL d   1     -44.183  11.753  22.587  0.00  0.00     0.047 A 
ATOM      7  C   UNL d   1     -44.930  11.683  22.922  0.00  0.00     0.091 A 
ATOM      8  C   UNL d   1     -45.093  11.073  23.457  0.00  0.00     0.020 A 
ATOM      9  C   UNL d   1     -44.505  10.533  23.655  0.00  0.00     0.002 A 
ATOM     10  C   UNL d   1     -43.749  10.602  23.318  0.00  0.00     0.001 A 
ATOM     11  C   UNL d   1     -43.595  11.213  22.786  0.00  0.00     0.008 A 
BRANCH   7  12
ATOM     12  N   UNL d   1     -45.521  12.224  22.724  0.00  0.00    -0.206 NA
ATOM     13  C   UNL d   1     -46.241  12.197  23.112  0.00  0.00     0.302 C 
ATOM     14  O   UNL d   1     -46.382  11.636  23.698  0.00  0.00    -0.263 OA
BRANCH  13  15
ATOM     15  C   UNL d   1     -46.841  12.742  22.915  0.00  0.00     0.161 A 
ATOM     16  C   UNL d   1     -46.749  13.538  23.077  0.00  0.00     0.072 A 
ATOM     17  C   UNL d   1     -47.350  14.071  22.877  0.00  0.00     0.200 A 
ATOM     18  O   UNL d   1     -47.263  14.879  23.039  0.00  0.00    -0.286 OA
ATOM     19  C   UNL d   1     -48.035  13.796  22.517  0.00  0.00     0.062 A 
ATOM     20  C   UNL d   1     -48.131  13.000  22.353  0.00  0.00     0.103 A 
ATOM     21  C   UNL d   1     -48.641  14.328  22.315  0.00  0.00     0.005 A 
ATOM     22  O   UNL d   1     -47.526  12.468  22.555  0.00  0.00    -0.302 OA
ATOM     23  C   UNL d   1     -48.818  12.716  21.990  0.00  0.00     0.025 A 
ATOM     24  C   UNL d   1     -49.417  13.249  21.792  0.00  0.00     0.002 A 
ATOM     25  C   UNL d   1     -49.325  14.053  21.955  0.00  0.00     0.000 A 
ENDBRANCH  13  15
ENDBRANCH   7  12
ENDBRANCH   5   6
ENDBRANCH   4   5
ENDBRANCH   3   4
TORSDOF 5
ENDMDL
