MODEL 1
REMARK VINA RESULT:      42.7      0.000      0.000
REMARK  6 active torsions:
REMARK  status: ('A' for Active; 'I' for Inactive)
REMARK    1  A    between atoms: C_13  and  C_4 
REMARK    2  A    between atoms: N_16  and  C_5 
REMARK    3  A    between atoms: N_11  and  C_18 
REMARK    4  A    between atoms: C_21  and  N_16 
REMARK    5  A    between atoms: C_18  and  C_19 
REMARK    6  A    between atoms: C_19  and  C_21 
ROOT
ATOM      1  N   UNL d   1      13.230  13.220  -3.925  0.00  0.00    -0.195 N 
ATOM      2  C   UNL d   1      13.306  13.559  -4.672  0.00  0.00     0.167 A 
ATOM      3  N   UNL d   1      13.267  13.820  -3.368  0.00  0.00    -0.163 NA
ATOM      4  C   UNL d   1      13.390  14.366  -4.573  0.00  0.00     0.055 A 
ATOM      5  C   UNL d   1      13.137  12.405  -3.848  0.00  0.00     0.167 A 
ATOM      6  C   UNL d   1      13.366  14.531  -3.770  0.00  0.00     0.104 A 
ATOM      7  N   UNL d   1      13.290  13.084  -5.344  0.00  0.00    -0.227 NA
ATOM      8  C   UNL d   1      13.119  11.924  -4.524  0.00  0.00     0.058 A 
ATOM      9  C   UNL d   1      13.196  12.263  -5.271  0.00  0.00     0.086 A 
ATOM     10  C   UNL d   1      13.430  15.281  -3.432  0.00  0.00     0.023 C 
ATOM     11  C   UNL d   1      13.179  11.788  -5.953  0.00  0.00     0.021 C 
ENDROOT
BRANCH   5  12
ATOM     12  N   UNL d   1      13.060  12.066  -3.101  0.00  0.00    -0.225 NA
BRANCH  12  13
ATOM     13  C   UNL d   1      13.731  11.898  -2.655  0.00  0.00     0.102 C 
BRANCH  13  14
ATOM     14  C   UNL d   1      13.680  11.860  -1.828  0.00  0.00     0.040 C 
BRANCH  14  15
ATOM     15  C   UNL d   1      14.363  11.781  -1.377  0.00  0.00     0.083 C 
BRANCH  15  16
ATOM     16  N   UNL d   1      14.673  12.439  -0.971  0.00  0.00    -0.285 N 
ATOM     17  C   UNL d   1      15.329  12.920  -1.114  0.00  0.00     0.183 A 
ATOM     18  N   UNL d   1      15.362  13.485  -0.525  0.00  0.00    -0.222 NA
ATOM     19  C   UNL d   1      14.732  13.361  -0.015  0.00  0.00     0.120 A 
ATOM     20  C   UNL d   1      14.304  12.715  -0.289  0.00  0.00     0.102 A 
ENDBRANCH  15  16
ENDBRANCH  14  15
ENDBRANCH  13  14
ENDBRANCH  12  13
ENDBRANCH   5  12
BRANCH   4  21
ATOM     21  C   UNL d   1      13.486  14.984  -5.118  0.00  0.00     0.004 A 
ATOM     22  C   UNL d   1      12.837  15.250  -5.554  0.00  0.00     0.000 A 
ATOM     23  C   UNL d   1      12.934  15.868  -6.100  0.00  0.00     0.000 A 
ATOM     24  C   UNL d   1      13.674  16.215  -6.207  0.00  0.00     0.000 A 
ATOM     25  C   UNL d   1      14.324  15.945  -5.767  0.00  0.00     0.000 A 
ATOM     26  C   UNL d   1      14.227  15.330  -5.224  0.00  0.00     0.000 A 
ENDBRANCH   4  21
TORSDOF 6
ENDMDL
