MODEL 1
REMARK VINA RESULT:      50.1      0.000      0.000
REMARK  8 active torsions:
REMARK  status: ('A' for Active; 'I' for Inactive)
REMARK    1  A    between atoms: C_6  and  N_1 
REMARK    2  A    between atoms: C_7  and  C_2 
REMARK    3  A    between atoms: C_8  and  C_6 
REMARK    4  A    between atoms: O_14  and  C_8 
REMARK    5  A    between atoms: O_15  and  C_8 
REMARK    6  A    between atoms: O_18  and  C_11 
REMARK    7  A    between atoms: C_20  and  O_14 
REMARK    8  A    between atoms: C_19  and  O_15 
ROOT
ATOM      1  N   UNL d   1     -54.843-101.251 -43.817  0.00  0.00    -0.286 N 
ATOM      2  C   UNL d   1     -54.769-101.926 -43.345  0.00  0.00     0.148 A 
ATOM      3  N   UNL d   1     -54.711-102.562 -43.867  0.00  0.00    -0.227 NA
ATOM      4  C   UNL d   1     -54.831-101.469 -44.592  0.00  0.00     0.083 A 
ATOM      5  C   UNL d   1     -54.748-102.290 -44.623  0.00  0.00     0.099 A 
ATOM      6  C   UNL d   1     -54.885-101.028 -45.290  0.00  0.00     0.019 A 
ATOM      7  C   UNL d   1     -54.722-102.647 -45.352  0.00  0.00     0.021 A 
ATOM      8  C   UNL d   1     -54.855-101.418 -45.994  0.00  0.00     0.002 A 
ATOM      9  C   UNL d   1     -54.772-102.239 -46.025  0.00  0.00     0.002 A 
ENDROOT
BRANCH   1  10
ATOM     10  C   UNL d   1     -54.915-100.496 -43.538  0.00  0.00     0.133 C 
BRANCH  10  11
ATOM     11  C   UNL d   1     -55.364 -99.950 -43.984  0.00  0.00     0.222 C 
BRANCH  11  12
ATOM     12  O   UNL d   1     -55.012 -99.506 -44.589  0.00  0.00    -0.282 OA
BRANCH  12  13
ATOM     13  C   UNL d   1     -55.040 -98.896 -45.127  0.00  0.00     0.125 C 
ATOM     14  C   UNL d   1     -54.712 -99.001 -45.882  0.00  0.00     0.029 C 
ENDBRANCH  12  13
ENDBRANCH  11  12
BRANCH  11  15
ATOM     15  O   UNL d   1     -56.189 -99.840 -43.828  0.00  0.00    -0.282 OA
BRANCH  15  16
ATOM     16  C   UNL d   1     -56.700 -99.207 -43.706  0.00  0.00     0.125 C 
ATOM     17  C   UNL d   1     -57.209 -98.960 -44.304  0.00  0.00     0.029 C 
ENDBRANCH  15  16
ENDBRANCH  11  15
ENDBRANCH  10  11
ENDBRANCH   1  10
BRANCH   2  18
ATOM     18  C   UNL d   1     -54.755-101.956 -42.520  0.00  0.00     0.035 A 
ATOM     19  C   UNL d   1     -54.765-102.689 -42.135  0.00  0.00     0.005 A 
ATOM     20  C   UNL d   1     -54.751-102.720 -41.310  0.00  0.00     0.024 A 
ATOM     21  C   UNL d   1     -54.727-102.016 -40.872  0.00  0.00     0.094 A 
ATOM     22  C   UNL d   1     -54.717-101.288 -41.259  0.00  0.00     0.024 A 
ATOM     23  C   UNL d   1     -54.731-101.258 -42.083  0.00  0.00     0.005 A 
BRANCH  21  24
ATOM     24  O   UNL d   1     -54.713-102.046 -40.047  0.00  0.00    -0.328 OA
ATOM     25  C   UNL d   1     -55.294-102.475 -39.640  0.00  0.00     0.181 C 
ENDBRANCH  21  24
ENDBRANCH   2  18
TORSDOF 8
ENDMDL
