MODEL 1
REMARK VINA RESULT:      -4.8      0.000      0.000
REMARK  3 active torsions:
REMARK  status: ('A' for Active; 'I' for Inactive)
REMARK    1  A    between atoms: C_6  and  C_3 
REMARK    2  A    between atoms: C_9  and  C_6 
REMARK    3  A    between atoms: O_15  and  C_10 
ROOT
ATOM      1  C   UNL d   1     -41.357-122.484 -52.381  0.00  0.00     0.001 A 
ATOM      2  C   UNL d   1     -41.800-122.705 -50.800  0.00  0.00     0.094 A 
ATOM      3  C   UNL d   1     -41.263-123.226 -52.036  0.00  0.00     0.002 A 
ATOM      4  C   UNL d   1     -41.668-121.854 -51.948  0.00  0.00     0.002 A 
ATOM      5  C   UNL d   1     -41.489-123.334 -51.233  0.00  0.00     0.024 A 
ATOM      6  C   UNL d   1     -41.885-121.952 -51.181  0.00  0.00     0.024 A 
ENDROOT
BRANCH   1   7
ATOM      7  C   UNL d   1     -41.123-122.425 -53.171  0.00  0.00     0.011 C 
BRANCH   7   8
ATOM      8  C   UNL d   1     -41.654-122.418 -53.818  0.00  0.00     0.092 A 
ATOM      9  C   UNL d   1     -41.678-122.906 -54.448  0.00  0.00     0.288 A 
ATOM     10  N   UNL d   1     -42.282-122.688 -54.924  0.00  0.00    -0.163 NA
ATOM     11  O   UNL d   1     -41.130-123.560 -54.578  0.00  0.00    -0.265 OA
ATOM     12  C   UNL d   1     -42.638-122.025 -54.547  0.00  0.00     0.313 A 
ATOM     13  S   UNL d   1     -42.224-121.891 -53.871  0.00  0.00    -0.021 SA
ATOM     14  O   UNL d   1     -43.304-121.600 -54.845  0.00  0.00    -0.258 OA
ENDBRANCH   7   8
ENDBRANCH   1   7
BRANCH   2  15
ATOM     15  O   UNL d   1     -42.018-122.823 -50.011  0.00  0.00    -0.328 OA
ATOM     16  C   UNL d   1     -42.731-122.550 -49.745  0.00  0.00     0.181 C 
ENDBRANCH   2  15
TORSDOF 3
ENDMDL
MODEL 2
REMARK VINA RESULT:      -4.6      1.902      3.744
REMARK  3 active torsions:
REMARK  status: ('A' for Active; 'I' for Inactive)
REMARK    1  A    between atoms: C_6  and  C_3 
REMARK    2  A    between atoms: C_9  and  C_6 
REMARK    3  A    between atoms: O_15  and  C_10 
ROOT
ATOM      1  C   UNL d   1     -41.132-122.709 -51.631  0.00  0.00     0.001 A 
ATOM      2  C   UNL d   1     -41.149-122.952 -53.270  0.00  0.00     0.094 A 
ATOM      3  C   UNL d   1     -41.150-122.057 -52.136  0.00  0.00     0.002 A 
ATOM      4  C   UNL d   1     -41.123-123.476 -51.935  0.00  0.00     0.002 A 
ATOM      5  C   UNL d   1     -41.159-122.186 -52.967  0.00  0.00     0.024 A 
ATOM      6  C   UNL d   1     -41.131-123.604 -52.728  0.00  0.00     0.024 A 
ENDROOT
BRANCH   1   7
ATOM      7  C   UNL d   1     -41.124-122.536 -50.824  0.00  0.00     0.011 C 
BRANCH   7   8
ATOM      8  C   UNL d   1     -41.771-122.674 -50.310  0.00  0.00     0.092 A 
ATOM      9  C   UNL d   1     -41.795-123.123 -49.650  0.00  0.00     0.288 A 
ATOM     10  N   UNL d   1     -42.531-123.090 -49.340  0.00  0.00    -0.163 NA
ATOM     11  O   UNL d   1     -41.124-123.566 -49.338  0.00  0.00    -0.265 OA
ATOM     12  C   UNL d   1     -42.970-122.587 -49.853  0.00  0.00     0.313 A 
ATOM     13  S   UNL d   1     -42.467-122.352 -50.435  0.00  0.00    -0.021 SA
ATOM     14  O   UNL d   1     -43.783-122.383 -49.751  0.00  0.00    -0.258 OA
ENDBRANCH   7   8
ENDBRANCH   1   7
BRANCH   2  15
ATOM     15  O   UNL d   1     -41.158-123.066 -54.089  0.00  0.00    -0.328 OA
ATOM     16  C   UNL d   1     -41.755-122.750 -54.533  0.00  0.00     0.181 C 
ENDBRANCH   2  15
TORSDOF 3
ENDMDL
MODEL 3
REMARK VINA RESULT:      -4.4      1.597      3.607
REMARK  3 active torsions:
REMARK  status: ('A' for Active; 'I' for Inactive)
REMARK    1  A    between atoms: C_6  and  C_3 
REMARK    2  A    between atoms: C_9  and  C_6 
REMARK    3  A    between atoms: O_15  and  C_10 
ROOT
ATOM      1  C   UNL d   1     -41.421-122.512 -53.028  0.00  0.00     0.001 A 
ATOM      2  C   UNL d   1     -41.967-122.586 -54.591  0.00  0.00     0.094 A 
ATOM      3  C   UNL d   1     -41.202-123.150 -53.503  0.00  0.00     0.002 A 
ATOM      4  C   UNL d   1     -41.906-121.915 -53.324  0.00  0.00     0.002 A 
ATOM      5  C   UNL d   1     -41.481-123.183 -54.295  0.00  0.00     0.024 A 
ATOM      6  C   UNL d   1     -42.176-121.942 -54.080  0.00  0.00     0.024 A 
ENDROOT
BRANCH   1   7
ATOM      7  C   UNL d   1     -41.123-122.521 -52.258  0.00  0.00     0.011 C 
BRANCH   7   8
ATOM      8  C   UNL d   1     -41.595-122.632 -51.576  0.00  0.00     0.092 A 
ATOM      9  C   UNL d   1     -41.738-122.120 -50.980  0.00  0.00     0.288 A 
ATOM     10  N   UNL d   1     -42.222-122.468 -50.448  0.00  0.00    -0.163 NA
ATOM     11  O   UNL d   1     -41.413-121.322 -50.935  0.00  0.00    -0.265 OA
ATOM     12  C   UNL d   1     -42.375-123.238 -50.751  0.00  0.00     0.313 A 
ATOM     13  S   UNL d   1     -41.972-123.299 -51.445  0.00  0.00    -0.021 SA
ATOM     14  O   UNL d   1     -42.863-123.817 -50.378  0.00  0.00    -0.258 OA
ENDBRANCH   7   8
ENDBRANCH   1   7
BRANCH   2  15
ATOM     15  O   UNL d   1     -42.235-122.630 -55.372  0.00  0.00    -0.328 OA
ATOM     16  C   UNL d   1     -42.483-121.960 -55.751  0.00  0.00     0.181 C 
ENDBRANCH   2  15
TORSDOF 3
ENDMDL
MODEL 4
REMARK VINA RESULT:      -3.4      2.342      4.223
REMARK  3 active torsions:
REMARK  status: ('A' for Active; 'I' for Inactive)
REMARK    1  A    between atoms: C_6  and  C_3 
REMARK    2  A    between atoms: C_9  and  C_6 
REMARK    3  A    between atoms: O_15  and  C_10 
ROOT
ATOM      1  C   UNL d   1     -41.492-123.337 -50.986  0.00  0.00     0.001 A 
ATOM      2  C   UNL d   1     -41.247-122.460 -52.370  0.00  0.00     0.094 A 
ATOM      3  C   UNL d   1     -41.294-123.730 -51.683  0.00  0.00     0.002 A 
ATOM      4  C   UNL d   1     -41.568-122.516 -50.973  0.00  0.00     0.002 A 
ATOM      5  C   UNL d   1     -41.170-123.281 -52.383  0.00  0.00     0.024 A 
ATOM      6  C   UNL d   1     -41.451-122.083 -51.639  0.00  0.00     0.024 A 
ENDROOT
BRANCH   1   7
ATOM      7  C   UNL d   1     -41.603-123.817 -50.323  0.00  0.00     0.011 C 
BRANCH   7   8
ATOM      8  C   UNL d   1     -41.858-123.534 -49.578  0.00  0.00     0.092 A 
ATOM      9  C   UNL d   1     -42.596-123.523 -49.275  0.00  0.00     0.288 A 
ATOM     10  N   UNL d   1     -42.573-123.201 -48.544  0.00  0.00    -0.163 NA
ATOM     11  O   UNL d   1     -43.296-123.816 -49.686  0.00  0.00    -0.265 OA
ATOM     12  C   UNL d   1     -41.765-123.009 -48.407  0.00  0.00     0.313 A 
ATOM     13  S   UNL d   1     -41.359-123.230 -49.066  0.00  0.00    -0.021 SA
ATOM     14  O   UNL d   1     -41.464-122.654 -47.703  0.00  0.00    -0.258 OA
ENDBRANCH   7   8
ENDBRANCH   1   7
BRANCH   2  15
ATOM     15  O   UNL d   1     -41.123-122.030 -53.065  0.00  0.00    -0.328 OA
ATOM     16  C   UNL d   1     -41.514-122.236 -53.742  0.00  0.00     0.181 C 
ENDBRANCH   2  15
TORSDOF 3
ENDMDL
MODEL 5
REMARK VINA RESULT:      -3.0      1.578      2.255
REMARK  3 active torsions:
REMARK  status: ('A' for Active; 'I' for Inactive)
REMARK    1  A    between atoms: C_6  and  C_3 
REMARK    2  A    between atoms: C_9  and  C_6 
REMARK    3  A    between atoms: O_15  and  C_10 
ROOT
ATOM      1  C   UNL d   1     -41.563-122.480 -50.446  0.00  0.00     0.001 A 
ATOM      2  C   UNL d   1     -42.358-123.228 -49.200  0.00  0.00     0.094 A 
ATOM      3  C   UNL d   1     -41.147-122.990 -49.951  0.00  0.00     0.002 A 
ATOM      4  C   UNL d   1     -42.367-122.340 -50.327  0.00  0.00     0.002 A 
ATOM      5  C   UNL d   1     -41.554-123.368 -49.319  0.00  0.00     0.024 A 
ATOM      6  C   UNL d   1     -42.760-122.698 -49.725  0.00  0.00     0.024 A 
ENDROOT
BRANCH   1   7
ATOM      7  C   UNL d   1     -41.122-122.132 -51.052  0.00  0.00     0.011 C 
BRANCH   7   8
ATOM      8  C   UNL d   1     -41.180-122.352 -51.858  0.00  0.00     0.092 A 
ATOM      9  C   UNL d   1     -41.186-121.884 -52.504  0.00  0.00     0.288 A 
ATOM     10  N   UNL d   1     -41.250-122.341 -53.156  0.00  0.00    -0.163 NA
ATOM     11  O   UNL d   1     -41.131-121.023 -52.481  0.00  0.00    -0.265 OA
ATOM     12  C   UNL d   1     -41.284-123.133 -52.876  0.00  0.00     0.313 A 
ATOM     13  S   UNL d   1     -41.238-123.097 -52.073  0.00  0.00    -0.021 SA
ATOM     14  O   UNL d   1     -41.353-123.817 -53.365  0.00  0.00    -0.258 OA
ENDBRANCH   7   8
ENDBRANCH   1   7
BRANCH   2  15
ATOM     15  O   UNL d   1     -42.747-123.604 -48.575  0.00  0.00    -0.328 OA
ATOM     16  C   UNL d   1     -42.355-123.746 -47.883  0.00  0.00     0.181 C 
ENDBRANCH   2  15
TORSDOF 3
ENDMDL
