MODEL 1
REMARK VINA RESULT:       1.0      0.000      0.000
REMARK  5 active torsions:
REMARK  status: ('A' for Active; 'I' for Inactive)
REMARK    1  A    between atoms: C_2  and  C_1 
REMARK    2  A    between atoms: C_4  and  C_1 
REMARK       I    between atoms: N_3  and  C_2 
REMARK    3  A    between atoms: C_5  and  N_3 
REMARK    4  A    between atoms: C_11  and  C_5 
REMARK    5  A    between atoms: C_12  and  C_5 
ROOT
ATOM      1  C   UNL d   1      29.935  16.799 -23.428  0.00  0.00     0.315 C 
ATOM      2  N   UNL d   1      30.738  16.940 -23.563  0.00  0.00    -0.367 NA
ATOM      3  O   UNL d   1      29.673  16.582 -22.677  0.00  0.00    -0.255 OA
ENDROOT
BRANCH   2   4
ATOM      4  C   UNL d   1      31.780  17.120 -23.731  0.00  0.00     0.135 C 
BRANCH   4   5
ATOM      5  C   UNL d   1      32.069  17.788 -23.577  0.00  0.00     0.030 A 
ATOM      6  C   UNL d   1      32.453  18.205 -24.144  0.00  0.00     0.003 A 
ATOM      7  C   UNL d   1      32.782  18.951 -23.992  0.00  0.00     0.000 A 
ATOM      8  C   UNL d   1      32.700  19.271 -23.202  0.00  0.00     0.000 A 
ATOM      9  C   UNL d   1      32.315  18.854 -22.634  0.00  0.00     0.000 A 
ATOM     10  C   UNL d   1      31.981  18.083 -22.812  0.00  0.00     0.003 A 
ENDBRANCH   4   5
BRANCH   4  11
ATOM     11  C   UNL d   1      32.219  16.595 -23.998  0.00  0.00     0.030 A 
ATOM     12  C   UNL d   1      32.538  16.056 -23.508  0.00  0.00     0.003 A 
ATOM     13  C   UNL d   1      33.035  15.457 -23.794  0.00  0.00     0.000 A 
ATOM     14  C   UNL d   1      33.176  15.455 -24.602  0.00  0.00     0.000 A 
ATOM     15  C   UNL d   1      32.853  15.999 -25.090  0.00  0.00     0.000 A 
ATOM     16  C   UNL d   1      32.359  16.593 -24.802  0.00  0.00     0.003 A 
ENDBRANCH   4  11
ENDBRANCH   2   4
BRANCH   1  17
ATOM     17  C   UNL d   1      29.386  16.874 -24.046  0.00  0.00     0.150 A 
ATOM     18  C   UNL d   1      28.844  16.950 -24.654  0.00  0.00     0.019 A 
ATOM     19  C   UNL d   1      28.472  16.272 -24.969  0.00  0.00     0.119 A 
ATOM     20  O   UNL d   1      28.645  15.531 -24.672  0.00  0.00    -0.304 OA
ATOM     21  C   UNL d   1      29.193  15.453 -24.056  0.00  0.00     0.119 A 
ATOM     22  C   UNL d   1      29.565  16.124 -23.741  0.00  0.00     0.019 A 
BRANCH  17  23
ATOM     23  C   UNL d   1      29.210  17.628 -24.348  0.00  0.00     0.024 A 
ATOM     24  S   UNL d   1      28.613  18.145 -24.082  0.00  0.00    -0.090 SA
ATOM     25  C   UNL d   1      28.631  18.835 -24.538  0.00  0.00     0.035 A 
ATOM     26  C   UNL d   1      29.234  18.764 -25.093  0.00  0.00     0.007 A 
ATOM     27  C   UNL d   1      29.595  18.016 -24.978  0.00  0.00     0.004 A 
ENDBRANCH  17  23
ENDBRANCH   1  17
TORSDOF 5
ENDMDL
MODEL 2
REMARK VINA RESULT:       3.3      1.145      1.927
REMARK  5 active torsions:
REMARK  status: ('A' for Active; 'I' for Inactive)
REMARK    1  A    between atoms: C_2  and  C_1 
REMARK    2  A    between atoms: C_4  and  C_1 
REMARK       I    between atoms: N_3  and  C_2 
REMARK    3  A    between atoms: C_5  and  N_3 
REMARK    4  A    between atoms: C_11  and  C_5 
REMARK    5  A    between atoms: C_12  and  C_5 
ROOT
ATOM      1  C   UNL d   1      29.460  17.990 -24.404  0.00  0.00     0.315 C 
ATOM      2  N   UNL d   1      30.259  17.829 -24.264  0.00  0.00    -0.367 NA
ATOM      3  O   UNL d   1      29.244  18.590 -24.927  0.00  0.00    -0.255 OA
ENDROOT
BRANCH   2   4
ATOM      4  C   UNL d   1      31.294  17.627 -24.086  0.00  0.00     0.135 C 
BRANCH   4   5
ATOM      5  C   UNL d   1      31.748  18.177 -23.874  0.00  0.00     0.030 A 
ATOM      6  C   UNL d   1      32.081  18.169 -23.145  0.00  0.00     0.003 A 
ATOM      7  C   UNL d   1      32.589  18.773 -22.889  0.00  0.00     0.000 A 
ATOM      8  C   UNL d   1      32.751  19.416 -23.432  0.00  0.00     0.000 A 
ATOM      9  C   UNL d   1      32.417  19.423 -24.162  0.00  0.00     0.000 A 
ATOM     10  C   UNL d   1      31.894  18.788 -24.407  0.00  0.00     0.003 A 
ENDBRANCH   4   5
BRANCH   4  11
ATOM     11  C   UNL d   1      31.570  16.950 -24.171  0.00  0.00     0.030 A 
ATOM     12  C   UNL d   1      31.723  16.670 -24.899  0.00  0.00     0.003 A 
ATOM     13  C   UNL d   1      32.034  15.910 -25.009  0.00  0.00     0.000 A 
ATOM     14  C   UNL d   1      32.171  15.470 -24.330  0.00  0.00     0.000 A 
ATOM     15  C   UNL d   1      32.015  15.756 -23.601  0.00  0.00     0.000 A 
ATOM     16  C   UNL d   1      31.706  16.513 -23.494  0.00  0.00     0.003 A 
ENDBRANCH   4  11
ENDBRANCH   2   4
BRANCH   1  17
ATOM     17  C   UNL d   1      28.869  17.550 -24.021  0.00  0.00     0.150 A 
ATOM     18  C   UNL d   1      28.288  17.115 -23.645  0.00  0.00     0.019 A 
ATOM     19  C   UNL d   1      27.883  17.437 -22.990  0.00  0.00     0.119 A 
ATOM     20  O   UNL d   1      28.064  18.187 -22.722  0.00  0.00    -0.304 OA
ATOM     21  C   UNL d   1      28.653  18.629 -23.101  0.00  0.00     0.119 A 
ATOM     22  C   UNL d   1      29.057  18.311 -23.752  0.00  0.00     0.019 A 
BRANCH  17  23
ATOM     23  C   UNL d   1      28.684  16.787 -24.294  0.00  0.00     0.024 A 
ATOM     24  S   UNL d   1      28.674  16.086 -23.845  0.00  0.00    -0.090 SA
ATOM     25  C   UNL d   1      28.460  15.454 -24.335  0.00  0.00     0.035 A 
ATOM     26  C   UNL d   1      28.335  15.746 -25.095  0.00  0.00     0.007 A 
ATOM     27  C   UNL d   1      28.473  16.572 -25.072  0.00  0.00     0.004 A 
ENDBRANCH  17  23
ENDBRANCH   1  17
TORSDOF 5
ENDMDL
