MODEL 1
REMARK VINA RESULT:      -7.2      0.000      0.000
REMARK  1 active torsions:
REMARK  status: ('A' for Active; 'I' for Inactive)
REMARK    1  A    between atoms: N_4  and  C_1 
ROOT
ATOM      1  C   UNL d   1     -48.638  14.354  22.882  0.00  0.00     0.735 A 
ATOM      2  N   UNL d   1     -47.913  14.707  22.701  0.00  0.00    -0.059 NA
ATOM      3  N   UNL d   1     -48.492  13.566  23.092  0.00  0.00    -0.059 NA
ATOM      4  C   UNL d   1     -47.318  14.139  22.799  0.00  0.00     0.118 A 
ATOM      5  C   UNL d   1     -47.675  13.436  23.040  0.00  0.00     0.118 A 
ATOM      6  C   UNL d   1     -46.502  14.175  22.700  0.00  0.00     0.021 A 
ATOM      7  C   UNL d   1     -47.219  12.761  23.184  0.00  0.00     0.021 A 
ATOM      8  C   UNL d   1     -46.402  12.796  23.085  0.00  0.00     0.002 A 
ATOM      9  C   UNL d   1     -46.045  13.499  22.844  0.00  0.00     0.002 A 
ENDROOT
BRANCH   1  10
ATOM     10  N   UNL d   1     -49.380  14.713  22.860  0.00  0.00    -0.134 N 
ATOM     11  C   UNL d   1     -49.946  14.475  22.306  0.00  0.00     0.119 A 
ATOM     12  C   UNL d   1     -50.683  14.838  22.291  0.00  0.00     0.119 A 
ATOM     13  N   UNL d   1     -50.862  15.439  22.827  0.00  0.00    -0.239 NA
ATOM     14  C   UNL d   1     -50.296  15.677  23.381  0.00  0.00     0.119 A 
ATOM     15  C   UNL d   1     -49.551  15.316  23.402  0.00  0.00     0.119 A 
ENDBRANCH   1  10
TORSDOF 1
ENDMDL
MODEL 2
REMARK VINA RESULT:      -7.0      1.681      3.657
REMARK  1 active torsions:
REMARK  status: ('A' for Active; 'I' for Inactive)
REMARK    1  A    between atoms: N_4  and  C_1 
ROOT
ATOM      1  C   UNL d   1     -48.223  12.956  22.755  0.00  0.00     0.735 A 
ATOM      2  N   UNL d   1     -48.554  12.952  21.998  0.00  0.00    -0.059 NA
ATOM      3  N   UNL d   1     -48.845  12.948  23.304  0.00  0.00    -0.059 NA
ATOM      4  C   UNL d   1     -49.378  12.941  22.076  0.00  0.00     0.118 A 
ATOM      5  C   UNL d   1     -49.558  12.938  22.881  0.00  0.00     0.118 A 
ATOM      6  C   UNL d   1     -49.983  12.933  21.517  0.00  0.00     0.021 A 
ATOM      7  C   UNL d   1     -50.344  12.928  23.136  0.00  0.00     0.021 A 
ATOM      8  C   UNL d   1     -50.950  12.920  22.578  0.00  0.00     0.002 A 
ATOM      9  C   UNL d   1     -50.771  12.923  21.773  0.00  0.00     0.002 A 
ENDROOT
BRANCH   1  10
ATOM     10  N   UNL d   1     -47.420  12.967  22.944  0.00  0.00    -0.134 N 
ATOM     11  C   UNL d   1     -46.988  13.670  22.905  0.00  0.00     0.119 A 
ATOM     12  C   UNL d   1     -46.189  13.672  23.095  0.00  0.00     0.119 A 
ATOM     13  N   UNL d   1     -45.815  12.974  23.323  0.00  0.00    -0.239 NA
ATOM     14  C   UNL d   1     -46.246  12.269  23.361  0.00  0.00     0.119 A 
ATOM     15  C   UNL d   1     -47.053  12.260  23.172  0.00  0.00     0.119 A 
ENDBRANCH   1  10
TORSDOF 1
ENDMDL
