MODEL 1
REMARK VINA RESULT:      -9.5      0.000      0.000
REMARK  7 active torsions:
REMARK  status: ('A' for Active; 'I' for Inactive)
REMARK    1  A    between atoms: C_11  and  C_3 
REMARK    2  A    between atoms: C_10  and  C_4 
REMARK    3  A    between atoms: O_16  and  C_10 
REMARK    4  A    between atoms: N_14  and  C_11 
REMARK    5  A    between atoms: C_21  and  N_14 
REMARK    6  A    between atoms: C_23  and  O_16 
REMARK    7  A    between atoms: C_20  and  C_21 
ROOT
ATOM      1  C   UNL d   1      53.406  32.686  53.791  0.00  0.00     0.035 A 
ATOM      2  C   UNL d   1      53.717  31.972  54.086  0.00  0.00     0.100 A 
ATOM      3  C   UNL d   1      52.838  32.659  53.197  0.00  0.00     0.060 A 
ATOM      4  C   UNL d   1      53.758  33.317  54.184  0.00  0.00     0.088 A 
ATOM      5  O   UNL d   1      54.281  32.180  54.684  0.00  0.00    -0.307 OA
ATOM      6  C   UNL d   1      54.293  32.980  54.729  0.00  0.00     0.105 A 
ATOM      7  C   UNL d   1      52.582  31.918  52.900  0.00  0.00     0.197 A 
ATOM      8  C   UNL d   1      53.469  31.226  53.798  0.00  0.00     0.026 A 
ATOM      9  C   UNL d   1      52.900  31.199  53.203  0.00  0.00     0.041 A 
ATOM     10  O   UNL d   1      52.001  31.890  52.292  0.00  0.00    -0.286 OA
ATOM     11  C   UNL d   1      54.781  33.419  55.256  0.00  0.00     0.027 C 
ATOM     12  C   UNL d   1      53.778  30.531  54.093  0.00  0.00     0.002 A 
ATOM     13  C   UNL d   1      52.644  30.477  52.906  0.00  0.00     0.003 A 
ATOM     14  C   UNL d   1      52.962  29.763  53.209  0.00  0.00     0.000 A 
ATOM     15  C   UNL d   1      53.530  29.790  53.804  0.00  0.00     0.000 A 
ENDROOT
BRANCH   3  16
ATOM     16  C   UNL d   1      52.535  33.402  52.911  0.00  0.00     0.102 C 
BRANCH  16  17
ATOM     17  N   UNL d   1      51.715  33.432  52.634  0.00  0.00    -0.240 NA
BRANCH  17  18
ATOM     18  C   UNL d   1      51.460  34.101  52.205  0.00  0.00     0.124 C 
BRANCH  18  19
ATOM     19  C   UNL d   1      50.659  34.292  52.200  0.00  0.00     0.119 A 
ATOM     20  O   UNL d   1      50.217  34.281  51.478  0.00  0.00    -0.304 OA
ATOM     21  C   UNL d   1      49.450  34.495  51.656  0.00  0.00     0.123 A 
ATOM     22  C   UNL d   1      49.409  34.634  52.446  0.00  0.00     0.029 A 
ATOM     23  C   UNL d   1      50.135  34.516  52.792  0.00  0.00     0.028 A 
ENDBRANCH  18  19
ENDBRANCH  17  18
ENDBRANCH  16  17
ENDBRANCH   3  16
BRANCH   4  24
ATOM     24  C   UNL d   1      53.624  34.140  54.077  0.00  0.00     0.302 C 
ATOM     25  O   UNL d   1      53.956  34.542  53.404  0.00  0.00    -0.259 OA
BRANCH  24  26
ATOM     26  O   UNL d   1      53.171  34.574  54.616  0.00  0.00    -0.271 OA
BRANCH  26  27
ATOM     27  C   UNL d   1      53.251  35.391  54.650  0.00  0.00     0.126 C 
ATOM     28  C   UNL d   1      52.727  35.833  55.081  0.00  0.00     0.029 C 
ENDBRANCH  26  27
ENDBRANCH  24  26
ENDBRANCH   4  24
TORSDOF 7
ENDMDL
MODEL 2
REMARK VINA RESULT:      -8.0      0.941      3.799
REMARK  7 active torsions:
REMARK  status: ('A' for Active; 'I' for Inactive)
REMARK    1  A    between atoms: C_11  and  C_3 
REMARK    2  A    between atoms: C_10  and  C_4 
REMARK    3  A    between atoms: O_16  and  C_10 
REMARK    4  A    between atoms: N_14  and  C_11 
REMARK    5  A    between atoms: C_21  and  N_14 
REMARK    6  A    between atoms: C_23  and  O_16 
REMARK    7  A    between atoms: C_20  and  C_21 
ROOT
ATOM      1  C   UNL d   1      52.432  34.054  53.501  0.00  0.00     0.035 A 
ATOM      2  C   UNL d   1      51.821  34.617  53.440  0.00  0.00     0.100 A 
ATOM      3  C   UNL d   1      52.326  33.311  53.164  0.00  0.00     0.060 A 
ATOM      4  C   UNL d   1      53.062  34.382  53.916  0.00  0.00     0.088 A 
ATOM      5  O   UNL d   1      52.093  35.316  53.836  0.00  0.00    -0.307 OA
ATOM      6  C   UNL d   1      52.830  35.159  54.111  0.00  0.00     0.105 A 
ATOM      7  C   UNL d   1      51.609  33.134  52.768  0.00  0.00     0.197 A 
ATOM      8  C   UNL d   1      51.101  34.451  53.047  0.00  0.00     0.026 A 
ATOM      9  C   UNL d   1      50.995  33.708  52.710  0.00  0.00     0.041 A 
ATOM     10  O   UNL d   1      51.500  32.373  52.424  0.00  0.00    -0.286 OA
ATOM     11  C   UNL d   1      53.302  35.709  54.541  0.00  0.00     0.027 C 
ATOM     12  C   UNL d   1      50.508  35.008  52.992  0.00  0.00     0.002 A 
ATOM     13  C   UNL d   1      50.295  33.525  52.320  0.00  0.00     0.003 A 
ATOM     14  C   UNL d   1      49.686  34.098  52.263  0.00  0.00     0.000 A 
ATOM     15  C   UNL d   1      49.792  34.841  52.600  0.00  0.00     0.000 A 
ENDROOT
BRANCH   3  16
ATOM     16  C   UNL d   1      52.964  32.752  53.240  0.00  0.00     0.102 C 
BRANCH  16  17
ATOM     17  N   UNL d   1      52.778  31.908  53.191  0.00  0.00    -0.240 NA
BRANCH  17  18
ATOM     18  C   UNL d   1      53.406  31.361  53.138  0.00  0.00     0.124 C 
BRANCH  18  19
ATOM     19  C   UNL d   1      53.292  30.592  53.409  0.00  0.00     0.119 A 
ATOM     20  O   UNL d   1      53.526  30.370  54.192  0.00  0.00    -0.304 OA
ATOM     21  C   UNL d   1      53.342  29.581  54.290  0.00  0.00     0.123 A 
ATOM     22  C   UNL d   1      53.009  29.318  53.607  0.00  0.00     0.029 A 
ATOM     23  C   UNL d   1      52.972  29.919  53.061  0.00  0.00     0.028 A 
ENDBRANCH  18  19
ENDBRANCH  17  18
ENDBRANCH  16  17
ENDBRANCH   3  16
BRANCH   4  24
ATOM     24  C   UNL d   1      53.798  34.028  54.115  0.00  0.00     0.302 C 
ATOM     25  O   UNL d   1      54.406  33.947  53.524  0.00  0.00    -0.259 OA
BRANCH  24  26
ATOM     26  O   UNL d   1      53.948  33.753  54.881  0.00  0.00    -0.271 OA
BRANCH  26  27
ATOM     27  C   UNL d   1      54.724  33.658  55.135  0.00  0.00     0.126 C 
ATOM     28  C   UNL d   1      54.876  33.383  55.881  0.00  0.00     0.029 C 
ENDBRANCH  26  27
ENDBRANCH  24  26
ENDBRANCH   4  24
TORSDOF 7
ENDMDL
MODEL 3
REMARK VINA RESULT:      -6.8      0.928      3.061
REMARK  7 active torsions:
REMARK  status: ('A' for Active; 'I' for Inactive)
REMARK    1  A    between atoms: C_11  and  C_3 
REMARK    2  A    between atoms: C_10  and  C_4 
REMARK    3  A    between atoms: O_16  and  C_10 
REMARK    4  A    between atoms: N_14  and  C_11 
REMARK    5  A    between atoms: C_21  and  N_14 
REMARK    6  A    between atoms: C_23  and  O_16 
REMARK    7  A    between atoms: C_20  and  C_21 
ROOT
ATOM      1  C   UNL d   1      53.390  32.427  53.789  0.00  0.00     0.035 A 
ATOM      2  C   UNL d   1      54.153  32.540  54.104  0.00  0.00     0.100 A 
ATOM      3  C   UNL d   1      52.832  33.026  53.870  0.00  0.00     0.060 A 
ATOM      4  C   UNL d   1      53.349  31.685  53.437  0.00  0.00     0.088 A 
ATOM      5  O   UNL d   1      54.593  31.835  53.935  0.00  0.00    -0.307 OA
ATOM      6  C   UNL d   1      54.102  31.340  53.540  0.00  0.00     0.105 A 
ATOM      7  C   UNL d   1      53.039  33.736  54.264  0.00  0.00     0.197 A 
ATOM      8  C   UNL d   1      54.371  33.245  54.499  0.00  0.00     0.026 A 
ATOM      9  C   UNL d   1      53.812  33.844  54.580  0.00  0.00     0.041 A 
ATOM     10  O   UNL d   1      52.468  34.349  54.346  0.00  0.00    -0.286 OA
ATOM     11  C   UNL d   1      54.321  30.573  53.267  0.00  0.00     0.027 C 
ATOM     12  C   UNL d   1      55.120  33.347  54.804  0.00  0.00     0.002 A 
ATOM     13  C   UNL d   1      54.007  34.543  54.965  0.00  0.00     0.003 A 
ATOM     14  C   UNL d   1      54.777  34.649  55.278  0.00  0.00     0.000 A 
ATOM     15  C   UNL d   1      55.335  34.049  55.198  0.00  0.00     0.000 A 
ENDROOT
BRANCH   3  16
ATOM     16  C   UNL d   1      52.059  32.887  53.540  0.00  0.00     0.102 C 
BRANCH  16  17
ATOM     17  N   UNL d   1      51.577  33.573  53.321  0.00  0.00    -0.240 NA
BRANCH  17  18
ATOM     18  C   UNL d   1      50.748  33.487  53.285  0.00  0.00     0.124 C 
BRANCH  18  19
ATOM     19  C   UNL d   1      50.313  33.987  52.796  0.00  0.00     0.119 A 
ATOM     20  O   UNL d   1      49.768  34.545  53.124  0.00  0.00    -0.304 OA
ATOM     21  C   UNL d   1      49.429  34.952  52.504  0.00  0.00     0.123 A 
ATOM     22  C   UNL d   1      49.742  34.667  51.820  0.00  0.00     0.029 A 
ATOM     23  C   UNL d   1      50.281  34.080  51.980  0.00  0.00     0.028 A 
ENDBRANCH  18  19
ENDBRANCH  17  18
ENDBRANCH  16  17
ENDBRANCH   3  16
BRANCH   4  24
ATOM     24  C   UNL d   1      52.696  31.325  53.049  0.00  0.00     0.302 C 
ATOM     25  O   UNL d   1      52.575  31.449  52.215  0.00  0.00    -0.259 OA
BRANCH  24  26
ATOM     26  O   UNL d   1      52.162  30.848  53.462  0.00  0.00    -0.271 OA
BRANCH  26  27
ATOM     27  C   UNL d   1      51.879  30.158  53.114  0.00  0.00     0.126 C 
ATOM     28  C   UNL d   1      51.364  29.682  53.519  0.00  0.00     0.029 C 
ENDBRANCH  26  27
ENDBRANCH  24  26
ENDBRANCH   4  24
TORSDOF 7
ENDMDL
