MODEL 1
REMARK VINA RESULT:      17.9      0.000      0.000
REMARK  3 active torsions:
REMARK  status: ('A' for Active; 'I' for Inactive)
REMARK    1  A    between atoms: C_6  and  C_1 
REMARK    2  A    between atoms: C_8  and  C_4 
REMARK    3  A    between atoms: O_17  and  C_14 
ROOT
ATOM      1  C   UNL d   1      45.473 -14.742  44.574  0.00  0.00     0.122 A 
ATOM      2  C   UNL d   1      46.097 -14.950  44.062  0.00  0.00     0.285 A 
ATOM      3  N   UNL d   1      46.279 -15.744  43.936  0.00  0.00    -0.208 NA
ATOM      4  C   UNL d   1      45.844 -16.329  44.316  0.00  0.00     0.085 A 
ATOM      5  C   UNL d   1      45.038 -15.328  44.955  0.00  0.00     0.013 A 
ATOM      6  C   UNL d   1      45.227 -16.123  44.823  0.00  0.00     0.020 A 
ATOM      7  O   UNL d   1      46.533 -14.356  43.680  0.00  0.00    -0.265 OA
ENDROOT
BRANCH   4   8
ATOM      8  C   UNL d   1      46.026 -17.127  44.190  0.00  0.00     0.018 A 
ATOM      9  C   UNL d   1      46.115 -17.407  43.417  0.00  0.00     0.004 A 
ATOM     10  C   UNL d   1      46.295 -18.200  43.293  0.00  0.00     0.024 A 
ATOM     11  C   UNL d   1      46.386 -18.709  43.936  0.00  0.00     0.094 A 
ATOM     12  C   UNL d   1      46.296 -18.420  44.707  0.00  0.00     0.024 A 
ATOM     13  C   UNL d   1      46.115 -17.626  44.829  0.00  0.00     0.004 A 
BRANCH  11  14
ATOM     14  O   UNL d   1      46.569 -19.509  43.808  0.00  0.00    -0.328 OA
ATOM     15  C   UNL d   1      46.372 -20.076  44.366  0.00  0.00     0.181 C 
ENDBRANCH  11  14
ENDBRANCH   4   8
BRANCH   1  16
ATOM     16  C   UNL d   1      45.291 -13.949  44.701  0.00  0.00     0.216 C 
ATOM     17  O   UNL d   1      44.522 -13.677  44.578  0.00  0.00    -0.644 OA
ATOM     18  O   UNL d   1      45.876 -13.420  44.953  0.00  0.00    -0.644 OA
ENDBRANCH   1  16
TORSDOF 3
ENDMDL
