MODEL 1
REMARK VINA RESULT:      -4.0      0.000      0.000
REMARK  5 active torsions:
REMARK  status: ('A' for Active; 'I' for Inactive)
REMARK    1  A    between atoms: N_7  and  C_4 
REMARK    2  A    between atoms: N_9  and  N_7 
REMARK       I    between atoms: C_8  and  N_9 
REMARK    3  A    between atoms: C_11  and  C_8 
REMARK    4  A    between atoms: C_14  and  C_11 
REMARK    5  A    between atoms: C_15  and  C_11 
ROOT
ATOM      1  C   UNL d   1      58.408  -0.496  29.658  0.00  0.00     0.297 C 
ATOM      2  N   UNL d   1      58.181  -0.560  30.449  0.00  0.00    -0.104 NA
ATOM      3  O   UNL d   1      57.911  -0.123  29.114  0.00  0.00    -0.264 OA
ENDROOT
BRANCH   1   4
ATOM      4  C   UNL d   1      59.134  -0.804  29.413  0.00  0.00     0.059 C 
BRANCH   4   5
ATOM      5  C   UNL d   1      59.195  -1.601  29.201  0.00  0.00     0.005 A 
ATOM      6  C   UNL d   1      59.789  -2.058  29.529  0.00  0.00     0.000 A 
ATOM      7  C   UNL d   1      59.856  -2.848  29.323  0.00  0.00     0.000 A 
ATOM      8  C   UNL d   1      59.312  -3.166  28.781  0.00  0.00     0.000 A 
ATOM      9  C   UNL d   1      58.720  -2.704  28.457  0.00  0.00     0.000 A 
ATOM     10  C   UNL d   1      58.667  -1.928  28.669  0.00  0.00     0.000 A 
ENDBRANCH   4   5
BRANCH   4  11
ATOM     11  C   UNL d   1      59.798  -0.315  29.381  0.00  0.00     0.005 A 
ATOM     12  C   UNL d   1      60.309  -0.298  30.014  0.00  0.00     0.000 A 
ATOM     13  C   UNL d   1      60.975   0.189  29.989  0.00  0.00     0.000 A 
ATOM     14  C   UNL d   1      61.117   0.655  29.322  0.00  0.00     0.000 A 
ATOM     15  C   UNL d   1      60.582   0.628  28.676  0.00  0.00     0.000 A 
ATOM     16  C   UNL d   1      59.926   0.139  28.718  0.00  0.00     0.000 A 
ENDBRANCH   4  11
ENDBRANCH   1   4
BRANCH   2  17
ATOM     17  N   UNL d   1      57.456  -0.252  30.694  0.00  0.00    -0.127 NA
BRANCH  17  18
ATOM     18  C   UNL d   1      57.172  -0.418  31.455  0.00  0.00     0.178 A 
ATOM     19  N   UNL d   1      57.402   0.047  32.094  0.00  0.00    -0.240 N 
ATOM     20  C   UNL d   1      57.122  -0.116  32.846  0.00  0.00     0.343 A 
ATOM     21  C   UNL d   1      57.919   0.682  31.975  0.00  0.00     0.105 C 
ATOM     22  N   UNL d   1      56.605  -0.751  32.965  0.00  0.00    -0.224 N 
ATOM     23  O   UNL d   1      57.355   0.353  33.488  0.00  0.00    -0.245 OA
ATOM     24  C   UNL d   1      56.364  -1.228  32.332  0.00  0.00     0.271 A 
ATOM     25  C   UNL d   1      56.321  -0.916  33.725  0.00  0.00     0.107 C 
ATOM     26  C   UNL d   1      56.655  -1.052  31.574  0.00  0.00     0.101 A 
ATOM     27  O   UNL d   1      55.852  -1.855  32.450  0.00  0.00    -0.266 OA
ENDBRANCH  17  18
ENDBRANCH   2  17
TORSDOF 5
ENDMDL
MODEL 2
REMARK VINA RESULT:      -3.3      0.373      2.101
REMARK  5 active torsions:
REMARK  status: ('A' for Active; 'I' for Inactive)
REMARK    1  A    between atoms: N_7  and  C_4 
REMARK    2  A    between atoms: N_9  and  N_7 
REMARK       I    between atoms: C_8  and  N_9 
REMARK    3  A    between atoms: C_11  and  C_8 
REMARK    4  A    between atoms: C_14  and  C_11 
REMARK    5  A    between atoms: C_15  and  C_11 
ROOT
ATOM      1  C   UNL d   1      58.552  -0.837  29.492  0.00  0.00     0.297 C 
ATOM      2  N   UNL d   1      58.348  -0.664  30.273  0.00  0.00    -0.104 NA
ATOM      3  O   UNL d   1      57.994  -0.750  28.889  0.00  0.00    -0.264 OA
ENDROOT
BRANCH   1   4
ATOM      4  C   UNL d   1      59.315  -1.098  29.316  0.00  0.00     0.059 C 
BRANCH   4   5
ATOM      5  C   UNL d   1      59.928  -0.552  29.221  0.00  0.00     0.005 A 
ATOM      6  C   UNL d   1      60.506  -0.495  29.799  0.00  0.00     0.000 A 
ATOM      7  C   UNL d   1      61.117   0.043  29.712  0.00  0.00     0.000 A 
ATOM      8  C   UNL d   1      61.132   0.522  29.032  0.00  0.00     0.000 A 
ATOM      9  C   UNL d   1      60.553   0.460  28.459  0.00  0.00     0.000 A 
ATOM     10  C   UNL d   1      59.958  -0.074  28.558  0.00  0.00     0.000 A 
ENDBRANCH   4   5
BRANCH   4  11
ATOM     11  C   UNL d   1      59.463  -1.906  29.234  0.00  0.00     0.005 A 
ATOM     12  C   UNL d   1      59.049  -2.331  28.677  0.00  0.00     0.000 A 
ATOM     13  C   UNL d   1      59.192  -3.139  28.589  0.00  0.00     0.000 A 
ATOM     14  C   UNL d   1      59.754  -3.510  29.068  0.00  0.00     0.000 A 
ATOM     15  C   UNL d   1      60.174  -3.060  29.639  0.00  0.00     0.000 A 
ATOM     16  C   UNL d   1      60.019  -2.260  29.712  0.00  0.00     0.000 A 
ENDBRANCH   4  11
ENDBRANCH   1   4
BRANCH   2  17
ATOM     17  N   UNL d   1      57.585  -0.403  30.449  0.00  0.00    -0.127 NA
BRANCH  17  18
ATOM     18  C   UNL d   1      57.298  -0.459  31.224  0.00  0.00     0.178 A 
ATOM     19  N   UNL d   1      57.541   0.080  31.797  0.00  0.00    -0.240 N 
ATOM     20  C   UNL d   1      57.257   0.024  32.563  0.00  0.00     0.343 A 
ATOM     21  C   UNL d   1      58.075   0.679  31.596  0.00  0.00     0.105 C 
ATOM     22  N   UNL d   1      56.724  -0.575  32.764  0.00  0.00    -0.224 N 
ATOM     23  O   UNL d   1      57.504   0.568  33.138  0.00  0.00    -0.245 OA
ATOM     24  C   UNL d   1      56.469  -1.125  32.199  0.00  0.00     0.271 A 
ATOM     25  C   UNL d   1      56.437  -0.631  33.539  0.00  0.00     0.107 C 
ATOM     26  C   UNL d   1      56.764  -1.058  31.425  0.00  0.00     0.101 A 
ATOM     27  O   UNL d   1      55.941  -1.717  32.397  0.00  0.00    -0.266 OA
ENDBRANCH  17  18
ENDBRANCH   2  17
TORSDOF 5
ENDMDL
MODEL 3
REMARK VINA RESULT:      -2.2      0.966      1.378
REMARK  5 active torsions:
REMARK  status: ('A' for Active; 'I' for Inactive)
REMARK    1  A    between atoms: N_7  and  C_4 
REMARK    2  A    between atoms: N_9  and  N_7 
REMARK       I    between atoms: C_8  and  N_9 
REMARK    3  A    between atoms: C_11  and  C_8 
REMARK    4  A    between atoms: C_14  and  C_11 
REMARK    5  A    between atoms: C_15  and  C_11 
ROOT
ATOM      1  C   UNL d   1      58.231  -0.233  29.807  0.00  0.00     0.297 C 
ATOM      2  N   UNL d   1      58.192   0.016  30.593  0.00  0.00    -0.104 NA
ATOM      3  O   UNL d   1      57.590  -0.108  29.300  0.00  0.00    -0.264 OA
ENDROOT
BRANCH   1   4
ATOM      4  C   UNL d   1      58.911  -0.608  29.528  0.00  0.00     0.059 C 
BRANCH   4   5
ATOM      5  C   UNL d   1      58.891  -1.411  29.330  0.00  0.00     0.005 A 
ATOM      6  C   UNL d   1      59.280  -1.950  29.807  0.00  0.00     0.000 A 
ATOM      7  C   UNL d   1      59.265  -2.747  29.617  0.00  0.00     0.000 A 
ATOM      8  C   UNL d   1      58.849  -2.986  28.938  0.00  0.00     0.000 A 
ATOM      9  C   UNL d   1      58.463  -2.442  28.465  0.00  0.00     0.000 A 
ATOM     10  C   UNL d   1      58.487  -1.662  28.665  0.00  0.00     0.000 A 
ENDBRANCH   4   5
BRANCH   4  11
ATOM     11  C   UNL d   1      59.612  -0.179  29.449  0.00  0.00     0.005 A 
ATOM     12  C   UNL d   1      59.740   0.249  28.769  0.00  0.00     0.000 A 
ATOM     13  C   UNL d   1      60.438   0.681  28.682  0.00  0.00     0.000 A 
ATOM     14  C   UNL d   1      61.002   0.673  29.286  0.00  0.00     0.000 A 
ATOM     15  C   UNL d   1      60.858   0.227  29.982  0.00  0.00     0.000 A 
ATOM     16  C   UNL d   1      60.159  -0.195  30.051  0.00  0.00     0.000 A 
ENDBRANCH   4  11
ENDBRANCH   1   4
BRANCH   2  17
ATOM     17  N   UNL d   1      57.511   0.391  30.871  0.00  0.00    -0.127 NA
BRANCH  17  18
ATOM     18  C   UNL d   1      57.384   0.464  31.686  0.00  0.00     0.178 A 
ATOM     19  N   UNL d   1      56.618   0.505  31.984  0.00  0.00    -0.240 N 
ATOM     20  C   UNL d   1      56.491   0.577  32.790  0.00  0.00     0.343 A 
ATOM     21  C   UNL d   1      55.974   0.474  31.466  0.00  0.00     0.105 C 
ATOM     22  N   UNL d   1      57.135   0.609  33.308  0.00  0.00    -0.224 N 
ATOM     23  O   UNL d   1      55.718   0.619  33.087  0.00  0.00    -0.245 OA
ATOM     24  C   UNL d   1      57.912   0.568  33.024  0.00  0.00     0.271 A 
ATOM     25  C   UNL d   1      57.006   0.682  34.123  0.00  0.00     0.107 C 
ATOM     26  C   UNL d   1      58.028   0.495  32.204  0.00  0.00     0.101 A 
ATOM     27  O   UNL d   1      58.549   0.599  33.537  0.00  0.00    -0.266 OA
ENDBRANCH  17  18
ENDBRANCH   2  17
TORSDOF 5
ENDMDL
