MODEL 1
REMARK VINA RESULT:      34.8      0.000      0.000
REMARK  3 active torsions:
REMARK  status: ('A' for Active; 'I' for Inactive)
REMARK    1  A    between atoms: C_15  and  N_5 
REMARK    2  A    between atoms: C_21  and  C_15 
REMARK    3  A    between atoms: O_20  and  C_21 
ROOT
ATOM      1  C   UNL d   1     -54.712-101.639 -39.507  0.00  0.00     0.137 A 
ATOM      2  C   UNL d   1     -54.712-102.465 -39.505  0.00  0.00     0.192 A 
ATOM      3  C   UNL d   1     -54.712-101.226 -40.210  0.00  0.00     0.272 A 
ATOM      4  N   UNL d   1     -54.711-102.879 -40.217  0.00  0.00    -0.204 NA
ATOM      5  N   UNL d   1     -54.712-101.644 -40.936  0.00  0.00    -0.256 N 
ATOM      6  C   UNL d   1     -54.712-101.224 -38.794  0.00  0.00     0.205 A 
ATOM      7  C   UNL d   1     -54.711-102.461 -40.929  0.00  0.00     0.152 A 
ATOM      8  C   UNL d   1     -54.712-101.634 -38.078  0.00  0.00     0.062 A 
ATOM      9  O   UNL d   1     -54.712-102.867 -38.785  0.00  0.00    -0.289 OA
ATOM     10  C   UNL d   1     -54.712-102.459 -38.076  0.00  0.00     0.105 A 
ATOM     11  O   UNL d   1     -54.712-100.401 -40.212  0.00  0.00    -0.266 OA
ATOM     12  O   UNL d   1     -54.712-100.403 -38.788  0.00  0.00    -0.286 OA
ATOM     13  C   UNL d   1     -54.712-101.216 -37.369  0.00  0.00     0.012 A 
ATOM     14  C   UNL d   1     -54.712-102.867 -37.365  0.00  0.00     0.025 A 
ATOM     15  C   UNL d   1     -54.712-101.629 -36.649  0.00  0.00     0.035 A 
ATOM     16  C   UNL d   1     -54.711-102.872 -41.640  0.00  0.00     0.041 C 
ATOM     17  C   UNL d   1     -54.712-102.452 -36.651  0.00  0.00     0.009 A 
ATOM     18 BR   UNL d   1     -54.712-101.210 -35.924  0.00  0.00    -0.049 Br
ENDROOT
BRANCH   5  19
ATOM     19  C   UNL d   1     -54.711-101.232 -41.656  0.00  0.00     0.111 C 
BRANCH  19  20
ATOM     20  C   UNL d   1     -54.934-101.617 -42.351  0.00  0.00     0.135 C 
BRANCH  20  21
ATOM     21  O   UNL d   1     -54.756-101.280 -43.083  0.00  0.00    -0.325 OA
ATOM     22  C   UNL d   1     -55.346-101.202 -43.655  0.00  0.00     0.182 C 
ENDBRANCH  20  21
ENDBRANCH  19  20
ENDBRANCH   5  19
TORSDOF 3
ENDMDL
