MODEL 1
REMARK VINA RESULT:      48.4      0.000      0.000
REMARK  6 active torsions:
REMARK  status: ('A' for Active; 'I' for Inactive)
REMARK    1  A    between atoms: C_9  and  N_2 
REMARK    2  A    between atoms: O_11  and  C_7 
REMARK    3  A    between atoms: C_8  and  O_10 
REMARK    4  A    between atoms: C_12  and  C_9 
REMARK    5  A    between atoms: O_10  and  C_15 
REMARK    6  A    between atoms: C_15  and  C_12 
ROOT
ATOM      1  C   UNL d   1     -50.108  27.016  33.362  0.00  0.00     0.087 C 
ENDROOT
BRANCH   1   2
ATOM      2  N   UNL d   1     -50.718  26.461  33.372  0.00  0.00    -0.251 N 
ATOM      3  C   UNL d   1     -51.541  26.585  33.395  0.00  0.00     0.378 A 
ATOM      4  O   UNL d   1     -51.914  25.844  33.397  0.00  0.00    -0.258 OA
ATOM      5  O   UNL d   1     -51.909  27.320  33.411  0.00  0.00    -0.237 OA
ATOM      6  C   UNL d   1     -51.329  25.265  33.377  0.00  0.00     0.121 A 
ATOM      7  C   UNL d   1     -51.361  24.434  33.369  0.00  0.00     0.026 A 
ATOM      8  C   UNL d   1     -50.589  25.643  33.361  0.00  0.00     0.092 A 
ATOM      9  C   UNL d   1     -50.669  23.993  33.347  0.00  0.00     0.002 A 
ATOM     10  C   UNL d   1     -49.939  24.372  33.332  0.00  0.00     0.002 A 
ATOM     11  C   UNL d   1     -49.894  25.195  33.338  0.00  0.00     0.020 A 
ENDBRANCH   1   2
BRANCH   1  12
ATOM     12  C   UNL d   1     -50.065  27.585  33.946  0.00  0.00     0.046 C 
BRANCH  12  13
ATOM     13  C   UNL d   1     -49.357  27.987  34.078  0.00  0.00     0.124 C 
BRANCH  13  14
ATOM     14  O   UNL d   1     -49.010  27.979  34.827  0.00  0.00    -0.303 OA
BRANCH  14  15
ATOM     15  C   UNL d   1     -48.485  28.577  35.045  0.00  0.00     0.122 A 
ATOM     16  C   UNL d   1     -48.474  28.851  35.824  0.00  0.00     0.117 A 
ATOM     17  C   UNL d   1     -47.952  29.447  36.046  0.00  0.00     0.026 A 
ATOM     18  C   UNL d   1     -47.436  29.773  35.483  0.00  0.00     0.002 A 
ATOM     19  C   UNL d   1     -47.445  29.503  34.707  0.00  0.00     0.002 A 
ATOM     20  C   UNL d   1     -47.970  28.905  34.488  0.00  0.00     0.027 A 
BRANCH  16  21
ATOM     21  O   UNL d   1     -48.989  28.523  36.382  0.00  0.00    -0.326 OA
ATOM     22  C   UNL d   1     -48.966  28.789  37.165  0.00  0.00     0.181 C 
ENDBRANCH  16  21
ENDBRANCH  14  15
ENDBRANCH  13  14
ENDBRANCH  12  13
ENDBRANCH   1  12
TORSDOF 6
ENDMDL
MODEL 2
REMARK VINA RESULT:      49.3      1.493      5.253
REMARK  6 active torsions:
REMARK  status: ('A' for Active; 'I' for Inactive)
REMARK    1  A    between atoms: C_9  and  N_2 
REMARK    2  A    between atoms: O_11  and  C_7 
REMARK    3  A    between atoms: C_8  and  O_10 
REMARK    4  A    between atoms: C_12  and  C_9 
REMARK    5  A    between atoms: O_10  and  C_15 
REMARK    6  A    between atoms: C_15  and  C_12 
ROOT
ATOM      1  C   UNL d   1     -48.431  29.157  34.195  0.00  0.00     0.087 C 
ENDROOT
BRANCH   1   2
ATOM      2  N   UNL d   1     -48.072  29.473  34.867  0.00  0.00    -0.251 N 
ATOM      3  C   UNL d   1     -47.877  29.098  35.584  0.00  0.00     0.378 A 
ATOM      4  O   UNL d   1     -47.524  29.660  36.082  0.00  0.00    -0.258 OA
ATOM      5  O   UNL d   1     -48.016  28.306  35.757  0.00  0.00    -0.237 OA
ATOM      6  C   UNL d   1     -47.499  30.377  35.678  0.00  0.00     0.121 A 
ATOM      7  C   UNL d   1     -47.214  31.130  35.886  0.00  0.00     0.026 A 
ATOM      8  C   UNL d   1     -47.837  30.265  34.927  0.00  0.00     0.092 A 
ATOM      9  C   UNL d   1     -47.266  31.754  35.356  0.00  0.00     0.002 A 
ATOM     10  C   UNL d   1     -47.602  31.638  34.614  0.00  0.00     0.002 A 
ATOM     11  C   UNL d   1     -47.888  30.896  34.395  0.00  0.00     0.020 A 
ENDBRANCH   1   2
BRANCH   1  12
ATOM     12  C   UNL d   1     -48.840  28.451  34.246  0.00  0.00     0.046 C 
BRANCH  12  13
ATOM     13  C   UNL d   1     -49.411  28.265  33.681  0.00  0.00     0.124 C 
BRANCH  13  14
ATOM     14  O   UNL d   1     -49.448  27.502  33.366  0.00  0.00    -0.303 OA
BRANCH  14  15
ATOM     15  C   UNL d   1     -50.166  27.097  33.348  0.00  0.00     0.122 A 
ATOM     16  C   UNL d   1     -50.173  26.272  33.323  0.00  0.00     0.117 A 
ATOM     17  C   UNL d   1     -50.888  25.864  33.306  0.00  0.00     0.026 A 
ATOM     18  C   UNL d   1     -51.603  26.286  33.313  0.00  0.00     0.002 A 
ATOM     19  C   UNL d   1     -51.599  27.107  33.338  0.00  0.00     0.002 A 
ATOM     20  C   UNL d   1     -50.881  27.513  33.355  0.00  0.00     0.027 A 
BRANCH  16  21
ATOM     21  O   UNL d   1     -49.458  25.856  33.316  0.00  0.00    -0.326 OA
ATOM     22  C   UNL d   1     -49.467  25.029  33.347  0.00  0.00     0.181 C 
ENDBRANCH  16  21
ENDBRANCH  14  15
ENDBRANCH  13  14
ENDBRANCH  12  13
ENDBRANCH   1  12
TORSDOF 6
ENDMDL
MODEL 3
REMARK VINA RESULT:      50.0      1.233      1.785
REMARK  6 active torsions:
REMARK  status: ('A' for Active; 'I' for Inactive)
REMARK    1  A    between atoms: C_9  and  N_2 
REMARK    2  A    between atoms: O_11  and  C_7 
REMARK    3  A    between atoms: C_8  and  O_10 
REMARK    4  A    between atoms: C_12  and  C_9 
REMARK    5  A    between atoms: O_10  and  C_15 
REMARK    6  A    between atoms: C_15  and  C_12 
ROOT
ATOM      1  C   UNL d   1     -49.656  27.688  33.656  0.00  0.00     0.087 C 
ENDROOT
BRANCH   1   2
ATOM      2  N   UNL d   1     -49.916  26.911  33.557  0.00  0.00    -0.251 N 
ATOM      3  C   UNL d   1     -49.470  26.210  33.512  0.00  0.00     0.378 A 
ATOM      4  O   UNL d   1     -49.995  25.576  33.411  0.00  0.00    -0.258 OA
ATOM      5  O   UNL d   1     -48.650  26.166  33.561  0.00  0.00    -0.237 OA
ATOM      6  C   UNL d   1     -50.760  25.880  33.393  0.00  0.00     0.121 A 
ATOM      7  C   UNL d   1     -51.506  25.522  33.306  0.00  0.00     0.026 A 
ATOM      8  C   UNL d   1     -50.714  26.705  33.483  0.00  0.00     0.092 A 
ATOM      9  C   UNL d   1     -52.188  25.978  33.309  0.00  0.00     0.002 A 
ATOM     10  C   UNL d   1     -52.137  26.794  33.399  0.00  0.00     0.002 A 
ATOM     11  C   UNL d   1     -51.404  27.162  33.486  0.00  0.00     0.020 A 
ENDBRANCH   1   2
BRANCH   1  12
ATOM     12  C   UNL d   1     -49.109  27.864  34.237  0.00  0.00     0.046 C 
BRANCH  12  13
ATOM     13  C   UNL d   1     -48.960  28.650  34.437  0.00  0.00     0.124 C 
BRANCH  13  14
ATOM     14  O   UNL d   1     -48.214  28.871  34.715  0.00  0.00    -0.303 OA
BRANCH  14  15
ATOM     15  C   UNL d   1     -48.042  29.666  34.848  0.00  0.00     0.122 A 
ATOM     16  C   UNL d   1     -47.700  29.901  35.561  0.00  0.00     0.117 A 
ATOM     17  C   UNL d   1     -47.526  30.694  35.697  0.00  0.00     0.026 A 
ATOM     18  C   UNL d   1     -47.698  31.258  35.113  0.00  0.00     0.002 A 
ATOM     19  C   UNL d   1     -48.039  31.029  34.402  0.00  0.00     0.002 A 
ATOM     20  C   UNL d   1     -48.211  30.233  34.269  0.00  0.00     0.027 A 
BRANCH  16  21
ATOM     21  O   UNL d   1     -47.530  29.334  36.140  0.00  0.00    -0.326 OA
ATOM     22  C   UNL d   1     -47.172  29.569  36.848  0.00  0.00     0.181 C 
ENDBRANCH  16  21
ENDBRANCH  14  15
ENDBRANCH  13  14
ENDBRANCH  12  13
ENDBRANCH   1  12
TORSDOF 6
ENDMDL
