MODEL 1
REMARK VINA RESULT:      -5.2      0.000      0.000
REMARK  5 active torsions:
REMARK  status: ('A' for Active; 'I' for Inactive)
REMARK    1  A    between atoms: N_6  and  C_1 
REMARK    2  A    between atoms: C_11  and  N_2 
REMARK    3  A    between atoms: S_3  and  C_10 
REMARK    4  A    between atoms: N_8  and  S_3 
REMARK       I    between atoms: C_9  and  N_6 
REMARK    5  A    between atoms: C_15  and  C_9 
ROOT
ATOM      1  N   UNL d   1      58.871  -0.669  30.117  0.00  0.00    -0.189 NA
ATOM      2  C   UNL d   1      58.206  -0.249  30.139  0.00  0.00     0.281 C 
ATOM      3  O   UNL d   1      57.995   0.099  29.426  0.00  0.00    -0.265 OA
ENDROOT
BRANCH   2   4
ATOM      4  C   UNL d   1      57.736  -0.150  30.820  0.00  0.00     0.058 A 
ATOM      5  C   UNL d   1      57.401  -0.724  31.142  0.00  0.00     0.005 A 
ATOM      6  C   UNL d   1      56.957  -0.640  31.783  0.00  0.00     0.013 A 
ATOM      7  C   UNL d   1      56.867   0.126  32.102  0.00  0.00     0.104 A 
ATOM      8  C   UNL d   1      57.244   0.682  31.716  0.00  0.00     0.013 A 
ATOM      9  C   UNL d   1      57.686   0.582  31.075  0.00  0.00     0.005 A 
BRANCH   7  10
ATOM     10  S   UNL d   1      56.391   0.221  32.789  0.00  0.00     0.271 S 
ATOM     11  O   UNL d   1      55.731   0.142  32.378  0.00  0.00    -0.200 OA
ATOM     12  O   UNL d   1      57.104   0.308  33.254  0.00  0.00    -0.200 OA
BRANCH  10  13
ATOM     13  N   UNL d   1      55.875   0.305  33.416  0.00  0.00    -0.229 N 
ATOM     14  C   UNL d   1      55.068   0.292  33.346  0.00  0.00     0.092 A 
ATOM     15  C   UNL d   1      54.768   0.400  34.135  0.00  0.00     0.021 A 
ATOM     16  C   UNL d   1      55.365   0.472  34.629  0.00  0.00     0.021 A 
ATOM     17  C   UNL d   1      56.068   0.417  34.211  0.00  0.00     0.092 A 
ENDBRANCH  10  13
ENDBRANCH   7  10
ENDBRANCH   2   4
BRANCH   1  18
ATOM     18  C   UNL d   1      59.393  -0.822  29.503  0.00  0.00     0.165 A 
ATOM     19  N   UNL d   1      59.532  -1.407  28.991  0.00  0.00    -0.238 N 
ATOM     20  N   UNL d   1      60.102  -1.309  28.489  0.00  0.00    -0.168 NA
ATOM     21  C   UNL d   1      60.410  -0.569  28.658  0.00  0.00     0.111 A 
ATOM     22  C   UNL d   1      59.988  -0.252  29.279  0.00  0.00     0.062 A 
ATOM     23  C   UNL d   1      60.989   0.011  28.455  0.00  0.00     0.056 A 
ATOM     24  C   UNL d   1      60.292   0.517  29.470  0.00  0.00     0.040 A 
ATOM     25  S   UNL d   1      60.925   0.673  28.943  0.00  0.00    -0.084 SA
BRANCH  19  26
ATOM     26  C   UNL d   1      59.103  -2.124  28.956  0.00  0.00     0.088 C 
ATOM     27  C   UNL d   1      58.518  -1.770  28.456  0.00  0.00     0.025 C 
ATOM     28  C   UNL d   1      59.694  -2.495  29.466  0.00  0.00     0.025 C 
ATOM     29  C   UNL d   1      58.679  -2.888  28.941  0.00  0.00     0.025 C 
ENDBRANCH  19  26
ENDBRANCH   1  18
TORSDOF 5
ENDMDL
MODEL 2
REMARK VINA RESULT:      -4.7      0.980      1.869
REMARK  5 active torsions:
REMARK  status: ('A' for Active; 'I' for Inactive)
REMARK    1  A    between atoms: N_6  and  C_1 
REMARK    2  A    between atoms: C_11  and  N_2 
REMARK    3  A    between atoms: S_3  and  C_10 
REMARK    4  A    between atoms: N_8  and  S_3 
REMARK       I    between atoms: C_9  and  N_6 
REMARK    5  A    between atoms: C_15  and  C_9 
ROOT
ATOM      1  N   UNL d   1      58.619  -0.958  30.324  0.00  0.00    -0.189 NA
ATOM      2  C   UNL d   1      57.911  -0.615  30.317  0.00  0.00     0.281 C 
ATOM      3  O   UNL d   1      57.607  -0.467  29.568  0.00  0.00    -0.265 OA
ENDROOT
BRANCH   2   4
ATOM      4  C   UNL d   1      57.483  -0.408  31.002  0.00  0.00     0.058 A 
ATOM      5  C   UNL d   1      57.540   0.264  31.302  0.00  0.00     0.005 A 
ATOM      6  C   UNL d   1      57.141   0.467  31.946  0.00  0.00     0.013 A 
ATOM      7  C   UNL d   1      56.640  -0.103  32.294  0.00  0.00     0.104 A 
ATOM      8  C   UNL d   1      56.627  -0.787  31.930  0.00  0.00     0.013 A 
ATOM      9  C   UNL d   1      57.033  -0.974  31.284  0.00  0.00     0.005 A 
BRANCH   7  10
ATOM     10  S   UNL d   1      56.211   0.110  32.985  0.00  0.00     0.271 S 
ATOM     11  O   UNL d   1      56.865   0.288  33.373  0.00  0.00    -0.200 OA
ATOM     12  O   UNL d   1      55.484  -0.080  32.576  0.00  0.00    -0.200 OA
BRANCH  10  13
ATOM     13  N   UNL d   1      55.853   0.330  33.685  0.00  0.00    -0.229 N 
ATOM     14  C   UNL d   1      56.249   0.439  34.383  0.00  0.00     0.092 A 
ATOM     15  C   UNL d   1      55.655   0.663  34.951  0.00  0.00     0.021 A 
ATOM     16  C   UNL d   1      54.960   0.682  34.600  0.00  0.00     0.021 A 
ATOM     17  C   UNL d   1      55.051   0.480  33.812  0.00  0.00     0.092 A 
ENDBRANCH  10  13
ENDBRANCH   7  10
ENDBRANCH   2   4
BRANCH   1  18
ATOM     18  C   UNL d   1      59.110  -1.195  29.710  0.00  0.00     0.165 A 
ATOM     19  N   UNL d   1      59.700  -0.884  29.286  0.00  0.00    -0.238 N 
ATOM     20  N   UNL d   1      60.013  -1.324  28.742  0.00  0.00    -0.168 NA
ATOM     21  C   UNL d   1      59.602  -2.031  28.778  0.00  0.00     0.111 A 
ATOM     22  C   UNL d   1      59.042  -1.973  29.367  0.00  0.00     0.062 A 
ATOM     23  C   UNL d   1      59.515  -2.806  28.455  0.00  0.00     0.056 A 
ATOM     24  C   UNL d   1      58.604  -2.698  29.419  0.00  0.00     0.040 A 
ATOM     25  S   UNL d   1      58.912  -3.218  28.838  0.00  0.00    -0.084 SA
BRANCH  19  26
ATOM     26  C   UNL d   1      60.008  -0.113  29.388  0.00  0.00     0.088 C 
ATOM     27  C   UNL d   1      59.575   0.166  28.715  0.00  0.00     0.025 C 
ATOM     28  C   UNL d   1      60.453  -0.388  30.076  0.00  0.00     0.025 C 
ATOM     29  C   UNL d   1      60.347   0.682  29.521  0.00  0.00     0.025 C 
ENDBRANCH  19  26
ENDBRANCH   1  18
TORSDOF 5
ENDMDL
