MODEL 1
REMARK VINA RESULT:      -3.8      0.000      0.000
REMARK  4 active torsions:
REMARK  status: ('A' for Active; 'I' for Inactive)
REMARK    1  A    between atoms: C_11  and  N_2 
REMARK    2  A    between atoms: N_3  and  C_14 
REMARK    3  A    between atoms: C_16  and  C_11 
REMARK    4  A    between atoms: C_14  and  C_16 
ROOT
ATOM      1  C   UNL d   1     -41.948-122.559 -50.961  0.00  0.00     0.231 C 
ATOM      2  O   UNL d   1     -42.652-122.127 -50.930  0.00  0.00    -0.283 OA
ENDROOT
BRANCH   1   3
ATOM      3  C   UNL d   1     -41.868-123.254 -50.521  0.00  0.00     0.124 C 
BRANCH   3   4
ATOM      4  N   UNL d   1     -42.293-123.346 -49.817  0.00  0.00    -0.303 N 
ATOM      5  C   UNL d   1     -43.091-123.586 -49.751  0.00  0.00     0.064 A 
ATOM      6  C   UNL d   1     -43.283-123.602 -48.946  0.00  0.00     0.018 A 
ATOM      7  C   UNL d   1     -43.595-123.774 -50.378  0.00  0.00     0.019 C 
ATOM      8  C   UNL d   1     -44.015-123.809 -48.631  0.00  0.00     0.002 C 
ATOM      9  C   UNL d   1     -42.615-123.374 -48.512  0.00  0.00     0.018 A 
ATOM     10  C   UNL d   1     -42.000-123.216 -49.053  0.00  0.00     0.064 A 
ATOM     11  C   UNL d   1     -42.479-123.289 -47.696  0.00  0.00     0.002 A 
ATOM     12  C   UNL d   1     -41.256-122.973 -48.772  0.00  0.00     0.018 A 
ATOM     13  C   UNL d   1     -41.126-122.890 -47.964  0.00  0.00     0.002 A 
ATOM     14  C   UNL d   1     -41.735-123.047 -47.429  0.00  0.00     0.000 A 
ENDBRANCH   3   4
ENDBRANCH   1   3
BRANCH   1  15
ATOM     15  C   UNL d   1     -41.330-122.297 -51.431  0.00  0.00     0.138 C 
BRANCH  15  16
ATOM     16  N   UNL d   1     -41.368-122.372 -52.256  0.00  0.00    -0.194 N 
ATOM     17  S   UNL d   1     -41.505-121.763 -52.794  0.00  0.00     0.274 S 
ATOM     18  C   UNL d   1     -41.497-122.088 -53.551  0.00  0.00     0.109 A 
ATOM     19  O   UNL d   1     -41.551-121.257 -52.143  0.00  0.00    -0.200 OA
ATOM     20  O   UNL d   1     -41.628-121.284 -53.455  0.00  0.00    -0.200 OA
ATOM     21  C   UNL d   1     -41.354-122.897 -53.478  0.00  0.00     0.069 A 
ATOM     22  C   UNL d   1     -41.599-121.760 -54.294  0.00  0.00     0.013 A 
ATOM     23  C   UNL d   1     -41.315-123.371 -54.145  0.00  0.00     0.005 A 
ATOM     24  C   UNL d   1     -41.275-123.072 -52.677  0.00  0.00     0.275 A 
ATOM     25  C   UNL d   1     -41.417-123.038 -54.886  0.00  0.00     0.000 A 
ATOM     26  C   UNL d   1     -41.559-122.231 -54.959  0.00  0.00     0.001 A 
ATOM     27  O   UNL d   1     -41.128-123.816 -52.355  0.00  0.00    -0.266 OA
ENDBRANCH  15  16
ENDBRANCH   1  15
TORSDOF 4
ENDMDL
MODEL 2
REMARK VINA RESULT:      -2.9      1.181      4.927
REMARK  4 active torsions:
REMARK  status: ('A' for Active; 'I' for Inactive)
REMARK    1  A    between atoms: C_11  and  N_2 
REMARK    2  A    between atoms: N_3  and  C_14 
REMARK    3  A    between atoms: C_16  and  C_11 
REMARK    4  A    between atoms: C_14  and  C_16 
ROOT
ATOM      1  C   UNL d   1     -42.031-122.296 -51.883  0.00  0.00     0.231 C 
ATOM      2  O   UNL d   1     -42.630-122.843 -52.042  0.00  0.00    -0.283 OA
ENDROOT
BRANCH   1   3
ATOM      3  C   UNL d   1     -41.443-122.148 -52.445  0.00  0.00     0.124 C 
BRANCH   3   4
ATOM      4  N   UNL d   1     -41.547-122.402 -53.226  0.00  0.00    -0.303 N 
ATOM      5  C   UNL d   1     -41.399-123.171 -53.517  0.00  0.00     0.064 A 
ATOM      6  C   UNL d   1     -41.579-123.171 -54.326  0.00  0.00     0.018 A 
ATOM      7  C   UNL d   1     -41.123-123.812 -53.077  0.00  0.00     0.019 C 
ATOM      8  C   UNL d   1     -41.512-123.817 -54.832  0.00  0.00     0.002 C 
ATOM      9  C   UNL d   1     -41.836-122.413 -54.537  0.00  0.00     0.018 A 
ATOM     10  C   UNL d   1     -41.816-121.935 -53.854  0.00  0.00     0.064 A 
ATOM     11  C   UNL d   1     -42.087-122.089 -55.261  0.00  0.00     0.002 A 
ATOM     12  C   UNL d   1     -42.048-121.138 -53.902  0.00  0.00     0.018 A 
ATOM     13  C   UNL d   1     -42.295-120.821 -54.620  0.00  0.00     0.002 A 
ATOM     14  C   UNL d   1     -42.315-121.295 -55.296  0.00  0.00     0.000 A 
ENDBRANCH   3   4
ENDBRANCH   1   3
BRANCH   1  15
ATOM     15  C   UNL d   1     -42.021-121.900 -51.165  0.00  0.00     0.138 C 
BRANCH  15  16
ATOM     16  N   UNL d   1     -42.245-122.290 -50.468  0.00  0.00    -0.194 N 
ATOM     17  S   UNL d   1     -41.741-122.528 -49.860  0.00  0.00     0.274 S 
ATOM     18  C   UNL d   1     -42.200-122.891 -49.281  0.00  0.00     0.109 A 
ATOM     19  O   UNL d   1     -41.124-122.209 -50.306  0.00  0.00    -0.200 OA
ATOM     20  O   UNL d   1     -41.389-122.826 -49.177  0.00  0.00    -0.200 OA
ATOM     21  C   UNL d   1     -42.985-122.877 -49.531  0.00  0.00     0.069 A 
ATOM     22  C   UNL d   1     -42.011-123.232 -48.560  0.00  0.00     0.013 A 
ATOM     23  C   UNL d   1     -43.574-123.203 -49.064  0.00  0.00     0.005 A 
ATOM     24  C   UNL d   1     -43.013-122.505 -50.266  0.00  0.00     0.275 A 
ATOM     25  C   UNL d   1     -43.380-123.543 -48.345  0.00  0.00     0.000 A 
ATOM     26  C   UNL d   1     -42.596-123.557 -48.094  0.00  0.00     0.001 A 
ATOM     27  O   UNL d   1     -43.688-122.372 -50.718  0.00  0.00    -0.266 OA
ENDBRANCH  15  16
ENDBRANCH   1  15
TORSDOF 4
ENDMDL
