MODEL 1
REMARK VINA RESULT:      66.0      0.000      0.000
REMARK  7 active torsions:
REMARK  status: ('A' for Active; 'I' for Inactive)
REMARK    1  A    between atoms: N_5  and  S_1 
REMARK    2  A    between atoms: C_8  and  S_1 
REMARK    3  A    between atoms: C_2  and  C_11 
REMARK    4  A    between atoms: C_9  and  N_5 
REMARK    5  A    between atoms: C_10  and  C_9 
REMARK       I    between atoms: N_14  and  C_10 
REMARK    6  A    between atoms: C_24  and  N_14 
REMARK    7  A    between atoms: C_15  and  C_16 
ROOT
ATOM      1  C   UNL d   1      13.911  15.707  -5.614  0.00  0.00     0.299 C 
ATOM      2  N   UNL d   1      13.483  15.023  -5.519  0.00  0.00    -0.207 NA
ATOM      3  O   UNL d   1      14.444  15.954  -5.028  0.00  0.00    -0.263 OA
ENDROOT
BRANCH   1   4
ATOM      4  C   UNL d   1      13.822  16.171  -6.301  0.00  0.00     0.174 C 
BRANCH   4   5
ATOM      5  N   UNL d   1      13.278  16.781  -6.297  0.00  0.00    -0.152 NA
BRANCH   5   6
ATOM      6  S   UNL d   1      13.546  17.568  -6.225  0.00  0.00     0.285 S 
ATOM      7  O   UNL d   1      12.769  17.835  -6.304  0.00  0.00    -0.198 OA
ATOM      8  O   UNL d   1      14.321  17.296  -6.146  0.00  0.00    -0.198 OA
BRANCH   6   9
ATOM      9  C   UNL d   1      13.814  18.345  -6.153  0.00  0.00     0.105 A 
ATOM     10  C   UNL d   1      14.559  18.498  -5.850  0.00  0.00     0.013 A 
ATOM     11  C   UNL d   1      14.828  19.275  -5.777  0.00  0.00    -0.004 A 
ATOM     12  C   UNL d   1      14.341  19.902  -6.013  0.00  0.00    -0.023 A 
ATOM     13  C   UNL d   1      13.586  19.743  -6.320  0.00  0.00    -0.004 A 
ATOM     14  C   UNL d   1      13.328  18.970  -6.388  0.00  0.00     0.013 A 
BRANCH  12  15
ATOM     15  C   UNL d   1      14.602  20.681  -5.944  0.00  0.00     0.019 C 
ATOM     16  C   UNL d   1      15.305  20.412  -5.615  0.00  0.00     0.004 C 
ATOM     17  C   UNL d   1      13.891  20.949  -6.276  0.00  0.00     0.004 C 
ATOM     18  C   UNL d   1      14.868  21.459  -5.873  0.00  0.00     0.004 C 
ENDBRANCH  12  15
ENDBRANCH   6   9
ENDBRANCH   5   6
ENDBRANCH   4   5
ENDBRANCH   1   4
BRANCH   2  19
ATOM     19  C   UNL d   1      13.577  14.569  -4.836  0.00  0.00     0.085 A 
ATOM     20  C   UNL d   1      13.997  14.880  -4.202  0.00  0.00     0.019 A 
ATOM     21  C   UNL d   1      14.100  14.433  -3.505  0.00  0.00     0.004 A 
ATOM     22  C   UNL d   1      13.780  13.678  -3.451  0.00  0.00     0.024 A 
ATOM     23  C   UNL d   1      13.357  13.365  -4.088  0.00  0.00     0.004 A 
ATOM     24  C   UNL d   1      13.253  13.804  -4.780  0.00  0.00     0.019 A 
BRANCH  22  25
ATOM     25  C   UNL d   1      13.889  13.243  -2.752  0.00  0.00     0.111 A 
ATOM     26  N   UNL d   1      14.625  13.123  -2.413  0.00  0.00    -0.239 NA
ATOM     27  C   UNL d   1      14.528  12.670  -1.729  0.00  0.00     0.088 A 
ATOM     28  C   UNL d   1      15.063  12.383  -1.173  0.00  0.00     0.020 A 
ATOM     29  C   UNL d   1      13.723  12.511  -1.648  0.00  0.00     0.049 A 
ATOM     30  C   UNL d   1      14.793  11.938  -0.536  0.00  0.00     0.002 A 
ATOM     31  C   UNL d   1      13.988  11.779  -0.455  0.00  0.00     0.001 A 
ATOM     32  C   UNL d   1      13.453  12.065  -1.010  0.00  0.00     0.008 A 
ATOM     33  S   UNL d   1      13.328  12.867  -2.282  0.00  0.00    -0.066 SA
ENDBRANCH  22  25
ENDBRANCH   2  19
TORSDOF 7
ENDMDL
