MODEL 1
REMARK VINA RESULT:      -0.2      0.000      0.000
REMARK  4 active torsions:
REMARK  status: ('A' for Active; 'I' for Inactive)
REMARK    1  A    between atoms: C_7  and  C_1 
REMARK       I    between atoms: C_6  and  N_8 
REMARK    2  A    between atoms: C_14  and  C_6 
REMARK    3  A    between atoms: N_8  and  C_15 
REMARK    4  A    between atoms: C_20  and  C_14 
ROOT
ATOM      1  C   UNL d   1     -41.477-122.508 -52.029  0.00  0.00     0.024 A 
ATOM      2  C   UNL d   1     -41.311-123.246 -51.719  0.00  0.00     0.004 A 
ATOM      3  C   UNL d   1     -41.527-121.836 -51.540  0.00  0.00     0.004 A 
ATOM      4  C   UNL d   1     -41.238-122.672 -50.406  0.00  0.00     0.085 A 
ATOM      5  C   UNL d   1     -41.189-123.335 -50.895  0.00  0.00     0.019 A 
ATOM      6  C   UNL d   1     -41.405-121.933 -50.719  0.00  0.00     0.019 A 
ENDROOT
BRANCH   1   7
ATOM      7  C   UNL d   1     -41.593-122.436 -52.834  0.00  0.00     0.111 A 
ATOM      8  N   UNL d   1     -41.241-122.905 -53.392  0.00  0.00    -0.239 NA
ATOM      9  C   UNL d   1     -41.484-122.677 -54.141  0.00  0.00     0.088 A 
ATOM     10  C   UNL d   1     -41.312-122.946 -54.893  0.00  0.00     0.020 A 
ATOM     11  C   UNL d   1     -42.011-122.037 -54.036  0.00  0.00     0.049 A 
ATOM     12  C   UNL d   1     -41.657-122.587 -55.530  0.00  0.00     0.002 A 
ATOM     13  C   UNL d   1     -42.184-121.947 -55.425  0.00  0.00     0.001 A 
ATOM     14  C   UNL d   1     -42.361-121.672 -54.688  0.00  0.00     0.008 A 
ATOM     15  C   UNL d   1     -42.524-121.595 -56.091  0.00  0.00     0.000 C 
ATOM     16  S   UNL d   1     -42.076-121.891 -53.234  0.00  0.00    -0.066 SA
ENDBRANCH   1   7
BRANCH   4  17
ATOM     17  N   UNL d   1     -41.123-122.745 -49.611  0.00  0.00    -0.208 NA
ATOM     18  C   UNL d   1     -41.684-123.002 -49.159  0.00  0.00     0.279 C 
ATOM     19  O   UNL d   1     -41.567-123.083 -48.300  0.00  0.00    -0.265 OA
BRANCH  18  20
ATOM     20  C   UNL d   1     -42.369-123.179 -49.571  0.00  0.00     0.062 C 
BRANCH  20  21
ATOM     21  C   UNL d   1     -43.040-123.388 -49.166  0.00  0.00     0.005 A 
ATOM     22  C   UNL d   1     -43.712-123.587 -49.589  0.00  0.00     0.000 A 
ATOM     23  C   UNL d   1     -44.414-123.805 -49.191  0.00  0.00     0.000 A 
ATOM     24  C   UNL d   1     -44.421-123.817 -48.365  0.00  0.00     0.000 A 
ATOM     25  C   UNL d   1     -43.735-123.614 -47.946  0.00  0.00     0.000 A 
ATOM     26  C   UNL d   1     -43.048-123.400 -48.334  0.00  0.00     0.000 A 
ENDBRANCH  20  21
ENDBRANCH  18  20
ENDBRANCH   4  17
TORSDOF 4
ENDMDL
