MODEL 1
REMARK VINA RESULT:      -3.6      0.000      0.000
REMARK  2 active torsions:
REMARK  status: ('A' for Active; 'I' for Inactive)
REMARK    1  A    between atoms: C_6  and  C_2 
REMARK    2  A    between atoms: C_7  and  C_3 
ROOT
ATOM      1  N   UNL d   1      32.634  18.996 -22.314  0.00  0.00    -0.238 NA
ATOM      2  C   UNL d   1      32.797  18.666 -23.038  0.00  0.00     0.112 A 
ATOM      3  C   UNL d   1      32.902  19.779 -22.326  0.00  0.00     0.088 A 
ATOM      4  S   UNL d   1      33.166  19.229 -23.512  0.00  0.00    -0.066 SA
ATOM      5  C   UNL d   1      33.231  19.925 -23.064  0.00  0.00     0.056 A 
ENDROOT
BRANCH   3   6
ATOM      6  C   UNL d   1      32.885  20.366 -21.758  0.00  0.00     0.020 A 
ATOM      7  C   UNL d   1      32.513  21.098 -21.913  0.00  0.00     0.028 A 
ATOM      8  C   UNL d   1      32.501  21.700 -21.316  0.00  0.00     0.123 A 
ATOM      9  O   UNL d   1      32.136  22.415 -21.468  0.00  0.00    -0.301 OA
ATOM     10  C   UNL d   1      32.856  21.561 -20.589  0.00  0.00     0.123 A 
ATOM     11  C   UNL d   1      32.119  23.002 -20.901  0.00  0.00     0.149 A 
ATOM     12  C   UNL d   1      32.472  22.874 -20.167  0.00  0.00     0.149 A 
ATOM     13  O   UNL d   1      32.842  22.154 -20.008  0.00  0.00    -0.301 OA
ATOM     14  C   UNL d   1      33.223  20.826 -20.451  0.00  0.00     0.027 A 
ATOM     15  C   UNL d   1      33.241  20.233 -21.024  0.00  0.00     0.004 A 
ENDBRANCH   3   6
BRANCH   2  16
ATOM     16  C   UNL d   1      32.652  17.900 -23.338  0.00  0.00     0.043 A 
ATOM     17  C   UNL d   1      32.004  17.758 -23.825  0.00  0.00     0.101 A 
ATOM     18  N   UNL d   1      31.869  16.986 -24.120  0.00  0.00    -0.242 NA
ATOM     19  C   UNL d   1      32.390  16.362 -23.919  0.00  0.00     0.099 A 
ATOM     20  C   UNL d   1      33.034  16.517 -23.431  0.00  0.00     0.021 A 
ATOM     21  C   UNL d   1      33.170  17.276 -23.139  0.00  0.00     0.005 A 
ENDBRANCH   2  16
TORSDOF 2
ENDMDL
MODEL 2
REMARK VINA RESULT:      -3.4      2.183      4.885
REMARK  2 active torsions:
REMARK  status: ('A' for Active; 'I' for Inactive)
REMARK    1  A    between atoms: C_6  and  C_2 
REMARK    2  A    between atoms: C_7  and  C_3 
ROOT
ATOM      1  N   UNL d   1      32.633  20.562 -22.392  0.00  0.00    -0.238 NA
ATOM      2  C   UNL d   1      32.803  20.873 -21.662  0.00  0.00     0.112 A 
ATOM      3  C   UNL d   1      32.901  19.779 -22.403  0.00  0.00     0.088 A 
ATOM      4  S   UNL d   1      33.177  20.298 -21.206  0.00  0.00    -0.066 SA
ATOM      5  C   UNL d   1      33.237  19.614 -21.672  0.00  0.00     0.056 A 
ENDROOT
BRANCH   3   6
ATOM      6  C   UNL d   1      32.878  19.206 -22.985  0.00  0.00     0.020 A 
ATOM      7  C   UNL d   1      32.498  18.475 -22.849  0.00  0.00     0.028 A 
ATOM      8  C   UNL d   1      32.480  17.888 -23.461  0.00  0.00     0.123 A 
ATOM      9  O   UNL d   1      32.108  17.172 -23.326  0.00  0.00    -0.301 OA
ATOM     10  C   UNL d   1      32.837  18.041 -24.184  0.00  0.00     0.123 A 
ATOM     11  C   UNL d   1      32.085  16.600 -23.907  0.00  0.00     0.149 A 
ATOM     12  C   UNL d   1      32.440  16.743 -24.638  0.00  0.00     0.149 A 
ATOM     13  O   UNL d   1      32.817  17.463 -24.779  0.00  0.00    -0.301 OA
ATOM     14  C   UNL d   1      33.212  18.775 -24.303  0.00  0.00     0.027 A 
ATOM     15  C   UNL d   1      33.235  19.354 -23.716  0.00  0.00     0.004 A 
ENDBRANCH   3   6
BRANCH   2  16
ATOM     16  C   UNL d   1      32.662  21.631 -21.342  0.00  0.00     0.043 A 
ATOM     17  C   UNL d   1      32.097  21.737 -20.753  0.00  0.00     0.101 A 
ATOM     18  N   UNL d   1      31.964  22.503 -20.440  0.00  0.00    -0.242 NA
ATOM     19  C   UNL d   1      32.403  23.156 -20.724  0.00  0.00     0.099 A 
ATOM     20  C   UNL d   1      32.966  23.037 -21.313  0.00  0.00     0.021 A 
ATOM     21  C   UNL d   1      33.099  22.285 -21.623  0.00  0.00     0.005 A 
ENDBRANCH   2  16
TORSDOF 2
ENDMDL
MODEL 3
REMARK VINA RESULT:      -3.2      2.243      4.870
REMARK  2 active torsions:
REMARK  status: ('A' for Active; 'I' for Inactive)
REMARK    1  A    between atoms: C_6  and  C_2 
REMARK    2  A    between atoms: C_7  and  C_3 
ROOT
ATOM      1  N   UNL d   1      32.758  19.297 -22.237  0.00  0.00    -0.238 NA
ATOM      2  C   UNL d   1      33.002  20.067 -22.326  0.00  0.00     0.112 A 
ATOM      3  C   UNL d   1      32.842  18.919 -22.968  0.00  0.00     0.088 A 
ATOM      4  S   UNL d   1      33.241  20.184 -23.105  0.00  0.00    -0.066 SA
ATOM      5  C   UNL d   1      33.140  19.463 -23.506  0.00  0.00     0.056 A 
ENDROOT
BRANCH   3   6
ATOM      6  C   UNL d   1      32.683  18.152 -23.203  0.00  0.00     0.020 A 
ATOM      7  C   UNL d   1      31.965  17.963 -23.586  0.00  0.00     0.028 A 
ATOM      8  C   UNL d   1      31.812  17.164 -23.825  0.00  0.00     0.123 A 
ATOM      9  O   UNL d   1      31.108  16.981 -24.199  0.00  0.00    -0.301 OA
ATOM     10  C   UNL d   1      32.369  16.580 -23.679  0.00  0.00     0.123 A 
ATOM     11  C   UNL d   1      30.950  16.215 -24.433  0.00  0.00     0.149 A 
ATOM     12  C   UNL d   1      31.503  15.620 -24.292  0.00  0.00     0.149 A 
ATOM     13  O   UNL d   1      32.214  15.800 -23.915  0.00  0.00    -0.301 OA
ATOM     14  C   UNL d   1      33.080  16.785 -23.297  0.00  0.00     0.027 A 
ATOM     15  C   UNL d   1      33.241  17.559 -23.059  0.00  0.00     0.004 A 
ENDBRANCH   3   6
BRANCH   2  16
ATOM     16  C   UNL d   1      33.039  20.697 -21.780  0.00  0.00     0.043 A 
ATOM     17  C   UNL d   1      32.947  21.475 -22.033  0.00  0.00     0.101 A 
ATOM     18  N   UNL d   1      32.986  22.099 -21.476  0.00  0.00    -0.242 NA
ATOM     19  C   UNL d   1      33.118  21.933 -20.667  0.00  0.00     0.099 A 
ATOM     20  C   UNL d   1      33.209  21.151 -20.426  0.00  0.00     0.021 A 
ATOM     21  C   UNL d   1      33.171  20.534 -20.971  0.00  0.00     0.005 A 
ENDBRANCH   2  16
TORSDOF 2
ENDMDL
MODEL 4
REMARK VINA RESULT:      -3.1      2.827      5.610
REMARK  2 active torsions:
REMARK  status: ('A' for Active; 'I' for Inactive)
REMARK    1  A    between atoms: C_6  and  C_2 
REMARK    2  A    between atoms: C_7  and  C_3 
ROOT
ATOM      1  N   UNL d   1      32.859  22.353 -19.506  0.00  0.00    -0.238 NA
ATOM      2  C   UNL d   1      32.856  23.019 -19.042  0.00  0.00     0.112 A 
ATOM      3  C   UNL d   1      32.995  22.590 -20.288  0.00  0.00     0.088 A 
ATOM      4  S   UNL d   1      32.988  23.679 -19.518  0.00  0.00    -0.066 SA
ATOM      5  C   UNL d   1      33.075  23.407 -20.298  0.00  0.00     0.056 A 
ENDROOT
BRANCH   3   6
ATOM      6  C   UNL d   1      33.054  22.161 -20.981  0.00  0.00     0.020 A 
ATOM      7  C   UNL d   1      33.035  21.326 -20.969  0.00  0.00     0.028 A 
ATOM      8  C   UNL d   1      33.098  20.892 -21.695  0.00  0.00     0.123 A 
ATOM      9  O   UNL d   1      33.078  20.075 -21.682  0.00  0.00    -0.301 OA
ATOM     10  C   UNL d   1      33.177  21.295 -22.406  0.00  0.00     0.123 A 
ATOM     11  C   UNL d   1      33.138  19.647 -22.374  0.00  0.00     0.149 A 
ATOM     12  C   UNL d   1      33.218  20.040 -23.095  0.00  0.00     0.149 A 
ATOM     13  O   UNL d   1      33.238  20.865 -23.113  0.00  0.00    -0.301 OA
ATOM     14  C   UNL d   1      33.194  22.127 -22.400  0.00  0.00     0.027 A 
ATOM     15  C   UNL d   1      33.135  22.560 -21.701  0.00  0.00     0.004 A 
ENDBRANCH   3   6
BRANCH   2  16
ATOM     16  C   UNL d   1      32.746  23.115 -18.220  0.00  0.00     0.043 A 
ATOM     17  C   UNL d   1      33.241  22.731 -17.685  0.00  0.00     0.101 A 
ATOM     18  N   UNL d   1      33.121  22.835 -16.863  0.00  0.00    -0.242 NA
ATOM     19  C   UNL d   1      32.501  23.325 -16.586  0.00  0.00     0.099 A 
ATOM     20  C   UNL d   1      32.013  23.702 -17.131  0.00  0.00     0.021 A 
ATOM     21  C   UNL d   1      32.128  23.603 -17.941  0.00  0.00     0.005 A 
ENDBRANCH   2  16
TORSDOF 2
ENDMDL
MODEL 5
REMARK VINA RESULT:      -3.1      0.981      1.691
REMARK  2 active torsions:
REMARK  status: ('A' for Active; 'I' for Inactive)
REMARK    1  A    between atoms: C_6  and  C_2 
REMARK    2  A    between atoms: C_7  and  C_3 
ROOT
ATOM      1  N   UNL d   1      32.776  20.233 -21.901  0.00  0.00    -0.238 NA
ATOM      2  C   UNL d   1      32.951  19.843 -22.592  0.00  0.00     0.112 A 
ATOM      3  C   UNL d   1      32.954  21.033 -22.009  0.00  0.00     0.088 A 
ATOM      4  S   UNL d   1      33.240  20.386 -23.140  0.00  0.00    -0.066 SA
ATOM      5  C   UNL d   1      33.241  21.131 -22.773  0.00  0.00     0.056 A 
ENDROOT
BRANCH   3   6
ATOM      6  C   UNL d   1      32.890  21.676 -21.508  0.00  0.00     0.020 A 
ATOM      7  C   UNL d   1      33.082  21.605 -20.698  0.00  0.00     0.028 A 
ATOM      8  C   UNL d   1      33.012  22.278 -20.187  0.00  0.00     0.123 A 
ATOM      9  O   UNL d   1      33.200  22.207 -19.394  0.00  0.00    -0.301 OA
ATOM     10  C   UNL d   1      32.755  22.996 -20.491  0.00  0.00     0.123 A 
ATOM     11  C   UNL d   1      33.136  22.848 -18.894  0.00  0.00     0.149 A 
ATOM     12  C   UNL d   1      32.879  23.575 -19.188  0.00  0.00     0.149 A 
ATOM     13  O   UNL d   1      32.688  23.652 -19.986  0.00  0.00    -0.301 OA
ATOM     14  C   UNL d   1      32.568  23.049 -21.300  0.00  0.00     0.027 A 
ATOM     15  C   UNL d   1      32.632  22.402 -21.807  0.00  0.00     0.004 A 
ENDBRANCH   3   6
BRANCH   2  16
ATOM     16  C   UNL d   1      32.883  19.038 -22.800  0.00  0.00     0.043 A 
ATOM     17  C   UNL d   1      33.241  18.456 -22.340  0.00  0.00     0.101 A 
ATOM     18  N   UNL d   1      33.166  17.651 -22.559  0.00  0.00    -0.242 NA
ATOM     19  C   UNL d   1      32.730  17.439 -23.242  0.00  0.00     0.099 A 
ATOM     20  C   UNL d   1      32.377  18.030 -23.693  0.00  0.00     0.021 A 
ATOM     21  C   UNL d   1      32.449  18.823 -23.480  0.00  0.00     0.005 A 
ENDBRANCH   2  16
TORSDOF 2
ENDMDL
MODEL 6
REMARK VINA RESULT:      -3.1      0.900      1.259
REMARK  2 active torsions:
REMARK  status: ('A' for Active; 'I' for Inactive)
REMARK    1  A    between atoms: C_6  and  C_2 
REMARK    2  A    between atoms: C_7  and  C_3 
ROOT
ATOM      1  N   UNL d   1      32.444  18.934 -23.292  0.00  0.00    -0.238 NA
ATOM      2  C   UNL d   1      32.626  18.143 -23.257  0.00  0.00     0.112 A 
ATOM      3  C   UNL d   1      32.822  19.310 -22.658  0.00  0.00     0.088 A 
ATOM      4  S   UNL d   1      33.115  18.010 -22.608  0.00  0.00    -0.066 SA
ATOM      5  C   UNL d   1      33.237  18.742 -22.235  0.00  0.00     0.056 A 
ENDROOT
BRANCH   3   6
ATOM      6  C   UNL d   1      32.835  20.092 -22.422  0.00  0.00     0.020 A 
ATOM      7  C   UNL d   1      32.457  20.331 -21.716  0.00  0.00     0.028 A 
ATOM      8  C   UNL d   1      32.478  21.145 -21.481  0.00  0.00     0.123 A 
ATOM      9  O   UNL d   1      32.108  21.377 -20.790  0.00  0.00    -0.301 OA
ATOM     10  C   UNL d   1      32.869  21.695 -21.948  0.00  0.00     0.123 A 
ATOM     11  C   UNL d   1      32.121  22.158 -20.554  0.00  0.00     0.149 A 
ATOM     12  C   UNL d   1      32.511  22.720 -21.015  0.00  0.00     0.149 A 
ATOM     13  O   UNL d   1      32.887  22.491 -21.713  0.00  0.00    -0.301 OA
ATOM     14  C   UNL d   1      33.241  21.441 -22.648  0.00  0.00     0.027 A 
ATOM     15  C   UNL d   1      33.228  20.651 -22.888  0.00  0.00     0.004 A 
ENDBRANCH   3   6
BRANCH   2  16
ATOM     16  C   UNL d   1      32.402  17.507 -23.747  0.00  0.00     0.043 A 
ATOM     17  C   UNL d   1      32.853  17.309 -24.407  0.00  0.00     0.101 A 
ATOM     18  N   UNL d   1      32.619  16.668 -24.892  0.00  0.00    -0.242 NA
ATOM     19  C   UNL d   1      31.929  16.231 -24.707  0.00  0.00     0.099 A 
ATOM     20  C   UNL d   1      31.486  16.438 -24.045  0.00  0.00     0.021 A 
ATOM     21  C   UNL d   1      31.714  17.068 -23.565  0.00  0.00     0.005 A 
ENDBRANCH   2  16
TORSDOF 2
ENDMDL
MODEL 7
REMARK VINA RESULT:      -2.4      2.744      5.255
REMARK  2 active torsions:
REMARK  status: ('A' for Active; 'I' for Inactive)
REMARK    1  A    between atoms: C_6  and  C_2 
REMARK    2  A    between atoms: C_7  and  C_3 
ROOT
ATOM      1  N   UNL d   1      32.001  18.492 -23.364  0.00  0.00    -0.238 NA
ATOM      2  C   UNL d   1      32.631  19.005 -23.374  0.00  0.00     0.112 A 
ATOM      3  C   UNL d   1      32.082  17.980 -24.009  0.00  0.00     0.088 A 
ATOM      4  S   UNL d   1      33.112  18.827 -24.018  0.00  0.00    -0.066 SA
ATOM      5  C   UNL d   1      32.766  18.184 -24.414  0.00  0.00     0.056 A 
ENDROOT
BRANCH   3   6
ATOM      6  C   UNL d   1      31.618  17.360 -24.270  0.00  0.00     0.020 A 
ATOM      7  C   UNL d   1      30.785  17.430 -24.290  0.00  0.00     0.028 A 
ATOM      8  C   UNL d   1      30.314  16.780 -24.563  0.00  0.00     0.123 A 
ATOM      9  O   UNL d   1      29.499  16.850 -24.583  0.00  0.00    -0.301 OA
ATOM     10  C   UNL d   1      30.677  16.086 -24.806  0.00  0.00     0.123 A 
ATOM     11  C   UNL d   1      29.036  16.231 -24.843  0.00  0.00     0.149 A 
ATOM     12  C   UNL d   1      29.390  15.528 -25.090  0.00  0.00     0.149 A 
ATOM     13  O   UNL d   1      30.211  15.453 -25.073  0.00  0.00    -0.301 OA
ATOM     14  C   UNL d   1      31.508  16.032 -24.780  0.00  0.00     0.027 A 
ATOM     15  C   UNL d   1      31.977  16.657 -24.517  0.00  0.00     0.004 A 
ENDBRANCH   3   6
BRANCH   2  16
ATOM     16  C   UNL d   1      32.835  19.633 -22.863  0.00  0.00     0.043 A 
ATOM     17  C   UNL d   1      32.957  20.391 -23.161  0.00  0.00     0.101 A 
ATOM     18  N   UNL d   1      33.161  21.013 -22.639  0.00  0.00    -0.242 NA
ATOM     19  C   UNL d   1      33.241  20.865 -21.819  0.00  0.00     0.099 A 
ATOM     20  C   UNL d   1      33.116  20.103 -21.533  0.00  0.00     0.021 A 
ATOM     21  C   UNL d   1      32.915  19.488 -22.044  0.00  0.00     0.005 A 
ENDBRANCH   2  16
TORSDOF 2
ENDMDL
MODEL 8
REMARK VINA RESULT:      -2.1      2.265      4.924
REMARK  2 active torsions:
REMARK  status: ('A' for Active; 'I' for Inactive)
REMARK    1  A    between atoms: C_6  and  C_2 
REMARK    2  A    between atoms: C_7  and  C_3 
ROOT
ATOM      1  N   UNL d   1      33.120  21.115 -20.680  0.00  0.00    -0.238 NA
ATOM      2  C   UNL d   1      33.163  21.921 -20.591  0.00  0.00     0.112 A 
ATOM      3  C   UNL d   1      33.161  20.947 -21.489  0.00  0.00     0.088 A 
ATOM      4  S   UNL d   1      33.232  22.269 -21.334  0.00  0.00    -0.066 SA
ATOM      5  C   UNL d   1      33.231  21.657 -21.895  0.00  0.00     0.056 A 
ENDROOT
BRANCH   3   6
ATOM      6  C   UNL d   1      33.144  20.238 -21.896  0.00  0.00     0.020 A 
ATOM      7  C   UNL d   1      33.033  20.226 -22.724  0.00  0.00     0.028 A 
ATOM      8  C   UNL d   1      33.017  19.485 -23.137  0.00  0.00     0.123 A 
ATOM      9  O   UNL d   1      32.908  19.474 -23.947  0.00  0.00    -0.301 OA
ATOM     10  C   UNL d   1      33.111  18.784 -22.720  0.00  0.00     0.123 A 
ATOM     11  C   UNL d   1      32.891  18.767 -24.354  0.00  0.00     0.149 A 
ATOM     12  C   UNL d   1      32.985  18.056 -23.946  0.00  0.00     0.149 A 
ATOM     13  O   UNL d   1      33.095  18.062 -23.129  0.00  0.00    -0.301 OA
ATOM     14  C   UNL d   1      33.221  18.814 -21.896  0.00  0.00     0.027 A 
ATOM     15  C   UNL d   1      33.239  19.529 -21.483  0.00  0.00     0.004 A 
ENDBRANCH   3   6
BRANCH   2  16
ATOM     16  C   UNL d   1      33.148  22.400 -19.907  0.00  0.00     0.043 A 
ATOM     17  C   UNL d   1      33.057  23.216 -19.970  0.00  0.00     0.101 A 
ATOM     18  N   UNL d   1      33.044  23.685 -19.277  0.00  0.00    -0.242 NA
ATOM     19  C   UNL d   1      33.123  23.327 -18.524  0.00  0.00     0.099 A 
ATOM     20  C   UNL d   1      33.213  22.511 -18.474  0.00  0.00     0.021 A 
ATOM     21  C   UNL d   1      33.227  22.045 -19.155  0.00  0.00     0.005 A 
ENDBRANCH   2  16
TORSDOF 2
ENDMDL
MODEL 9
REMARK VINA RESULT:      -1.9      1.915      3.139
REMARK  2 active torsions:
REMARK  status: ('A' for Active; 'I' for Inactive)
REMARK    1  A    between atoms: C_6  and  C_2 
REMARK    2  A    between atoms: C_7  and  C_3 
ROOT
ATOM      1  N   UNL d   1      32.917  21.331 -20.818  0.00  0.00    -0.238 NA
ATOM      2  C   UNL d   1      32.876  21.268 -21.627  0.00  0.00     0.112 A 
ATOM      3  C   UNL d   1      32.838  22.131 -20.622  0.00  0.00     0.088 A 
ATOM      4  S   UNL d   1      32.771  22.019 -21.949  0.00  0.00    -0.066 SA
ATOM      5  C   UNL d   1      32.748  22.558 -21.317  0.00  0.00     0.056 A 
ENDROOT
BRANCH   3   6
ATOM      6  C   UNL d   1      32.838  22.514 -19.900  0.00  0.00     0.020 A 
ATOM      7  C   UNL d   1      33.043  22.105 -19.200  0.00  0.00     0.028 A 
ATOM      8  C   UNL d   1      33.039  22.513 -18.457  0.00  0.00     0.123 A 
ATOM      9  O   UNL d   1      33.239  22.112 -17.773  0.00  0.00    -0.301 OA
ATOM     10  C   UNL d   1      32.835  23.308 -18.428  0.00  0.00     0.123 A 
ATOM     11  C   UNL d   1      33.239  22.495 -17.052  0.00  0.00     0.149 A 
ATOM     12  C   UNL d   1      33.036  23.293 -17.011  0.00  0.00     0.149 A 
ATOM     13  O   UNL d   1      32.833  23.702 -17.698  0.00  0.00    -0.301 OA
ATOM     14  C   UNL d   1      32.634  23.700 -19.135  0.00  0.00     0.027 A 
ATOM     15  C   UNL d   1      32.634  23.314 -19.864  0.00  0.00     0.004 A 
ENDBRANCH   3   6
BRANCH   2  16
ATOM     16  C   UNL d   1      32.921  20.603 -22.129  0.00  0.00     0.043 A 
ATOM     17  C   UNL d   1      33.041  20.697 -22.938  0.00  0.00     0.101 A 
ATOM     18  N   UNL d   1      33.085  20.022 -23.432  0.00  0.00    -0.242 NA
ATOM     19  C   UNL d   1      33.006  19.256 -23.104  0.00  0.00     0.099 A 
ATOM     20  C   UNL d   1      32.886  19.174 -22.294  0.00  0.00     0.021 A 
ATOM     21  C   UNL d   1      32.843  19.837 -21.805  0.00  0.00     0.005 A 
ENDBRANCH   2  16
TORSDOF 2
ENDMDL
