MODEL 1
REMARK VINA RESULT:      61.3      0.000      0.000
REMARK  3 active torsions:
REMARK  status: ('A' for Active; 'I' for Inactive)
REMARK    1  A    between atoms: C_6  and  C_16 
REMARK    2  A    between atoms: S_14  and  C_8 
REMARK    3  A    between atoms: C_16  and  S_14 
ROOT
ATOM      1  C   UNL d   1      59.132  49.650  50.835  0.00  0.00     0.141 A 
ATOM      2  O   UNL d   1      58.909  49.630  50.040  0.00  0.00    -0.303 OA
ATOM      3  C   UNL d   1      58.446  49.682  51.291  0.00  0.00     0.110 A 
ATOM      4  C   UNL d   1      57.798  49.682  50.780  0.00  0.00     0.043 A 
ATOM      5  C   UNL d   1      59.872  49.643  51.202  0.00  0.00     0.137 A 
ATOM      6  C   UNL d   1      58.085  49.650  50.007  0.00  0.00     0.102 A 
ATOM      7  N   UNL d   1      59.923  49.669  52.026  0.00  0.00    -0.215 NA
ATOM      8  N   UNL d   1      58.497  49.708  52.115  0.00  0.00    -0.222 NA
ATOM      9  C   UNL d   1      59.237  49.701  52.482  0.00  0.00     0.200 A 
ATOM     10  C   UNL d   1      56.985  49.707  50.918  0.00  0.00     0.004 A 
ATOM     11  C   UNL d   1      57.558  49.643  49.371  0.00  0.00     0.025 A 
ATOM     12  C   UNL d   1      56.458  49.700  50.282  0.00  0.00     0.000 A 
ATOM     13  C   UNL d   1      56.745  49.668  49.508  0.00  0.00     0.002 A 
ENDROOT
BRANCH   5  14
ATOM     14  S   UNL d   1      60.559  49.611  50.745  0.00  0.00    -0.062 SA
BRANCH  14  15
ATOM     15  C   UNL d   1      61.205  49.169  51.004  0.00  0.00     0.076 C 
BRANCH  15  16
ATOM     16  C   UNL d   1      61.343  48.420  50.688  0.00  0.00     0.169 A 
ATOM     17  N   UNL d   1      61.693  48.256  49.959  0.00  0.00    -0.225 NA
ATOM     18  C   UNL d   1      61.722  47.438  49.867  0.00  0.00     0.101 A 
ATOM     19  C   UNL d   1      62.007  46.960  49.258  0.00  0.00     0.021 A 
ATOM     20  C   UNL d   1      61.390  47.093  50.539  0.00  0.00     0.101 A 
ATOM     21  C   UNL d   1      61.961  46.138  49.321  0.00  0.00     0.002 A 
ATOM     22  C   UNL d   1      61.629  45.795  49.993  0.00  0.00     0.002 A 
ATOM     23  C   UNL d   1      61.344  46.272  50.602  0.00  0.00     0.021 A 
ATOM     24  N   UNL d   1      61.156  47.700  51.047  0.00  0.00    -0.225 NA
ENDBRANCH  15  16
ENDBRANCH  14  15
ENDBRANCH   5  14
TORSDOF 3
ENDMDL
