MODEL 1
REMARK VINA RESULT:      77.8      0.000      0.000
REMARK  7 active torsions:
REMARK  status: ('A' for Active; 'I' for Inactive)
REMARK    1  A    between atoms: C_5  and  N_1 
REMARK    2  A    between atoms: S_12  and  C_2 
REMARK       I    between atoms: N_3  and  C_9 
REMARK    3  A    between atoms: C_15  and  C_4 
REMARK    4  A    between atoms: C_9  and  C_20 
REMARK       I    between atoms: C_10  and  N_14 
REMARK    5  A    between atoms: C_11  and  C_10 
REMARK    6  A    between atoms: C_20  and  S_12 
REMARK    7  A    between atoms: N_14  and  C_15 
ROOT
ATOM      1  N   UNL d   1     -54.771-100.726 -42.038  0.00  0.00    -0.268 N 
ATOM      2  C   UNL d   1     -54.756 -99.910 -41.904  0.00  0.00     0.201 A 
ATOM      3  C   UNL d   1     -54.807-101.108 -41.302  0.00  0.00     0.190 A 
ATOM      4  N   UNL d   1     -54.783 -99.783 -41.081  0.00  0.00    -0.121 NA
ATOM      5  N   UNL d   1     -54.815-100.521 -40.710  0.00  0.00    -0.126 NA
ENDROOT
BRANCH   2   6
ATOM      6  S   UNL d   1     -54.721 -99.329 -42.476  0.00  0.00    -0.043 SA
BRANCH   6   7
ATOM      7  C   UNL d   1     -55.338 -98.785 -42.562  0.00  0.00     0.099 C 
BRANCH   7   8
ATOM      8  C   UNL d   1     -55.800 -98.783 -43.235  0.00  0.00     0.271 C 
ATOM      9  N   UNL d   1     -56.619 -98.777 -43.175  0.00  0.00    -0.273 N 
ATOM     10  C   UNL d   1     -57.149 -98.774 -43.807  0.00  0.00     0.067 A 
ATOM     11  C   UNL d   1     -57.050 -98.772 -42.474  0.00  0.00     0.083 A 
ATOM     12  C   UNL d   1     -57.914 -98.768 -43.490  0.00  0.00     0.018 A 
ATOM     13  C   UNL d   1     -57.025 -98.778 -44.624  0.00  0.00     0.018 A 
ATOM     14  C   UNL d   1     -58.559 -98.764 -43.999  0.00  0.00     0.002 A 
ATOM     15  C   UNL d   1     -57.848 -98.766 -42.678  0.00  0.00     0.021 A 
ATOM     16  C   UNL d   1     -58.446 -98.767 -44.826  0.00  0.00     0.000 A 
ATOM     17  C   UNL d   1     -57.682 -98.774 -45.132  0.00  0.00     0.002 A 
ATOM     18  O   UNL d   1     -55.442 -98.788 -43.982  0.00  0.00    -0.266 OA
ENDBRANCH   7   8
ENDBRANCH   6   7
ENDBRANCH   2   6
BRANCH   1  19
ATOM     19  C   UNL d   1     -54.753-101.093 -42.766  0.00  0.00     0.067 A 
ATOM     20  C   UNL d   1     -54.738-101.912 -42.813  0.00  0.00     0.016 A 
ATOM     21  C   UNL d   1     -54.720-102.283 -43.552  0.00  0.00     0.001 A 
ATOM     22  C   UNL d   1     -54.742-102.368 -42.132  0.00  0.00     0.002 C 
ATOM     23  C   UNL d   1     -54.717-101.832 -44.234  0.00  0.00     0.000 A 
ATOM     24  C   UNL d   1     -54.731-101.002 -44.183  0.00  0.00     0.001 A 
ATOM     25  C   UNL d   1     -54.749-100.632 -43.458  0.00  0.00     0.018 A 
ATOM     26  C   UNL d   1     -54.727-100.555 -44.878  0.00  0.00     0.000 C 
ENDBRANCH   1  19
BRANCH   3  27
ATOM     27  C   UNL d   1     -54.832-101.924 -41.176  0.00  0.00     0.141 C 
BRANCH  27  28
ATOM     28  N   UNL d   1     -54.760-102.223 -40.413  0.00  0.00    -0.202 NA
ATOM     29  C   UNL d   1     -54.900-101.726 -39.767  0.00  0.00     0.302 C 
ATOM     30  O   UNL d   1     -55.109-100.937 -39.895  0.00  0.00    -0.263 OA
BRANCH  29  31
ATOM     31  C   UNL d   1     -54.831-102.013 -38.994  0.00  0.00     0.158 A 
ATOM     32  O   UNL d   1     -54.804-102.805 -38.788  0.00  0.00    -0.300 OA
ATOM     33  C   UNL d   1     -54.734-102.853 -37.968  0.00  0.00     0.123 A 
ATOM     34  C   UNL d   1     -54.719-102.075 -37.677  0.00  0.00     0.029 A 
ATOM     35  C   UNL d   1     -54.779-101.559 -38.315  0.00  0.00     0.032 A 
ENDBRANCH  29  31
ENDBRANCH  27  28
ENDBRANCH   3  27
TORSDOF 7
ENDMDL
