MODEL 1
REMARK VINA RESULT:      16.6      0.000      0.000
REMARK  5 active torsions:
REMARK  status: ('A' for Active; 'I' for Inactive)
REMARK    1  A    between atoms: C_14  and  N_3 
REMARK    2  A    between atoms: C_15  and  C_9 
REMARK    3  A    between atoms: O_22  and  C_12 
REMARK    4  A    between atoms: O_23  and  C_13 
REMARK    5  A    between atoms: C_16  and  C_14 
ROOT
ATOM      1  C   UNL d   1     -42.302-122.777 -51.495  0.00  0.00     0.056 A 
ATOM      2  C   UNL d   1     -42.693-123.122 -52.140  0.00  0.00     0.107 A 
ATOM      3  N   UNL d   1     -41.648-121.871 -52.391  0.00  0.00    -0.304 N 
ATOM      4  C   UNL d   1     -42.561-122.842 -52.903  0.00  0.00     0.038 A 
ATOM      5  N   UNL d   1     -43.172-123.725 -51.846  0.00  0.00    -0.148 NA
ATOM      6  C   UNL d   1     -41.779-122.151 -51.620  0.00  0.00     0.083 A 
ATOM      7  N   UNL d   1     -43.075-123.751 -51.027  0.00  0.00    -0.148 NA
ATOM      8  C   UNL d   1     -42.039-122.216 -53.028  0.00  0.00     0.068 A 
ATOM      9  C   UNL d   1     -42.541-123.169 -50.804  0.00  0.00     0.106 A 
ATOM     10  C   UNL d   1     -41.906-121.935 -53.791  0.00  0.00     0.044 A 
ATOM     11  C   UNL d   1     -42.952-123.187 -53.540  0.00  0.00     0.029 A 
ATOM     12  C   UNL d   1     -42.297-122.281 -54.428  0.00  0.00     0.118 A 
ATOM     13  C   UNL d   1     -42.820-122.907 -54.302  0.00  0.00     0.116 A 
ENDROOT
BRANCH   3  14
ATOM     14  C   UNL d   1     -41.125-121.245 -52.517  0.00  0.00     0.080 C 
BRANCH  14  15
ATOM     15  C   UNL d   1     -41.125-120.599 -52.005  0.00  0.00     0.020 A 
ATOM     16  C   UNL d   1     -41.126-119.825 -52.311  0.00  0.00     0.031 A 
ATOM     17  C   UNL d   1     -41.126-119.179 -51.801  0.00  0.00     0.140 A 
ATOM     18  F   UNL d   1     -41.127-118.413 -52.108  0.00  0.00    -0.204 F 
ATOM     19  C   UNL d   1     -41.124-119.296 -50.975  0.00  0.00     0.030 A 
ATOM     20  C   UNL d   1     -41.123-120.071 -50.669  0.00  0.00     0.002 A 
ATOM     21  C   UNL d   1     -41.124-120.718 -51.184  0.00  0.00     0.002 A 
ENDBRANCH  14  15
ENDBRANCH   3  14
BRANCH   9  22
ATOM     22  C   UNL d   1     -42.342-123.072 -50.010  0.00  0.00     0.020 A 
ATOM     23  C   UNL d   1     -41.571-123.235 -49.755  0.00  0.00     0.004 A 
ATOM     24  C   UNL d   1     -41.376-123.136 -48.955  0.00  0.00     0.030 A 
ATOM     25  C   UNL d   1     -41.937-122.880 -48.424  0.00  0.00     0.140 A 
ATOM     26  C   UNL d   1     -42.706-122.717 -48.675  0.00  0.00     0.030 A 
ATOM     27  F   UNL d   1     -41.730-122.785 -47.628  0.00  0.00    -0.204 F 
ATOM     28  C   UNL d   1     -42.910-122.813 -49.472  0.00  0.00     0.004 A 
ENDBRANCH   9  22
BRANCH  12  29
ATOM     29  O   UNL d   1     -42.159-121.992 -55.205  0.00  0.00    -0.326 OA
ATOM     30  C   UNL d   1     -42.560-121.318 -55.469  0.00  0.00     0.181 C 
ENDBRANCH  12  29
BRANCH  13  31
ATOM     31  O   UNL d   1     -43.212-123.253 -54.952  0.00  0.00    -0.326 OA
ATOM     32  C   UNL d   1     -42.822-123.813 -55.419  0.00  0.00     0.181 C 
ENDBRANCH  13  31
TORSDOF 5
ENDMDL
