MODEL 1
REMARK VINA RESULT:      43.5      0.000      0.000
REMARK  2 active torsions:
REMARK  status: ('A' for Active; 'I' for Inactive)
REMARK    1  A    between atoms: C_7  and  C_1 
REMARK    2  A    between atoms: O_19  and  C_15 
ROOT
ATOM      1  C   UNL d   1     -54.717-100.793 -42.326  0.00  0.00     0.064 A 
ATOM      2  C   UNL d   1     -54.715-101.086 -43.107  0.00  0.00     0.199 A 
ATOM      3  C   UNL d   1     -54.714-100.565 -43.750  0.00  0.00     0.062 A 
ATOM      4  C   UNL d   1     -54.719 -99.966 -42.194  0.00  0.00     0.126 A 
ATOM      5  C   UNL d   1     -54.716 -99.739 -43.614  0.00  0.00     0.106 A 
ATOM      6  O   UNL d   1     -54.718 -99.440 -42.844  0.00  0.00    -0.305 OA
ATOM      7  C   UNL d   1     -54.712-100.856 -44.518  0.00  0.00     0.009 A 
ATOM      8  C   UNL d   1     -54.715 -99.220 -44.256  0.00  0.00     0.067 A 
ATOM      9  O   UNL d   1     -54.714-101.901 -43.237  0.00  0.00    -0.286 OA
ATOM     10  C   UNL d   1     -54.713 -99.522 -45.026  0.00  0.00     0.198 A 
ATOM     11  C   UNL d   1     -54.711-100.337 -45.156  0.00  0.00     0.042 A 
ATOM     12  O   UNL d   1     -54.712 -99.003 -45.665  0.00  0.00    -0.286 OA
ENDROOT
BRANCH   1  13
ATOM     13  C   UNL d   1     -54.718-101.312 -41.692  0.00  0.00     0.005 A 
ATOM     14  C   UNL d   1     -54.726-102.125 -41.831  0.00  0.00     0.002 A 
ATOM     15  C   UNL d   1     -54.727-102.645 -41.192  0.00  0.00     0.024 A 
ATOM     16  C   UNL d   1     -54.720-102.359 -40.417  0.00  0.00     0.094 A 
ATOM     17  C   UNL d   1     -54.712-101.537 -40.286  0.00  0.00     0.024 A 
ATOM     18  C   UNL d   1     -54.711-101.017 -40.924  0.00  0.00     0.002 A 
BRANCH  16  19
ATOM     19  O   UNL d   1     -54.721-102.878 -39.779  0.00  0.00    -0.328 OA
ATOM     20  C   UNL d   1     -55.026-102.637 -39.050  0.00  0.00     0.181 C 
ENDBRANCH  16  19
ENDBRANCH   1  13
TORSDOF 2
ENDMDL
MODEL 2
REMARK VINA RESULT:      43.8      1.063      4.228
REMARK  2 active torsions:
REMARK  status: ('A' for Active; 'I' for Inactive)
REMARK    1  A    between atoms: C_7  and  C_1 
REMARK    2  A    between atoms: O_19  and  C_15 
ROOT
ATOM      1  C   UNL d   1     -54.741-101.334 -42.129  0.00  0.00     0.064 A 
ATOM      2  C   UNL d   1     -54.748-102.066 -41.729  0.00  0.00     0.199 A 
ATOM      3  C   UNL d   1     -54.739-102.090 -40.902  0.00  0.00     0.062 A 
ATOM      4  C   UNL d   1     -54.726-100.621 -41.691  0.00  0.00     0.126 A 
ATOM      5  C   UNL d   1     -54.723-101.375 -40.466  0.00  0.00     0.106 A 
ATOM      6  O   UNL d   1     -54.717-100.647 -40.855  0.00  0.00    -0.305 OA
ATOM      7  C   UNL d   1     -54.745-102.811 -40.509  0.00  0.00     0.009 A 
ATOM      8  C   UNL d   1     -54.714-101.400 -39.641  0.00  0.00     0.067 A 
ATOM      9  O   UNL d   1     -54.763-102.768 -42.161  0.00  0.00    -0.286 OA
ATOM     10  C   UNL d   1     -54.720-102.131 -39.255  0.00  0.00     0.198 A 
ATOM     11  C   UNL d   1     -54.736-102.834 -39.687  0.00  0.00     0.042 A 
ATOM     12  O   UNL d   1     -54.711-102.154 -38.431  0.00  0.00    -0.286 OA
ENDROOT
BRANCH   1  13
ATOM     13  C   UNL d   1     -54.750-101.314 -42.949  0.00  0.00     0.005 A 
ATOM     14  C   UNL d   1     -54.723-102.021 -43.374  0.00  0.00     0.002 A 
ATOM     15  C   UNL d   1     -54.732-101.997 -44.197  0.00  0.00     0.024 A 
ATOM     16  C   UNL d   1     -54.768-101.277 -44.598  0.00  0.00     0.094 A 
ATOM     17  C   UNL d   1     -54.795-100.568 -44.161  0.00  0.00     0.024 A 
ATOM     18  C   UNL d   1     -54.786-100.590 -43.338  0.00  0.00     0.002 A 
BRANCH  16  19
ATOM     19  O   UNL d   1     -54.777-101.254 -45.420  0.00  0.00    -0.328 OA
ATOM     20  C   UNL d   1     -54.773-100.527 -45.815  0.00  0.00     0.181 C 
ENDBRANCH  16  19
ENDBRANCH   1  13
TORSDOF 2
ENDMDL
