MODEL 1
REMARK VINA RESULT:      -1.3      0.000      0.000
REMARK  6 active torsions:
REMARK  status: ('A' for Active; 'I' for Inactive)
REMARK    1  A    between atoms: C_7  and  C_1 
REMARK    2  A    between atoms: C_19  and  N_2 
REMARK    3  A    between atoms: C_18  and  N_3 
REMARK    4  A    between atoms: C_13  and  C_9 
REMARK    5  A    between atoms: O_20  and  C_13 
REMARK    6  A    between atoms: C_23  and  O_20 
ROOT
ATOM      1  C   UNL d   1      58.476  -1.514  29.839  0.00  0.00     0.013 A 
ATOM      2  C   UNL d   1      57.959  -1.559  30.487  0.00  0.00     0.030 A 
ATOM      3  C   UNL d   1      57.576  -0.889  30.766  0.00  0.00     0.163 A 
ATOM      4  O   UNL d   1      57.703  -0.152  30.400  0.00  0.00    -0.302 OA
ATOM      5  C   UNL d   1      58.608  -0.785  29.469  0.00  0.00     0.023 A 
ATOM      6  C   UNL d   1      58.220  -0.103  29.750  0.00  0.00     0.100 A 
ATOM      7  C   UNL d   1      59.120  -0.728  28.824  0.00  0.00     0.002 A 
ATOM      8  C   UNL d   1      58.353   0.629  29.378  0.00  0.00     0.025 A 
ATOM      9  C   UNL d   1      59.251  -0.003  28.455  0.00  0.00     0.000 A 
ATOM     10  C   UNL d   1      58.864   0.682  28.735  0.00  0.00     0.002 A 
ENDROOT
BRANCH   1  11
ATOM     11  C   UNL d   1      58.859  -2.188  29.561  0.00  0.00     0.113 A 
ATOM     12  C   UNL d   1      58.430  -2.762  29.147  0.00  0.00     0.271 A 
ATOM     13  N   UNL d   1      58.808  -3.436  28.868  0.00  0.00    -0.250 N 
ATOM     14  O   UNL d   1      57.622  -2.655  29.015  0.00  0.00    -0.266 OA
ATOM     15  C   UNL d   1      59.612  -3.540  29.000  0.00  0.00     0.196 A 
ATOM     16  N   UNL d   1      60.041  -2.966  29.414  0.00  0.00    -0.250 N 
ATOM     17  S   UNL d   1      59.996  -4.218  28.720  0.00  0.00    -0.039 SA
ATOM     18  C   UNL d   1      59.668  -2.285  29.699  0.00  0.00     0.271 A 
ATOM     19  O   UNL d   1      60.095  -1.714  30.111  0.00  0.00    -0.266 OA
BRANCH  13  20
ATOM     20  C   UNL d   1      58.380  -4.007  28.455  0.00  0.00     0.085 C 
ATOM     21  C   UNL d   1      58.627  -4.791  28.462  0.00  0.00     0.021 C 
ENDBRANCH  13  20
BRANCH  16  22
ATOM     22  C   UNL d   1      60.850  -3.076  29.544  0.00  0.00     0.085 C 
ATOM     23  C   UNL d   1      61.132  -3.796  29.827  0.00  0.00     0.021 C 
ENDBRANCH  16  22
ENDBRANCH   1  11
BRANCH   3  24
ATOM     24  C   UNL d   1      57.066  -0.943  31.408  0.00  0.00     0.323 C 
ATOM     25  O   UNL d   1      56.398  -1.424  31.362  0.00  0.00    -0.257 OA
BRANCH  24  26
ATOM     26  O   UNL d   1      57.221  -0.519  32.095  0.00  0.00    -0.270 OA
BRANCH  26  27
ATOM     27  C   UNL d   1      56.598  -0.260  32.567  0.00  0.00     0.126 C 
ATOM     28  C   UNL d   1      56.746   0.049  33.316  0.00  0.00     0.029 C 
ENDBRANCH  26  27
ENDBRANCH  24  26
ENDBRANCH   3  24
TORSDOF 6
ENDMDL
MODEL 2
REMARK VINA RESULT:      -0.8      2.166      4.271
REMARK  6 active torsions:
REMARK  status: ('A' for Active; 'I' for Inactive)
REMARK    1  A    between atoms: C_7  and  C_1 
REMARK    2  A    between atoms: C_19  and  N_2 
REMARK    3  A    between atoms: C_18  and  N_3 
REMARK    4  A    between atoms: C_13  and  C_9 
REMARK    5  A    between atoms: O_20  and  C_13 
REMARK    6  A    between atoms: C_23  and  O_20 
ROOT
ATOM      1  C   UNL d   1      58.357  -0.545  30.516  0.00  0.00     0.013 A 
ATOM      2  C   UNL d   1      59.067  -0.975  30.513  0.00  0.00     0.030 A 
ATOM      3  C   UNL d   1      59.534  -1.010  29.838  0.00  0.00     0.163 A 
ATOM      4  O   UNL d   1      59.297  -0.612  29.146  0.00  0.00    -0.302 OA
ATOM      5  C   UNL d   1      58.115  -0.146  29.832  0.00  0.00     0.023 A 
ATOM      6  C   UNL d   1      58.587  -0.180  29.146  0.00  0.00     0.100 A 
ATOM      7  C   UNL d   1      57.411   0.285  29.825  0.00  0.00     0.002 A 
ATOM      8  C   UNL d   1      58.343   0.221  28.459  0.00  0.00     0.025 A 
ATOM      9  C   UNL d   1      57.169   0.682  29.144  0.00  0.00     0.000 A 
ATOM     10  C   UNL d   1      57.640   0.650  28.455  0.00  0.00     0.002 A 
ENDROOT
BRANCH   1  11
ATOM     11  C   UNL d   1      57.891  -0.512  31.195  0.00  0.00     0.113 A 
ATOM     12  C   UNL d   1      58.040   0.068  31.766  0.00  0.00     0.271 A 
ATOM     13  N   UNL d   1      57.578   0.105  32.444  0.00  0.00    -0.250 N 
ATOM     14  O   UNL d   1      58.654   0.608  31.653  0.00  0.00    -0.266 OA
ATOM     15  C   UNL d   1      56.967  -0.434  32.555  0.00  0.00     0.196 A 
ATOM     16  N   UNL d   1      56.818  -1.014  31.983  0.00  0.00    -0.250 N 
ATOM     17  S   UNL d   1      56.499  -0.400  33.238  0.00  0.00    -0.039 SA
ATOM     18  C   UNL d   1      57.279  -1.058  31.298  0.00  0.00     0.271 A 
ATOM     19  O   UNL d   1      57.131  -1.635  30.729  0.00  0.00    -0.266 OA
BRANCH  13  20
ATOM     20  C   UNL d   1      57.726   0.682  33.014  0.00  0.00     0.085 C 
ATOM     21  C   UNL d   1      58.208   0.512  33.657  0.00  0.00     0.021 C 
ENDBRANCH  13  20
BRANCH  16  22
ATOM     22  C   UNL d   1      56.203  -1.554  32.100  0.00  0.00     0.085 C 
ATOM     23  C   UNL d   1      55.833  -1.610  32.832  0.00  0.00     0.021 C 
ENDBRANCH  16  22
ENDBRANCH   1  11
BRANCH   3  24
ATOM     24  C   UNL d   1      60.234  -1.438  29.843  0.00  0.00     0.323 C 
ATOM     25  O   UNL d   1      60.955  -1.044  29.911  0.00  0.00    -0.257 OA
BRANCH  24  26
ATOM     26  O   UNL d   1      60.218  -2.257  29.782  0.00  0.00    -0.270 OA
BRANCH  26  27
ATOM     27  C   UNL d   1      60.905  -2.669  29.593  0.00  0.00     0.126 C 
ATOM     28  C   UNL d   1      60.879  -3.482  29.463  0.00  0.00     0.029 C 
ENDBRANCH  26  27
ENDBRANCH  24  26
ENDBRANCH   3  24
TORSDOF 6
ENDMDL
MODEL 3
REMARK VINA RESULT:       1.2      1.656      2.944
REMARK  6 active torsions:
REMARK  status: ('A' for Active; 'I' for Inactive)
REMARK    1  A    between atoms: C_7  and  C_1 
REMARK    2  A    between atoms: C_19  and  N_2 
REMARK    3  A    between atoms: C_18  and  N_3 
REMARK    4  A    between atoms: C_13  and  C_9 
REMARK    5  A    between atoms: O_20  and  C_13 
REMARK    6  A    between atoms: C_23  and  O_20 
ROOT
ATOM      1  C   UNL d   1      57.587  -0.470  31.496  0.00  0.00     0.013 A 
ATOM      2  C   UNL d   1      56.819  -0.667  31.740  0.00  0.00     0.030 A 
ATOM      3  C   UNL d   1      56.559  -0.485  32.498  0.00  0.00     0.163 A 
ATOM      4  O   UNL d   1      57.068  -0.100  33.032  0.00  0.00    -0.302 OA
ATOM      5  C   UNL d   1      58.100  -0.087  32.022  0.00  0.00     0.023 A 
ATOM      6  C   UNL d   1      57.839   0.098  32.791  0.00  0.00     0.100 A 
ATOM      7  C   UNL d   1      58.867   0.113  31.790  0.00  0.00     0.002 A 
ATOM      8  C   UNL d   1      58.354   0.483  33.319  0.00  0.00     0.025 A 
ATOM      9  C   UNL d   1      59.377   0.495  32.312  0.00  0.00     0.000 A 
ATOM     10  C   UNL d   1      59.118   0.681  33.084  0.00  0.00     0.002 A 
ENDROOT
BRANCH   1  11
ATOM     11  C   UNL d   1      57.845  -0.653  30.735  0.00  0.00     0.113 A 
ATOM     12  C   UNL d   1      58.126  -1.414  30.570  0.00  0.00     0.271 A 
ATOM     13  N   UNL d   1      58.384  -1.602  29.813  0.00  0.00    -0.250 N 
ATOM     14  O   UNL d   1      58.146  -1.984  31.167  0.00  0.00    -0.266 OA
ATOM     15  C   UNL d   1      58.363  -1.033  29.220  0.00  0.00     0.196 A 
ATOM     16  N   UNL d   1      58.082  -0.272  29.385  0.00  0.00    -0.250 N 
ATOM     17  S   UNL d   1      58.623  -1.218  28.455  0.00  0.00    -0.039 SA
ATOM     18  C   UNL d   1      57.821  -0.076  30.145  0.00  0.00     0.271 A 
ATOM     19  O   UNL d   1      57.541   0.682  30.310  0.00  0.00    -0.266 OA
BRANCH  13  20
ATOM     20  C   UNL d   1      58.664  -2.359  29.648  0.00  0.00     0.085 C 
ATOM     21  C   UNL d   1      58.137  -2.986  29.574  0.00  0.00     0.021 C 
ENDBRANCH  13  20
BRANCH  16  22
ATOM     22  C   UNL d   1      58.064   0.296  28.785  0.00  0.00     0.085 C 
ATOM     23  C   UNL d   1      58.758   0.655  28.530  0.00  0.00     0.021 C 
ENDBRANCH  16  22
ENDBRANCH   1  11
BRANCH   3  24
ATOM     24  C   UNL d   1      55.797  -0.684  32.730  0.00  0.00     0.323 C 
ATOM     25  O   UNL d   1      55.572  -1.476  32.767  0.00  0.00    -0.257 OA
BRANCH  24  26
ATOM     26  O   UNL d   1      55.259  -0.094  32.926  0.00  0.00    -0.270 OA
BRANCH  26  27
ATOM     27  C   UNL d   1      54.718  -0.216  33.534  0.00  0.00     0.126 C 
ATOM     28  C   UNL d   1      54.243   0.402  33.798  0.00  0.00     0.029 C 
ENDBRANCH  26  27
ENDBRANCH  24  26
ENDBRANCH   3  24
TORSDOF 6
ENDMDL
