MODEL 1
REMARK VINA RESULT:      43.5      0.000      0.000
REMARK  4 active torsions:
REMARK  status: ('A' for Active; 'I' for Inactive)
REMARK    1  A    between atoms: C_7  and  C_1 
REMARK    2  A    between atoms: C_9  and  C_3 
REMARK    3  A    between atoms: O_13  and  C_7 
REMARK    4  A    between atoms: C_18  and  O_13 
ROOT
ATOM      1  C   UNL d   1      60.347  49.244  50.914  0.00  0.00     0.099 A 
ATOM      2  C   UNL d   1      60.893  49.197  51.512  0.00  0.00     0.093 A 
ATOM      3  C   UNL d   1      59.548  49.451  51.091  0.00  0.00     0.093 A 
ATOM      4  C   UNL d   1      59.882  49.554  52.464  0.00  0.00     0.369 A 
ATOM      5  N   UNL d   1      60.660  49.355  52.306  0.00  0.00    -0.191 NA
ATOM      6  N   UNL d   1      59.322  49.602  51.851  0.00  0.00    -0.191 NA
ATOM      7  O   UNL d   1      59.670  49.708  53.260  0.00  0.00    -0.242 OA
ATOM      8  C   UNL d   1      61.674  48.997  51.351  0.00  0.00     0.021 C 
ENDROOT
BRANCH   3   9
ATOM      9  C   UNL d   1      58.984  49.499  50.475  0.00  0.00     0.018 A 
ATOM     10  C   UNL d   1      58.170  49.379  50.648  0.00  0.00     0.002 A 
ATOM     11  C   UNL d   1      57.616  49.426  50.043  0.00  0.00     0.000 A 
ATOM     12  C   UNL d   1      57.874  49.594  49.261  0.00  0.00     0.000 A 
ATOM     13  C   UNL d   1      58.665  49.708  49.106  0.00  0.00     0.000 A 
ATOM     14  C   UNL d   1      59.225  49.660  49.719  0.00  0.00     0.002 A 
ENDBRANCH   3   9
BRANCH   1  15
ATOM     15  C   UNL d   1      60.575  49.088  50.123  0.00  0.00     0.303 C 
ATOM     16  O   UNL d   1      60.774  49.702  49.611  0.00  0.00    -0.259 OA
BRANCH  15  17
ATOM     17  O   UNL d   1      60.596  48.318  49.868  0.00  0.00    -0.271 OA
BRANCH  17  18
ATOM     18  C   UNL d   1      61.245  47.842  50.057  0.00  0.00     0.126 C 
ATOM     19  C   UNL d   1      61.262  47.067  49.827  0.00  0.00     0.029 C 
ENDBRANCH  17  18
ENDBRANCH  15  17
ENDBRANCH   1  15
TORSDOF 4
ENDMDL
MODEL 2
REMARK VINA RESULT:      46.3      1.032      2.535
REMARK  4 active torsions:
REMARK  status: ('A' for Active; 'I' for Inactive)
REMARK    1  A    between atoms: C_7  and  C_1 
REMARK    2  A    between atoms: C_9  and  C_3 
REMARK    3  A    between atoms: O_13  and  C_7 
REMARK    4  A    between atoms: C_18  and  O_13 
ROOT
ATOM      1  C   UNL d   1      59.518  49.435  51.528  0.00  0.00     0.099 A 
ATOM      2  C   UNL d   1      59.114  49.607  52.210  0.00  0.00     0.093 A 
ATOM      3  C   UNL d   1      60.356  49.337  51.550  0.00  0.00     0.093 A 
ATOM      4  C   UNL d   1      60.345  49.591  52.944  0.00  0.00     0.369 A 
ATOM      5  N   UNL d   1      59.534  49.688  52.937  0.00  0.00    -0.191 NA
ATOM      6  N   UNL d   1      60.760  49.414  52.245  0.00  0.00    -0.191 NA
ATOM      7  O   UNL d   1      60.745  49.676  53.676  0.00  0.00    -0.242 OA
ATOM      8  C   UNL d   1      58.298  49.704  52.200  0.00  0.00     0.021 C 
ENDROOT
BRANCH   3   9
ATOM      9  C   UNL d   1      60.773  49.160  50.848  0.00  0.00     0.018 A 
ATOM     10  C   UNL d   1      61.155  48.414  50.769  0.00  0.00     0.002 A 
ATOM     11  C   UNL d   1      61.564  48.239  50.079  0.00  0.00     0.000 A 
ATOM     12  C   UNL d   1      61.594  48.809  49.463  0.00  0.00     0.000 A 
ATOM     13  C   UNL d   1      61.221  49.527  49.550  0.00  0.00     0.000 A 
ATOM     14  C   UNL d   1      60.806  49.704  50.249  0.00  0.00     0.002 A 
ENDBRANCH   3   9
BRANCH   1  15
ATOM     15  C   UNL d   1      59.105  49.354  50.804  0.00  0.00     0.303 C 
ATOM     16  O   UNL d   1      59.458  49.563  50.089  0.00  0.00    -0.259 OA
BRANCH  15  17
ATOM     17  O   UNL d   1      58.347  49.064  50.817  0.00  0.00    -0.271 OA
BRANCH  17  18
ATOM     18  C   UNL d   1      57.838  49.219  50.186  0.00  0.00     0.126 C 
ATOM     19  C   UNL d   1      57.245  48.700  50.003  0.00  0.00     0.029 C 
ENDBRANCH  17  18
ENDBRANCH  15  17
ENDBRANCH   1  15
TORSDOF 4
ENDMDL
