MODEL 1
REMARK VINA RESULT:      17.4      0.000      0.000
REMARK  3 active torsions:
REMARK  status: ('A' for Active; 'I' for Inactive)
REMARK    1  A    between atoms: C_6  and  C_1 
REMARK    2  A    between atoms: C_12  and  C_6 
REMARK    3  A    between atoms: C_9  and  C_10 
ROOT
ATOM      1  C   UNL d   1      45.566 -15.549  44.711  0.00  0.00     0.139 A 
ATOM      2  C   UNL d   1      44.987 -14.395  44.385  0.00  0.00     0.064 A 
ATOM      3  C   UNL d   1      44.839 -15.161  44.650  0.00  0.00     0.220 A 
ATOM      4  C   UNL d   1      45.801 -14.306  44.282  0.00  0.00     0.106 A 
ATOM      5  O   UNL d   1      46.159 -15.023  44.484  0.00  0.00    -0.304 OA
ATOM      6  C   UNL d   1      46.099 -13.592  44.021  0.00  0.00     0.067 A 
ATOM      7  C   UNL d   1      44.479 -13.767  44.226  0.00  0.00     0.009 A 
ATOM      8  O   UNL d   1      44.102 -15.490  44.824  0.00  0.00    -0.284 OA
ATOM      9  C   UNL d   1      45.591 -12.963  43.862  0.00  0.00     0.198 A 
ATOM     10  C   UNL d   1      44.785 -13.052  43.964  0.00  0.00     0.042 A 
ATOM     11  O   UNL d   1      45.897 -12.245  43.599  0.00  0.00    -0.286 OA
ENDROOT
BRANCH   1  12
ATOM     12  C   UNL d   1      45.683 -16.328  44.955  0.00  0.00     0.028 C 
BRANCH  12  13
ATOM     13  C   UNL d   1      45.873 -16.919  44.406  0.00  0.00     0.002 A 
ATOM     14  C   UNL d   1      46.276 -17.587  44.660  0.00  0.00    -0.000 A 
ATOM     15  C   UNL d   1      46.470 -18.179  44.128  0.00  0.00    -0.004 A 
ATOM     16  C   UNL d   1      46.257 -18.102  43.326  0.00  0.00    -0.023 A 
ATOM     17  C   UNL d   1      45.851 -17.427  43.073  0.00  0.00    -0.004 A 
ATOM     18  C   UNL d   1      45.661 -16.836  43.621  0.00  0.00    -0.000 A 
BRANCH  16  19
ATOM     19  C   UNL d   1      46.453 -18.701  42.783  0.00  0.00     0.019 C 
ATOM     20  C   UNL d   1      46.647 -19.289  42.247  0.00  0.00     0.004 C 
ATOM     21  C   UNL d   1      46.288 -19.272  43.359  0.00  0.00     0.004 C 
ATOM     22  C   UNL d   1      46.615 -18.123  42.219  0.00  0.00     0.004 C 
ENDBRANCH  16  19
ENDBRANCH  12  13
ENDBRANCH   1  12
TORSDOF 3
ENDMDL
