MODEL 1
REMARK VINA RESULT:      -2.7      0.000      0.000
REMARK  4 active torsions:
REMARK  status: ('A' for Active; 'I' for Inactive)
REMARK    1  A    between atoms: C_7  and  N_1 
REMARK    2  A    between atoms: C_9  and  C_7 
REMARK       I    between atoms: N_16  and  C_9 
REMARK    3  A    between atoms: C_21  and  N_16 
REMARK    4  A    between atoms: C_20  and  C_21 
ROOT
ATOM      1  C   UNL d   1      56.997   0.616  32.179  0.00  0.00     0.146 C 
ENDROOT
BRANCH   1   2
ATOM      2  N   UNL d   1      56.477   0.630  32.812  0.00  0.00    -0.269 N 
ATOM      3  C   UNL d   1      55.674   0.624  32.646  0.00  0.00     0.265 A 
ATOM      4  C   UNL d   1      55.038   0.637  33.231  0.00  0.00     0.068 A 
ATOM      5  O   UNL d   1      55.457   0.604  31.837  0.00  0.00    -0.267 OA
ATOM      6  C   UNL d   1      55.108   0.657  34.079  0.00  0.00     0.034 A 
ATOM      7  C   UNL d   1      54.415   0.666  34.503  0.00  0.00     0.007 C 
ATOM      8  S   UNL d   1      55.803   0.670  34.515  0.00  0.00    -0.085 SA
ATOM      9  C   UNL d   1      56.450   0.665  34.248  0.00  0.00     0.046 A 
ATOM     10  C   UNL d   1      56.778   0.647  33.473  0.00  0.00     0.073 A 
ATOM     11  C   UNL d   1      56.965   0.682  34.911  0.00  0.00     0.008 A 
ATOM     12  C   UNL d   1      57.602   0.646  33.361  0.00  0.00     0.018 A 
ATOM     13  C   UNL d   1      58.109   0.663  34.021  0.00  0.00     0.002 A 
ATOM     14  C   UNL d   1      57.789   0.681  34.799  0.00  0.00     0.001 A 
ENDBRANCH   1   2
BRANCH   1  15
ATOM     15  C   UNL d   1      57.044  -0.060  31.714  0.00  0.00     0.297 C 
ATOM     16  N   UNL d   1      57.534  -0.092  31.064  0.00  0.00    -0.205 NA
ATOM     17  O   UNL d   1      56.591  -0.713  31.911  0.00  0.00    -0.264 OA
BRANCH  16  18
ATOM     18  C   UNL d   1      57.577  -0.761  30.609  0.00  0.00     0.102 C 
BRANCH  18  19
ATOM     19  C   UNL d   1      58.177  -0.848  30.061  0.00  0.00     0.021 A 
ATOM     20  C   UNL d   1      58.495  -1.595  29.926  0.00  0.00     0.028 A 
ATOM     21  C   UNL d   1      59.104  -1.682  29.369  0.00  0.00     0.119 A 
ATOM     22  O   UNL d   1      59.522  -2.323  29.116  0.00  0.00    -0.300 OA
ATOM     23  C   UNL d   1      59.375  -1.027  28.966  0.00  0.00     0.119 A 
ATOM     24  C   UNL d   1      60.057  -2.076  28.553  0.00  0.00     0.304 A 
ATOM     25  O   UNL d   1      59.971  -1.272  28.456  0.00  0.00    -0.300 OA
ATOM     26  C   UNL d   1      59.046  -0.284  29.112  0.00  0.00     0.026 A 
ATOM     27  C   UNL d   1      58.446  -0.205  29.663  0.00  0.00     0.004 A 
ENDBRANCH  18  19
ENDBRANCH  16  18
ENDBRANCH   1  15
TORSDOF 4
ENDMDL
MODEL 2
REMARK VINA RESULT:      -0.2      1.389      1.953
REMARK  4 active torsions:
REMARK  status: ('A' for Active; 'I' for Inactive)
REMARK    1  A    between atoms: C_7  and  N_1 
REMARK    2  A    between atoms: C_9  and  C_7 
REMARK       I    between atoms: N_16  and  C_9 
REMARK    3  A    between atoms: C_21  and  N_16 
REMARK    4  A    between atoms: C_20  and  C_21 
ROOT
ATOM      1  C   UNL d   1      57.207  -0.639  32.110  0.00  0.00     0.146 C 
ENDROOT
BRANCH   1   2
ATOM      2  N   UNL d   1      56.730  -0.424  32.740  0.00  0.00    -0.269 N 
ATOM      3  C   UNL d   1      56.922   0.260  33.147  0.00  0.00     0.265 A 
ATOM      4  C   UNL d   1      56.493   0.582  33.825  0.00  0.00     0.068 A 
ATOM      5  O   UNL d   1      57.595   0.682  32.879  0.00  0.00    -0.267 OA
ATOM      6  C   UNL d   1      55.798   0.264  34.202  0.00  0.00     0.034 A 
ATOM      7  C   UNL d   1      55.503   0.681  34.834  0.00  0.00     0.007 C 
ATOM      8  S   UNL d   1      55.394  -0.418  33.994  0.00  0.00    -0.085 SA
ATOM      9  C   UNL d   1      55.565  -0.846  33.467  0.00  0.00     0.046 A 
ATOM     10  C   UNL d   1      56.171  -0.866  32.883  0.00  0.00     0.073 A 
ATOM     11  C   UNL d   1      54.990  -1.457  33.481  0.00  0.00     0.008 A 
ATOM     12  C   UNL d   1      56.203  -1.482  32.325  0.00  0.00     0.018 A 
ATOM     13  C   UNL d   1      55.631  -2.086  32.342  0.00  0.00     0.002 A 
ATOM     14  C   UNL d   1      55.021  -2.073  32.923  0.00  0.00     0.001 A 
ENDBRANCH   1   2
BRANCH   1  15
ATOM     15  C   UNL d   1      57.263  -0.138  31.460  0.00  0.00     0.297 C 
ATOM     16  N   UNL d   1      57.901  -0.172  30.954  0.00  0.00    -0.205 NA
ATOM     17  O   UNL d   1      56.666   0.405  31.321  0.00  0.00    -0.264 OA
BRANCH  16  18
ATOM     18  C   UNL d   1      57.951   0.324  30.316  0.00  0.00     0.102 C 
BRANCH  18  19
ATOM     19  C   UNL d   1      58.601   0.294  29.821  0.00  0.00     0.021 A 
ATOM     20  C   UNL d   1      59.277  -0.106  30.066  0.00  0.00     0.028 A 
ATOM     21  C   UNL d   1      59.936  -0.135  29.562  0.00  0.00     0.119 A 
ATOM     22  O   UNL d   1      60.663  -0.474  29.638  0.00  0.00    -0.300 OA
ATOM     23  C   UNL d   1      59.901   0.232  28.835  0.00  0.00     0.119 A 
ATOM     24  C   UNL d   1      61.089  -0.322  28.960  0.00  0.00     0.304 A 
ATOM     25  O   UNL d   1      60.622   0.116  28.458  0.00  0.00    -0.300 OA
ATOM     26  C   UNL d   1      59.216   0.630  28.603  0.00  0.00     0.026 A 
ATOM     27  C   UNL d   1      58.570   0.655  29.104  0.00  0.00     0.004 A 
ENDBRANCH  18  19
ENDBRANCH  16  18
ENDBRANCH   1  15
TORSDOF 4
ENDMDL
