MODEL 1
REMARK VINA RESULT:      17.0      0.000      0.000
REMARK  1 active torsions:
REMARK  status: ('A' for Active; 'I' for Inactive)
REMARK    1  A    between atoms: C_4  and  N_1 
ROOT
ATOM      1  N   UNL d   1      57.327  49.658  50.316  0.00  0.00    -0.240 N 
ATOM      2  C   UNL d   1      56.812  49.673  50.965  0.00  0.00     0.267 A 
ATOM      3  C   UNL d   1      56.860  49.627  49.630  0.00  0.00     0.267 A 
ATOM      4  C   UNL d   1      56.070  49.624  49.859  0.00  0.00     0.066 A 
ATOM      5  C   UNL d   1      56.035  49.652  50.683  0.00  0.00     0.066 A 
ATOM      6  O   UNL d   1      57.041  49.704  51.763  0.00  0.00    -0.267 OA
ATOM      7  O   UNL d   1      57.151  49.605  48.859  0.00  0.00    -0.267 OA
ENDROOT
BRANCH   1   8
ATOM      8  C   UNL d   1      58.151  49.672  50.346  0.00  0.00     0.097 A 
ATOM      9  C   UNL d   1      58.584  49.694  49.645  0.00  0.00     0.156 A 
ATOM     10  F   UNL d   1      58.193  49.703  48.917  0.00  0.00    -0.203 F 
ATOM     11  C   UNL d   1      59.409  49.708  49.670  0.00  0.00     0.031 A 
ATOM     12  C   UNL d   1      59.792  49.699  50.402  0.00  0.00     0.002 A 
ATOM     13  C   UNL d   1      59.354  49.676  51.102  0.00  0.00     0.002 A 
ATOM     14  C   UNL d   1      58.530  49.663  51.069  0.00  0.00     0.020 A 
ENDBRANCH   1   8
TORSDOF 1
ENDMDL
MODEL 2
REMARK VINA RESULT:      17.6      1.062      2.570
REMARK  1 active torsions:
REMARK  status: ('A' for Active; 'I' for Inactive)
REMARK    1  A    between atoms: C_4  and  N_1 
ROOT
ATOM      1  N   UNL d   1      58.415  49.678  50.394  0.00  0.00    -0.240 N 
ATOM      2  C   UNL d   1      58.642  49.687  51.191  0.00  0.00     0.267 A 
ATOM      3  C   UNL d   1      59.110  49.669  49.938  0.00  0.00     0.267 A 
ATOM      4  C   UNL d   1      59.752  49.672  50.453  0.00  0.00     0.066 A 
ATOM      5  C   UNL d   1      59.468  49.683  51.228  0.00  0.00     0.066 A 
ATOM      6  O   UNL d   1      58.124  49.698  51.840  0.00  0.00    -0.267 OA
ATOM      7  O   UNL d   1      59.137  49.658  49.115  0.00  0.00    -0.267 OA
ENDROOT
BRANCH   1   8
ATOM      8  C   UNL d   1      57.642  49.679  50.105  0.00  0.00     0.097 A 
ATOM      9  C   UNL d   1      57.009  49.651  50.632  0.00  0.00     0.156 A 
ATOM     10  F   UNL d   1      57.150  49.622  51.447  0.00  0.00    -0.203 F 
ATOM     11  C   UNL d   1      56.235  49.651  50.348  0.00  0.00     0.031 A 
ATOM     12  C   UNL d   1      56.104  49.680  49.532  0.00  0.00     0.002 A 
ATOM     13  C   UNL d   1      56.741  49.708  49.007  0.00  0.00     0.002 A 
ATOM     14  C   UNL d   1      57.512  49.707  49.300  0.00  0.00     0.020 A 
ENDBRANCH   1   8
TORSDOF 1
ENDMDL
MODEL 3
REMARK VINA RESULT:      18.6      1.423      2.761
REMARK  1 active torsions:
REMARK  status: ('A' for Active; 'I' for Inactive)
REMARK    1  A    between atoms: C_4  and  N_1 
ROOT
ATOM      1  N   UNL d   1      59.657  49.682  50.729  0.00  0.00    -0.240 N 
ATOM      2  C   UNL d   1      60.106  49.683  51.426  0.00  0.00     0.267 A 
ATOM      3  C   UNL d   1      60.190  49.683  50.091  0.00  0.00     0.267 A 
ATOM      4  C   UNL d   1      60.953  49.685  50.397  0.00  0.00     0.066 A 
ATOM      5  C   UNL d   1      60.907  49.685  51.221  0.00  0.00     0.066 A 
ATOM      6  O   UNL d   1      59.799  49.682  52.198  0.00  0.00    -0.267 OA
ATOM      7  O   UNL d   1      59.976  49.683  49.295  0.00  0.00    -0.267 OA
ENDROOT
BRANCH   1   8
ATOM      8  C   UNL d   1      58.834  49.680  50.677  0.00  0.00     0.097 A 
ATOM      9  C   UNL d   1      58.471  49.659  49.938  0.00  0.00     0.156 A 
ATOM     10  F   UNL d   1      58.933  49.640  49.251  0.00  0.00    -0.203 F 
ATOM     11  C   UNL d   1      57.648  49.657  49.881  0.00  0.00     0.031 A 
ATOM     12  C   UNL d   1      57.195  49.675  50.572  0.00  0.00     0.002 A 
ATOM     13  C   UNL d   1      57.562  49.696  51.312  0.00  0.00     0.002 A 
ATOM     14  C   UNL d   1      58.386  49.698  51.360  0.00  0.00     0.020 A 
ENDBRANCH   1   8
TORSDOF 1
ENDMDL
