MODEL 1
REMARK VINA RESULT:      -8.5      0.000      0.000
REMARK  3 active torsions:
REMARK  status: ('A' for Active; 'I' for Inactive)
REMARK    1  A    between atoms: C_3  and  C_1 
REMARK       I    between atoms: N_4  and  C_1 
REMARK    2  A    between atoms: N_2  and  C_7 
REMARK    3  A    between atoms: C_16  and  N_4 
ROOT
ATOM      1  C   UNL d   1      52.043  34.394  53.432  0.00  0.00     0.064 A 
ATOM      2  C   UNL d   1      52.028  34.003  54.162  0.00  0.00     0.019 A 
ATOM      3  C   UNL d   1      52.734  34.800  53.208  0.00  0.00     0.019 A 
ATOM      4  C   UNL d   1      53.367  34.420  54.433  0.00  0.00     0.085 A 
ATOM      5  C   UNL d   1      52.687  34.016  54.660  0.00  0.00     0.021 A 
ATOM      6  C   UNL d   1      53.393  34.814  53.706  0.00  0.00     0.021 A 
ENDROOT
BRANCH   4   7
ATOM      7  N   UNL d   1      54.025  34.433  54.931  0.00  0.00    -0.208 NA
ATOM      8  C   UNL d   1      54.548  33.806  54.939  0.00  0.00     0.285 C 
ATOM      9  O   UNL d   1      55.207  33.819  55.437  0.00  0.00    -0.265 OA
BRANCH   8  10
ATOM     10  C   UNL d   1      54.415  33.158  54.449  0.00  0.00     0.087 A 
ATOM     11  S   UNL d   1      53.915  32.512  54.508  0.00  0.00    -0.082 SA
ATOM     12  C   UNL d   1      54.018  32.039  53.851  0.00  0.00     0.036 A 
ATOM     13  C   UNL d   1      54.593  32.389  53.368  0.00  0.00     0.008 A 
ATOM     14  C   UNL d   1      54.835  33.082  53.743  0.00  0.00     0.012 A 
ENDBRANCH   8  10
ENDBRANCH   4   7
BRANCH   1  15
ATOM     15  N   UNL d   1      51.384  34.380  52.933  0.00  0.00    -0.301 N 
ATOM     16  C   UNL d   1      50.641  34.548  53.228  0.00  0.00     0.100 A 
ATOM     17  C   UNL d   1      49.983  34.535  52.731  0.00  0.00     0.100 A 
ATOM     18  N   UNL d   1      50.068  34.354  51.938  0.00  0.00    -0.299 N 
ATOM     19  C   UNL d   1      50.816  34.184  51.638  0.00  0.00     0.100 A 
ATOM     20  C   UNL d   1      49.411  34.341  51.442  0.00  0.00     0.100 C 
ATOM     21  C   UNL d   1      51.474  34.197  52.136  0.00  0.00     0.100 A 
ENDBRANCH   1  15
TORSDOF 3
ENDMDL
MODEL 2
REMARK VINA RESULT:      -7.8      2.001      3.549
REMARK  3 active torsions:
REMARK  status: ('A' for Active; 'I' for Inactive)
REMARK    1  A    between atoms: C_3  and  C_1 
REMARK       I    between atoms: N_4  and  C_1 
REMARK    2  A    between atoms: N_2  and  C_7 
REMARK    3  A    between atoms: C_16  and  N_4 
ROOT
ATOM      1  C   UNL d   1      53.555  32.054  53.883  0.00  0.00     0.064 A 
ATOM      2  C   UNL d   1      53.315  32.374  54.609  0.00  0.00     0.019 A 
ATOM      3  C   UNL d   1      53.968  32.540  53.348  0.00  0.00     0.019 A 
ATOM      4  C   UNL d   1      53.891  33.635  54.264  0.00  0.00     0.085 A 
ATOM      5  C   UNL d   1      53.482  33.161  54.799  0.00  0.00     0.021 A 
ATOM      6  C   UNL d   1      54.135  33.326  53.537  0.00  0.00     0.021 A 
ENDROOT
BRANCH   4   7
ATOM      7  N   UNL d   1      54.058  34.421  54.454  0.00  0.00    -0.208 NA
ATOM      8  C   UNL d   1      53.536  35.014  54.249  0.00  0.00     0.285 C 
ATOM      9  O   UNL d   1      53.703  35.800  54.439  0.00  0.00    -0.265 OA
BRANCH   8  10
ATOM     10  C   UNL d   1      52.839  34.825  53.851  0.00  0.00     0.087 A 
ATOM     11  S   UNL d   1      52.117  34.534  54.107  0.00  0.00    -0.082 SA
ATOM     12  C   UNL d   1      51.624  34.452  53.462  0.00  0.00     0.036 A 
ATOM     13  C   UNL d   1      52.039  34.694  52.787  0.00  0.00     0.008 A 
ATOM     14  C   UNL d   1      52.791  34.924  53.034  0.00  0.00     0.012 A 
ENDBRANCH   8  10
ENDBRANCH   4   7
BRANCH   1  15
ATOM     15  N   UNL d   1      53.387  31.268  53.693  0.00  0.00    -0.301 N 
ATOM     16  C   UNL d   1      53.687  30.661  54.150  0.00  0.00     0.100 A 
ATOM     17  C   UNL d   1      53.520  29.875  53.961  0.00  0.00     0.100 A 
ATOM     18  N   UNL d   1      53.053  29.697  53.314  0.00  0.00    -0.299 N 
ATOM     19  C   UNL d   1      52.749  30.307  52.852  0.00  0.00     0.100 A 
ATOM     20  C   UNL d   1      52.887  28.912  53.125  0.00  0.00     0.100 C 
ATOM     21  C   UNL d   1      52.916  31.092  53.041  0.00  0.00     0.100 A 
ENDBRANCH   1  15
TORSDOF 3
ENDMDL
MODEL 3
REMARK VINA RESULT:      -7.4      1.394      2.281
REMARK  3 active torsions:
REMARK  status: ('A' for Active; 'I' for Inactive)
REMARK    1  A    between atoms: C_3  and  C_1 
REMARK       I    between atoms: N_4  and  C_1 
REMARK    2  A    between atoms: N_2  and  C_7 
REMARK    3  A    between atoms: C_16  and  N_4 
ROOT
ATOM      1  C   UNL d   1      50.586  34.154  52.671  0.00  0.00     0.064 A 
ATOM      2  C   UNL d   1      51.234  34.292  52.173  0.00  0.00     0.019 A 
ATOM      3  C   UNL d   1      50.666  33.603  53.290  0.00  0.00     0.019 A 
ATOM      4  C   UNL d   1      52.018  33.346  52.901  0.00  0.00     0.085 A 
ATOM      5  C   UNL d   1      51.946  33.890  52.287  0.00  0.00     0.021 A 
ATOM      6  C   UNL d   1      51.378  33.201  53.404  0.00  0.00     0.021 A 
ENDROOT
BRANCH   4   7
ATOM      7  N   UNL d   1      52.730  32.944  53.015  0.00  0.00    -0.208 NA
ATOM      8  C   UNL d   1      53.318  33.271  53.478  0.00  0.00     0.285 C 
ATOM      9  O   UNL d   1      54.030  32.869  53.592  0.00  0.00    -0.265 OA
BRANCH   8  10
ATOM     10  C   UNL d   1      53.198  34.005  53.831  0.00  0.00     0.087 A 
ATOM     11  S   UNL d   1      53.186  34.768  53.532  0.00  0.00    -0.082 SA
ATOM     12  C   UNL d   1      53.040  35.287  54.144  0.00  0.00     0.036 A 
ATOM     13  C   UNL d   1      52.958  34.849  54.842  0.00  0.00     0.008 A 
ATOM     14  C   UNL d   1      53.057  34.055  54.642  0.00  0.00     0.012 A 
ENDBRANCH   8  10
ENDBRANCH   4   7
BRANCH   1  15
ATOM     15  N   UNL d   1      49.873  34.557  52.557  0.00  0.00    -0.301 N 
ATOM     16  C   UNL d   1      49.568  35.030  53.148  0.00  0.00     0.100 A 
ATOM     17  C   UNL d   1      48.857  35.432  53.034  0.00  0.00     0.100 A 
ATOM     18  N   UNL d   1      48.451  35.360  52.328  0.00  0.00    -0.299 N 
ATOM     19  C   UNL d   1      48.756  34.883  51.730  0.00  0.00     0.100 A 
ATOM     20  C   UNL d   1      47.740  35.762  52.214  0.00  0.00     0.100 C 
ATOM     21  C   UNL d   1      49.468  34.481  51.844  0.00  0.00     0.100 A 
ENDBRANCH   1  15
TORSDOF 3
ENDMDL
