MODEL 1
REMARK VINA RESULT:      35.1      0.000      0.000
REMARK  5 active torsions:
REMARK  status: ('A' for Active; 'I' for Inactive)
REMARK    1  A    between atoms: N_3  and  S_1 
REMARK    2  A    between atoms: C_5  and  S_1 
REMARK    3  A    between atoms: C_2  and  C_6 
REMARK       I    between atoms: N_4  and  C_2 
REMARK    4  A    between atoms: C_11  and  N_3 
REMARK    5  A    between atoms: O_18  and  C_14 
ROOT
ATOM      1  C   UNL d   1      14.261  12.248  -1.277  0.00  0.00     0.058 A 
ATOM      2  C   UNL d   1      14.275  12.942  -0.838  0.00  0.00     0.025 A 
ATOM      3  C   UNL d   1      14.964  13.183  -0.452  0.00  0.00     0.094 A 
ATOM      4  C   UNL d   1      14.950  11.780  -1.332  0.00  0.00     0.005 A 
ATOM      5  C   UNL d   1      15.639  12.021  -0.946  0.00  0.00     0.002 A 
ATOM      6  C   UNL d   1      15.651  12.719  -0.506  0.00  0.00     0.020 A 
ENDROOT
BRANCH   3   7
ATOM      7  N   UNL d   1      14.977  13.878  -0.014  0.00  0.00    -0.158 NA
BRANCH   7   8
ATOM      8  S   UNL d   1      15.064  14.605  -0.384  0.00  0.00     0.285 S 
ATOM      9  O   UNL d   1      15.853  14.426  -0.549  0.00  0.00    -0.198 OA
ATOM     10  O   UNL d   1      14.285  14.792  -0.226  0.00  0.00    -0.198 OA
BRANCH   8  11
ATOM     11  C   UNL d   1      15.157  15.334  -0.757  0.00  0.00     0.107 A 
ATOM     12  C   UNL d   1      14.866  15.449  -1.527  0.00  0.00     0.037 A 
ATOM     13  C   UNL d   1      14.961  16.175  -1.891  0.00  0.00     0.095 A 
ATOM     14  C   UNL d   1      15.343  16.789  -1.498  0.00  0.00     0.024 A 
ATOM     15  C   UNL d   1      15.631  16.683  -0.741  0.00  0.00     0.003 A 
ATOM     16  C   UNL d   1      15.538  15.954  -0.369  0.00  0.00     0.013 A 
BRANCH  13  17
ATOM     17  O   UNL d   1      14.669  16.293  -2.665  0.00  0.00    -0.328 OA
ATOM     18  C   UNL d   1      14.904  16.968  -3.106  0.00  0.00     0.181 C 
ENDBRANCH  13  17
ENDBRANCH   8  11
ENDBRANCH   7   8
ENDBRANCH   3   7
BRANCH   1  19
ATOM     19  C   UNL d   1      13.571  12.015  -1.659  0.00  0.00     0.265 C 
ATOM     20  N   UNL d   1      13.538  12.018  -2.487  0.00  0.00    -0.268 N 
ATOM     21  C   UNL d   1      12.845  11.784  -2.872  0.00  0.00     0.110 A 
ATOM     22  C   UNL d   1      14.194  12.253  -2.921  0.00  0.00     0.110 A 
ATOM     23  C   UNL d   1      12.817  11.788  -3.694  0.00  0.00     0.142 A 
ATOM     24  O   UNL d   1      13.473  12.023  -4.128  0.00  0.00    -0.300 OA
ATOM     25  C   UNL d   1      14.164  12.257  -3.753  0.00  0.00     0.142 A 
ATOM     26  O   UNL d   1      12.915  11.780  -1.224  0.00  0.00    -0.267 OA
ENDBRANCH   1  19
TORSDOF 5
ENDMDL
