MODEL 1
REMARK VINA RESULT:      -8.8      0.000      0.000
REMARK  7 active torsions:
REMARK  status: ('A' for Active; 'I' for Inactive)
REMARK    1  A    between atoms: N_2  and  S_1 
REMARK    2  A    between atoms: C_3  and  S_1 
REMARK    3  A    between atoms: C_4  and  C_7 
REMARK       I    between atoms: N_5  and  C_4 
REMARK    4  A    between atoms: C_15  and  N_5 
REMARK    5  A    between atoms: C_6  and  C_11 
REMARK    6  A    between atoms: O_20  and  C_6 
REMARK    7  A    between atoms: C_28  and  O_20 
ROOT
ATOM      1  C   UNL d   1      52.524  33.063  53.173  0.00  0.00     0.104 A 
ATOM      2  C   UNL d   1      51.477  34.016  52.955  0.00  0.00     0.059 A 
ATOM      3  C   UNL d   1      51.736  33.253  53.016  0.00  0.00     0.018 A 
ATOM      4  C   UNL d   1      53.089  33.708  53.275  0.00  0.00     0.013 A 
ATOM      5  C   UNL d   1      52.042  34.660  53.057  0.00  0.00     0.005 A 
ATOM      6  C   UNL d   1      52.815  34.484  53.211  0.00  0.00     0.001 A 
ENDROOT
BRANCH   2   7
ATOM      7  C   UNL d   1      50.686  34.173  52.797  0.00  0.00     0.279 C 
ATOM      8  N   UNL d   1      50.471  34.616  52.144  0.00  0.00    -0.208 NA
ATOM      9  O   UNL d   1      50.050  33.903  53.275  0.00  0.00    -0.265 OA
BRANCH   8  10
ATOM     10  C   UNL d   1      49.665  34.779  51.980  0.00  0.00     0.085 A 
ATOM     11  C   UNL d   1      49.196  35.200  52.542  0.00  0.00     0.019 A 
ATOM     12  C   UNL d   1      48.366  35.354  52.345  0.00  0.00     0.007 A 
ATOM     13  C   UNL d   1      48.042  35.083  51.603  0.00  0.00     0.064 A 
ATOM     14  C   UNL d   1      48.511  34.672  51.062  0.00  0.00     0.007 A 
ATOM     15  C   UNL d   1      49.327  34.511  51.235  0.00  0.00     0.019 A 
BRANCH  13  16
ATOM     16  C   UNL d   1      47.265  35.219  51.404  0.00  0.00     0.300 C 
ATOM     17  O   UNL d   1      46.898  34.862  50.787  0.00  0.00    -0.259 OA
BRANCH  16  18
ATOM     18  O   UNL d   1      46.766  35.732  51.802  0.00  0.00    -0.271 OA
BRANCH  18  19
ATOM     19  C   UNL d   1      45.995  35.822  51.555  0.00  0.00     0.126 C 
ATOM     20  C   UNL d   1      45.505  36.306  51.958  0.00  0.00     0.029 C 
ENDBRANCH  18  19
ENDBRANCH  16  18
ENDBRANCH  13  16
ENDBRANCH   8  10
ENDBRANCH   2   7
BRANCH   1  21
ATOM     21  S   UNL d   1      52.771  32.276  53.233  0.00  0.00     0.272 S 
ATOM     22  O   UNL d   1      52.862  32.344  54.065  0.00  0.00    -0.200 OA
ATOM     23  O   UNL d   1      52.687  32.191  52.420  0.00  0.00    -0.200 OA
BRANCH  21  24
ATOM     24  N   UNL d   1      53.014  31.496  53.280  0.00  0.00    -0.225 N 
ATOM     25  C   UNL d   1      52.595  30.921  52.896  0.00  0.00     0.118 A 
ATOM     26  C   UNL d   1      52.826  30.137  52.934  0.00  0.00     0.142 A 
ATOM     27  O   UNL d   1      53.484  29.926  53.360  0.00  0.00    -0.300 OA
ATOM     28  C   UNL d   1      53.922  30.515  53.760  0.00  0.00     0.142 A 
ATOM     29  C   UNL d   1      53.685  31.299  53.717  0.00  0.00     0.118 A 
ENDBRANCH  21  24
ENDBRANCH   1  21
TORSDOF 7
ENDMDL
MODEL 2
REMARK VINA RESULT:      -8.3      0.836      1.129
REMARK  7 active torsions:
REMARK  status: ('A' for Active; 'I' for Inactive)
REMARK    1  A    between atoms: N_2  and  S_1 
REMARK    2  A    between atoms: C_3  and  S_1 
REMARK    3  A    between atoms: C_4  and  C_7 
REMARK       I    between atoms: N_5  and  C_4 
REMARK    4  A    between atoms: C_15  and  N_5 
REMARK    5  A    between atoms: C_6  and  C_11 
REMARK    6  A    between atoms: O_20  and  C_6 
REMARK    7  A    between atoms: C_28  and  O_20 
ROOT
ATOM      1  C   UNL d   1      53.059  32.558  53.397  0.00  0.00     0.104 A 
ATOM      2  C   UNL d   1      52.368  33.772  53.081  0.00  0.00     0.059 A 
ATOM      3  C   UNL d   1      52.395  32.966  53.125  0.00  0.00     0.018 A 
ATOM      4  C   UNL d   1      53.749  33.015  53.644  0.00  0.00     0.013 A 
ATOM      5  C   UNL d   1      53.057  34.229  53.327  0.00  0.00     0.005 A 
ATOM      6  C   UNL d   1      53.712  33.839  53.596  0.00  0.00     0.001 A 
ENDROOT
BRANCH   2   7
ATOM      7  C   UNL d   1      51.692  34.149  52.805  0.00  0.00     0.279 C 
ATOM      8  N   UNL d   1      50.949  33.897  53.038  0.00  0.00    -0.208 NA
ATOM      9  O   UNL d   1      51.702  34.804  52.279  0.00  0.00    -0.265 OA
BRANCH   8  10
ATOM     10  C   UNL d   1      50.258  34.280  52.759  0.00  0.00     0.085 A 
ATOM     11  C   UNL d   1      49.862  34.846  53.244  0.00  0.00     0.019 A 
ATOM     12  C   UNL d   1      49.149  35.225  52.929  0.00  0.00     0.007 A 
ATOM     13  C   UNL d   1      48.864  35.025  52.150  0.00  0.00     0.064 A 
ATOM     14  C   UNL d   1      49.259  34.469  51.685  0.00  0.00     0.007 A 
ATOM     15  C   UNL d   1      49.960  34.085  51.974  0.00  0.00     0.019 A 
BRANCH  13  16
ATOM     16  C   UNL d   1      48.196  35.372  51.841  0.00  0.00     0.300 C 
ATOM     17  O   UNL d   1      47.943  35.249  51.090  0.00  0.00    -0.259 OA
BRANCH  16  18
ATOM     18  O   UNL d   1      47.705  35.884  52.250  0.00  0.00    -0.271 OA
BRANCH  18  19
ATOM     19  C   UNL d   1      47.007  36.134  51.912  0.00  0.00     0.126 C 
ATOM     20  C   UNL d   1      46.498  36.577  52.340  0.00  0.00     0.029 C 
ENDBRANCH  18  19
ENDBRANCH  16  18
ENDBRANCH  13  16
ENDBRANCH   8  10
ENDBRANCH   2   7
BRANCH   1  21
ATOM     21  S   UNL d   1      53.069  31.732  53.435  0.00  0.00     0.272 S 
ATOM     22  O   UNL d   1      53.150  31.749  54.272  0.00  0.00    -0.200 OA
ATOM     23  O   UNL d   1      52.989  31.696  52.619  0.00  0.00    -0.200 OA
BRANCH  21  24
ATOM     24  N   UNL d   1      53.077  30.914  53.461  0.00  0.00    -0.225 N 
ATOM     25  C   UNL d   1      53.495  30.535  54.040  0.00  0.00     0.118 A 
ATOM     26  C   UNL d   1      53.512  29.718  54.078  0.00  0.00     0.142 A 
ATOM     27  O   UNL d   1      53.107  29.275  53.532  0.00  0.00    -0.300 OA
ATOM     28  C   UNL d   1      52.672  29.660  52.930  0.00  0.00     0.142 A 
ATOM     29  C   UNL d   1      52.659  30.480  52.898  0.00  0.00     0.118 A 
ENDBRANCH  21  24
ENDBRANCH   1  21
TORSDOF 7
ENDMDL
MODEL 3
REMARK VINA RESULT:      -8.2      1.598      2.308
REMARK  7 active torsions:
REMARK  status: ('A' for Active; 'I' for Inactive)
REMARK    1  A    between atoms: N_2  and  S_1 
REMARK    2  A    between atoms: C_3  and  S_1 
REMARK    3  A    between atoms: C_4  and  C_7 
REMARK       I    between atoms: N_5  and  C_4 
REMARK    4  A    between atoms: C_15  and  N_5 
REMARK    5  A    between atoms: C_6  and  C_11 
REMARK    6  A    between atoms: O_20  and  C_6 
REMARK    7  A    between atoms: C_28  and  O_20 
ROOT
ATOM      1  C   UNL d   1      53.290  32.584  53.699  0.00  0.00     0.104 A 
ATOM      2  C   UNL d   1      51.982  32.626  53.117  0.00  0.00     0.059 A 
ATOM      3  C   UNL d   1      52.568  32.961  53.561  0.00  0.00     0.018 A 
ATOM      4  C   UNL d   1      53.418  31.803  53.355  0.00  0.00     0.013 A 
ATOM      5  C   UNL d   1      52.111  31.845  52.772  0.00  0.00     0.005 A 
ATOM      6  C   UNL d   1      52.814  31.469  52.902  0.00  0.00     0.001 A 
ENDROOT
BRANCH   2   7
ATOM      7  C   UNL d   1      51.274  33.026  52.996  0.00  0.00     0.279 C 
ATOM      8  N   UNL d   1      51.252  33.709  52.548  0.00  0.00    -0.208 NA
ATOM      9  O   UNL d   1      50.536  32.778  53.311  0.00  0.00    -0.265 OA
BRANCH   8  10
ATOM     10  C   UNL d   1      50.532  34.120  52.423  0.00  0.00     0.085 A 
ATOM     11  C   UNL d   1      50.188  34.570  53.049  0.00  0.00     0.019 A 
ATOM     12  C   UNL d   1      49.443  34.984  52.890  0.00  0.00     0.007 A 
ATOM     13  C   UNL d   1      49.077  34.931  52.121  0.00  0.00     0.064 A 
ATOM     14  C   UNL d   1      49.423  34.489  51.517  0.00  0.00     0.007 A 
ATOM     15  C   UNL d   1      50.154  34.074  51.650  0.00  0.00     0.019 A 
BRANCH  13  16
ATOM     16  C   UNL d   1      48.378  35.314  51.957  0.00  0.00     0.300 C 
ATOM     17  O   UNL d   1      47.961  35.201  51.281  0.00  0.00    -0.259 OA
BRANCH  16  18
ATOM     18  O   UNL d   1      48.016  35.856  52.453  0.00  0.00    -0.271 OA
BRANCH  18  19
ATOM     19  C   UNL d   1      47.329  36.226  52.219  0.00  0.00     0.126 C 
ATOM     20  C   UNL d   1      46.894  36.628  52.755  0.00  0.00     0.029 C 
ENDBRANCH  18  19
ENDBRANCH  16  18
ENDBRANCH  13  16
ENDBRANCH   8  10
ENDBRANCH   2   7
BRANCH   1  21
ATOM     21  S   UNL d   1      53.878  32.942  54.157  0.00  0.00     0.272 S 
ATOM     22  O   UNL d   1      53.358  33.010  54.814  0.00  0.00    -0.200 OA
ATOM     23  O   UNL d   1      54.401  32.885  53.526  0.00  0.00    -0.200 OA
BRANCH  21  24
ATOM     24  N   UNL d   1      54.468  33.296  54.601  0.00  0.00    -0.225 N 
ATOM     25  C   UNL d   1      54.422  33.288  55.408  0.00  0.00     0.118 A 
ATOM     26  C   UNL d   1      55.005  33.638  55.864  0.00  0.00     0.142 A 
ATOM     27  O   UNL d   1      55.639  33.998  55.510  0.00  0.00    -0.300 OA
ATOM     28  C   UNL d   1      55.694  34.010  54.676  0.00  0.00     0.142 A 
ATOM     29  C   UNL d   1      55.106  33.658  54.224  0.00  0.00     0.118 A 
ENDBRANCH  21  24
ENDBRANCH   1  21
TORSDOF 7
ENDMDL
MODEL 4
REMARK VINA RESULT:      -7.7      1.900      6.425
REMARK  7 active torsions:
REMARK  status: ('A' for Active; 'I' for Inactive)
REMARK    1  A    between atoms: N_2  and  S_1 
REMARK    2  A    between atoms: C_3  and  S_1 
REMARK    3  A    between atoms: C_4  and  C_7 
REMARK       I    between atoms: N_5  and  C_4 
REMARK    4  A    between atoms: C_15  and  N_5 
REMARK    5  A    between atoms: C_6  and  C_11 
REMARK    6  A    between atoms: O_20  and  C_6 
REMARK    7  A    between atoms: C_28  and  O_20 
ROOT
ATOM      1  C   UNL d   1      47.851  35.382  52.072  0.00  0.00     0.104 A 
ATOM      2  C   UNL d   1      49.171  34.828  52.012  0.00  0.00     0.059 A 
ATOM      3  C   UNL d   1      48.564  35.163  52.427  0.00  0.00     0.018 A 
ATOM      4  C   UNL d   1      47.756  35.246  51.225  0.00  0.00     0.013 A 
ATOM      5  C   UNL d   1      49.075  34.692  51.165  0.00  0.00     0.005 A 
ATOM      6  C   UNL d   1      48.381  34.903  50.809  0.00  0.00     0.001 A 
ENDROOT
BRANCH   2   7
ATOM      7  C   UNL d   1      49.868  34.621  52.394  0.00  0.00     0.279 C 
ATOM      8  N   UNL d   1      50.400  34.109  52.041  0.00  0.00    -0.208 NA
ATOM      9  O   UNL d   1      50.090  34.904  53.153  0.00  0.00    -0.265 OA
BRANCH   8  10
ATOM     10  C   UNL d   1      51.113  33.895  52.427  0.00  0.00     0.085 A 
ATOM     11  C   UNL d   1      51.785  34.405  52.387  0.00  0.00     0.019 A 
ATOM     12  C   UNL d   1      52.509  34.158  52.796  0.00  0.00     0.007 A 
ATOM     13  C   UNL d   1      52.530  33.419  53.223  0.00  0.00     0.064 A 
ATOM     14  C   UNL d   1      51.867  32.929  53.255  0.00  0.00     0.007 A 
ATOM     15  C   UNL d   1      51.147  33.152  52.862  0.00  0.00     0.019 A 
BRANCH  13  16
ATOM     16  C   UNL d   1      53.201  33.174  53.612  0.00  0.00     0.300 C 
ATOM     17  O   UNL d   1      53.748  32.687  53.283  0.00  0.00    -0.259 OA
BRANCH  16  18
ATOM     18  O   UNL d   1      53.402  33.388  54.376  0.00  0.00    -0.271 OA
BRANCH  18  19
ATOM     19  C   UNL d   1      54.100  33.123  54.703  0.00  0.00     0.126 C 
ATOM     20  C   UNL d   1      54.267  33.289  55.466  0.00  0.00     0.029 C 
ENDBRANCH  18  19
ENDBRANCH  16  18
ENDBRANCH  13  16
ENDBRANCH   8  10
ENDBRANCH   2   7
BRANCH   1  21
ATOM     21  S   UNL d   1      47.241  35.724  52.513  0.00  0.00     0.272 S 
ATOM     22  O   UNL d   1      47.712  36.399  52.683  0.00  0.00    -0.200 OA
ATOM     23  O   UNL d   1      46.766  35.073  52.357  0.00  0.00    -0.200 OA
BRANCH  21  24
ATOM     24  N   UNL d   1      46.630  36.054  52.947  0.00  0.00    -0.225 N 
ATOM     25  C   UNL d   1      46.683  36.087  53.753  0.00  0.00     0.118 A 
ATOM     26  C   UNL d   1      46.080  36.414  54.199  0.00  0.00     0.142 A 
ATOM     27  O   UNL d   1      45.418  36.709  53.837  0.00  0.00    -0.300 OA
ATOM     28  C   UNL d   1      45.356  36.679  53.004  0.00  0.00     0.142 A 
ATOM     29  C   UNL d   1      45.964  36.350  52.562  0.00  0.00     0.118 A 
ENDBRANCH  21  24
ENDBRANCH   1  21
TORSDOF 7
ENDMDL
MODEL 5
REMARK VINA RESULT:      -6.9      1.836      2.494
REMARK  7 active torsions:
REMARK  status: ('A' for Active; 'I' for Inactive)
REMARK    1  A    between atoms: N_2  and  S_1 
REMARK    2  A    between atoms: C_3  and  S_1 
REMARK    3  A    between atoms: C_4  and  C_7 
REMARK       I    between atoms: N_5  and  C_4 
REMARK    4  A    between atoms: C_15  and  N_5 
REMARK    5  A    between atoms: C_6  and  C_11 
REMARK    6  A    between atoms: O_20  and  C_6 
REMARK    7  A    between atoms: C_28  and  O_20 
ROOT
ATOM      1  C   UNL d   1      51.775  34.203  52.890  0.00  0.00     0.104 A 
ATOM      2  C   UNL d   1      50.431  34.477  52.477  0.00  0.00     0.059 A 
ATOM      3  C   UNL d   1      50.988  34.390  53.056  0.00  0.00     0.018 A 
ATOM      4  C   UNL d   1      52.006  34.098  52.065  0.00  0.00     0.013 A 
ATOM      5  C   UNL d   1      50.663  34.372  51.653  0.00  0.00     0.005 A 
ATOM      6  C   UNL d   1      51.431  34.189  51.480  0.00  0.00     0.001 A 
ENDROOT
BRANCH   2   7
ATOM      7  C   UNL d   1      49.655  34.664  52.674  0.00  0.00     0.279 C 
ATOM      8  N   UNL d   1      49.433  35.440  52.803  0.00  0.00    -0.208 NA
ATOM      9  O   UNL d   1      49.043  34.095  52.757  0.00  0.00    -0.265 OA
BRANCH   8  10
ATOM     10  C   UNL d   1      48.642  35.634  53.004  0.00  0.00     0.085 A 
ATOM     11  C   UNL d   1      48.444  35.825  53.802  0.00  0.00     0.019 A 
ATOM     12  C   UNL d   1      47.618  36.022  53.980  0.00  0.00     0.007 A 
ATOM     13  C   UNL d   1      47.032  36.020  53.360  0.00  0.00     0.064 A 
ATOM     14  C   UNL d   1      47.238  35.831  52.583  0.00  0.00     0.007 A 
ATOM     15  C   UNL d   1      48.042  35.635  52.387  0.00  0.00     0.019 A 
BRANCH  13  16
ATOM     16  C   UNL d   1      46.254  36.202  53.511  0.00  0.00     0.300 C 
ATOM     17  O   UNL d   1      45.824  36.709  53.062  0.00  0.00    -0.259 OA
BRANCH  16  18
ATOM     18  O   UNL d   1      45.816  35.896  54.132  0.00  0.00    -0.271 OA
BRANCH  18  19
ATOM     19  C   UNL d   1      45.064  36.175  54.275  0.00  0.00     0.126 C 
ATOM     20  C   UNL d   1      44.537  35.712  54.658  0.00  0.00     0.029 C 
ENDBRANCH  18  19
ENDBRANCH  16  18
ENDBRANCH  13  16
ENDBRANCH   8  10
ENDBRANCH   2   7
BRANCH   1  21
ATOM     21  S   UNL d   1      52.331  34.118  53.495  0.00  0.00     0.272 S 
ATOM     22  O   UNL d   1      52.619  34.898  53.372  0.00  0.00    -0.200 OA
ATOM     23  O   UNL d   1      52.064  33.353  53.630  0.00  0.00    -0.200 OA
BRANCH  21  24
ATOM     24  N   UNL d   1      52.879  34.023  54.097  0.00  0.00    -0.225 N 
ATOM     25  C   UNL d   1      53.081  34.655  54.559  0.00  0.00     0.118 A 
ATOM     26  C   UNL d   1      53.627  34.574  55.163  0.00  0.00     0.142 A 
ATOM     27  O   UNL d   1      53.972  33.854  55.308  0.00  0.00    -0.300 OA
ATOM     28  C   UNL d   1      53.768  33.197  54.834  0.00  0.00     0.142 A 
ATOM     29  C   UNL d   1      53.220  33.284  54.229  0.00  0.00     0.118 A 
ENDBRANCH  21  24
ENDBRANCH   1  21
TORSDOF 7
ENDMDL
MODEL 6
REMARK VINA RESULT:      -6.0      1.312      6.197
REMARK  7 active torsions:
REMARK  status: ('A' for Active; 'I' for Inactive)
REMARK    1  A    between atoms: N_2  and  S_1 
REMARK    2  A    between atoms: C_3  and  S_1 
REMARK    3  A    between atoms: C_4  and  C_7 
REMARK       I    between atoms: N_5  and  C_4 
REMARK    4  A    between atoms: C_15  and  N_5 
REMARK    5  A    between atoms: C_6  and  C_11 
REMARK    6  A    between atoms: O_20  and  C_6 
REMARK    7  A    between atoms: C_28  and  O_20 
ROOT
ATOM      1  C   UNL d   1      50.610  34.476  52.519  0.00  0.00     0.104 A 
ATOM      2  C   UNL d   1      51.590  33.585  53.063  0.00  0.00     0.059 A 
ATOM      3  C   UNL d   1      50.875  33.718  52.711  0.00  0.00     0.018 A 
ATOM      4  C   UNL d   1      51.119  35.148  52.702  0.00  0.00     0.013 A 
ATOM      5  C   UNL d   1      52.099  34.257  53.247  0.00  0.00     0.005 A 
ATOM      6  C   UNL d   1      51.847  35.003  53.062  0.00  0.00     0.001 A 
ENDROOT
BRANCH   2   7
ATOM      7  C   UNL d   1      51.827  32.819  53.243  0.00  0.00     0.279 C 
ATOM      8  N   UNL d   1      52.567  32.549  53.024  0.00  0.00    -0.208 NA
ATOM      9  O   UNL d   1      51.348  32.264  53.653  0.00  0.00    -0.265 OA
BRANCH   8  10
ATOM     10  C   UNL d   1      52.812  31.768  53.206  0.00  0.00     0.085 A 
ATOM     11  C   UNL d   1      52.478  31.113  52.792  0.00  0.00     0.019 A 
ATOM     12  C   UNL d   1      52.751  30.317  53.001  0.00  0.00     0.007 A 
ATOM     13  C   UNL d   1      53.341  30.211  53.609  0.00  0.00     0.064 A 
ATOM     14  C   UNL d   1      53.660  30.859  54.007  0.00  0.00     0.007 A 
ATOM     15  C   UNL d   1      53.407  31.648  53.817  0.00  0.00     0.019 A 
BRANCH  13  16
ATOM     16  C   UNL d   1      53.606  29.470  53.816  0.00  0.00     0.300 C 
ATOM     17  O   UNL d   1      54.278  29.144  53.522  0.00  0.00    -0.259 OA
BRANCH  16  18
ATOM     18  O   UNL d   1      53.229  28.970  54.343  0.00  0.00    -0.271 OA
BRANCH  18  19
ATOM     19  C   UNL d   1      53.666  28.453  54.797  0.00  0.00     0.126 C 
ATOM     20  C   UNL d   1      53.315  28.063  55.399  0.00  0.00     0.029 C 
ENDBRANCH  18  19
ENDBRANCH  16  18
ENDBRANCH  13  16
ENDBRANCH   8  10
ENDBRANCH   2   7
BRANCH   1  21
ATOM     21  S   UNL d   1      49.874  34.593  52.158  0.00  0.00     0.272 S 
ATOM     22  O   UNL d   1      49.520  34.789  52.895  0.00  0.00    -0.200 OA
ATOM     23  O   UNL d   1      50.204  34.404  51.430  0.00  0.00    -0.200 OA
BRANCH  21  24
ATOM     24  N   UNL d   1      49.151  34.706  51.791  0.00  0.00    -0.225 N 
ATOM     25  C   UNL d   1      48.566  35.112  52.174  0.00  0.00     0.118 A 
ATOM     26  C   UNL d   1      47.839  35.232  51.819  0.00  0.00     0.142 A 
ATOM     27  O   UNL d   1      47.695  34.945  51.075  0.00  0.00    -0.300 OA
ATOM     28  C   UNL d   1      48.295  34.524  50.673  0.00  0.00     0.142 A 
ATOM     29  C   UNL d   1      49.023  34.407  51.034  0.00  0.00     0.118 A 
ENDBRANCH  21  24
ENDBRANCH   1  21
TORSDOF 7
ENDMDL
