MODEL 1
REMARK VINA RESULT:      -6.5      0.000      0.000
REMARK  2 active torsions:
REMARK  status: ('A' for Active; 'I' for Inactive)
REMARK    1  A    between atoms: C_5  and  C_1 
REMARK    2  A    between atoms: N_2  and  C_6 
ROOT
ATOM      1  C   UNL d   1     -41.526-122.818 -52.464  0.00  0.00     0.077 A 
ATOM      2  C   UNL d   1     -41.233-121.871 -51.515  0.00  0.00     0.160 A 
ATOM      3  C   UNL d   1     -41.435-122.031 -52.360  0.00  0.00     0.024 A 
ATOM      4  C   UNL d   1     -41.419-123.213 -51.831  0.00  0.00    -0.014 A 
ATOM      5  C   UNL d   1     -41.491-123.576 -52.011  0.00  0.00    -0.014 A 
ATOM      6  C   UNL d   1     -41.325-123.462 -51.310  0.00  0.00    -0.000 A 
ATOM      7  C   UNL d   1     -41.211-123.053 -50.959  0.00  0.00    -0.000 A 
ATOM      8  C   UNL d   1     -41.202-122.461 -51.148  0.00  0.00     0.038 A 
ATOM      9  C   UNL d   1     -41.123-122.287 -50.858  0.00  0.00     0.038 A 
ATOM     10  C   UNL d   1     -41.170-123.815 -50.481  0.00  0.00    -0.000 A 
ATOM     11  O   UNL d   1     -41.155-121.148 -51.444  0.00  0.00    -0.290 OA
ENDROOT
BRANCH   1  12
ATOM     12  C   UNL d   1     -41.677-122.583 -53.232  0.00  0.00    -0.011 A 
ATOM     13  C   UNL d   1     -42.359-122.167 -53.422  0.00  0.00    -0.002 A 
ATOM     14  C   UNL d   1     -42.506-121.931 -54.208  0.00  0.00     0.023 A 
ATOM     15  C   UNL d   1     -41.957-122.121 -54.794  0.00  0.00     0.127 A 
ATOM     16  C   UNL d   1     -41.273-122.539 -54.599  0.00  0.00     0.023 A 
ATOM     17  C   UNL d   1     -41.139-122.769 -53.807  0.00  0.00    -0.002 A 
BRANCH  15  18
ATOM     18  N   UNL d   1     -42.088-121.894 -55.578  0.00  0.00    -0.114 N 
ATOM     19  O   UNL d   1     -41.453-121.577 -55.990  0.00  0.00    -0.532 OA
ATOM     20  O   UNL d   1     -42.857-121.988 -55.942  0.00  0.00    -0.532 OA
ENDBRANCH  15  18
ENDBRANCH   1  12
TORSDOF 2
ENDMDL
MODEL 2
REMARK VINA RESULT:      -6.4      1.867      2.661
REMARK  2 active torsions:
REMARK  status: ('A' for Active; 'I' for Inactive)
REMARK    1  A    between atoms: C_5  and  C_1 
REMARK    2  A    between atoms: N_2  and  C_6 
ROOT
ATOM      1  C   UNL d   1     -41.638-123.111 -50.057  0.00  0.00     0.077 A 
ATOM      2  C   UNL d   1     -42.889-122.935 -49.523  0.00  0.00     0.160 A 
ATOM      3  C   UNL d   1     -42.390-122.923 -50.251  0.00  0.00     0.024 A 
ATOM      4  C   UNL d   1     -41.549-123.248 -49.321  0.00  0.00    -0.014 A 
ATOM      5  C   UNL d   1     -41.146-123.326 -49.355  0.00  0.00    -0.014 A 
ATOM      6  C   UNL d   1     -41.545-123.341 -48.745  0.00  0.00    -0.000 A 
ATOM      7  C   UNL d   1     -42.060-123.261 -48.568  0.00  0.00    -0.000 A 
ATOM      8  C   UNL d   1     -42.514-123.103 -48.963  0.00  0.00     0.038 A 
ATOM      9  C   UNL d   1     -42.792-123.078 -48.757  0.00  0.00     0.038 A 
ATOM     10  C   UNL d   1     -41.575-123.479 -47.841  0.00  0.00    -0.000 A 
ATOM     11  O   UNL d   1     -43.570-122.760 -49.725  0.00  0.00    -0.290 OA
ENDROOT
BRANCH   1  12
ATOM     12  C   UNL d   1     -41.526-123.006 -50.860  0.00  0.00    -0.011 A 
ATOM     13  C   UNL d   1     -41.470-122.254 -51.185  0.00  0.00    -0.002 A 
ATOM     14  C   UNL d   1     -41.355-122.154 -52.006  0.00  0.00     0.023 A 
ATOM     15  C   UNL d   1     -41.299-122.822 -52.487  0.00  0.00     0.127 A 
ATOM     16  C   UNL d   1     -41.355-123.576 -52.156  0.00  0.00     0.023 A 
ATOM     17  C   UNL d   1     -41.470-123.660 -51.333  0.00  0.00    -0.002 A 
BRANCH  15  18
ATOM     18  N   UNL d   1     -41.185-122.741 -53.301  0.00  0.00    -0.114 N 
ATOM     19  O   UNL d   1     -41.133-123.429 -53.745  0.00  0.00    -0.532 OA
ATOM     20  O   UNL d   1     -41.124-121.967 -53.664  0.00  0.00    -0.532 OA
ENDBRANCH  15  18
ENDBRANCH   1  12
TORSDOF 2
ENDMDL
MODEL 3
REMARK VINA RESULT:      -6.2      2.608      4.446
REMARK  2 active torsions:
REMARK  status: ('A' for Active; 'I' for Inactive)
REMARK    1  A    between atoms: C_5  and  C_1 
REMARK    2  A    between atoms: N_2  and  C_6 
ROOT
ATOM      1  C   UNL d   1     -41.580-123.207 -50.813  0.00  0.00     0.077 A 
ATOM      2  C   UNL d   1     -41.268-122.034 -51.451  0.00  0.00     0.160 A 
ATOM      3  C   UNL d   1     -41.500-122.421 -50.692  0.00  0.00     0.024 A 
ATOM      4  C   UNL d   1     -41.440-123.412 -51.525  0.00  0.00    -0.014 A 
ATOM      5  C   UNL d   1     -41.512-123.811 -51.455  0.00  0.00    -0.014 A 
ATOM      6  C   UNL d   1     -41.320-123.507 -52.089  0.00  0.00    -0.000 A 
ATOM      7  C   UNL d   1     -41.201-123.016 -52.309  0.00  0.00    -0.000 A 
ATOM      8  C   UNL d   1     -41.211-122.499 -51.965  0.00  0.00     0.038 A 
ATOM      9  C   UNL d   1     -41.123-122.251 -52.192  0.00  0.00     0.038 A 
ATOM     10  C   UNL d   1     -41.126-123.617 -52.976  0.00  0.00    -0.000 A 
ATOM     11  O   UNL d   1     -41.201-121.318 -51.317  0.00  0.00    -0.290 OA
ENDROOT
BRANCH   1  12
ATOM     12  C   UNL d   1     -41.766-123.194 -50.017  0.00  0.00    -0.011 A 
ATOM     13  C   UNL d   1     -42.523-123.004 -49.762  0.00  0.00    -0.002 A 
ATOM     14  C   UNL d   1     -42.705-122.992 -48.948  0.00  0.00     0.023 A 
ATOM     15  C   UNL d   1     -42.114-123.175 -48.401  0.00  0.00     0.127 A 
ATOM     16  C   UNL d   1     -41.355-123.366 -48.662  0.00  0.00     0.023 A 
ATOM     17  C   UNL d   1     -41.188-123.373 -49.481  0.00  0.00    -0.002 A 
BRANCH  15  18
ATOM     18  N   UNL d   1     -42.278-123.169 -47.592  0.00  0.00    -0.114 N 
ATOM     19  O   UNL d   1     -42.750-123.773 -47.298  0.00  0.00    -0.532 OA
ATOM     20  O   UNL d   1     -41.967-122.554 -47.082  0.00  0.00    -0.532 OA
ENDBRANCH  15  18
ENDBRANCH   1  12
TORSDOF 2
ENDMDL
