MODEL 1
REMARK VINA RESULT:      50.2      0.000      0.000
REMARK  6 active torsions:
REMARK  status: ('A' for Active; 'I' for Inactive)
REMARK    1  A    between atoms: C_9  and  C_3 
REMARK    2  A    between atoms: C_4  and  C_18 
REMARK       I    between atoms: N_7  and  C_4 
REMARK    3  A    between atoms: S_11  and  C_5 
REMARK       I    between atoms: C_6  and  N_8 
REMARK    4  A    between atoms: C_12  and  N_7 
REMARK    5  A    between atoms: N_8  and  C_13 
REMARK    6  A    between atoms: C_18  and  S_11 
ROOT
ATOM      1  C   UNL d   1     -55.654-101.934 -41.359  0.00  0.00     0.099 C 
ENDROOT
BRANCH   1   2
ATOM      2  C   UNL d   1     -55.445-101.465 -42.001  0.00  0.00     0.286 C 
ATOM      3  N   UNL d   1     -55.924-101.446 -42.673  0.00  0.00    -0.207 NA
ATOM      4  O   UNL d   1     -54.756-101.012 -41.976  0.00  0.00    -0.265 OA
BRANCH   3   5
ATOM      5  C   UNL d   1     -55.714-100.974 -43.319  0.00  0.00     0.086 A 
ATOM      6  C   UNL d   1     -56.301-100.607 -43.761  0.00  0.00     0.038 A 
ATOM      7  C   UNL d   1     -56.091-100.136 -44.406  0.00  0.00     0.086 A 
ATOM      8  C   UNL d   1     -55.293-100.039 -44.599  0.00  0.00     0.019 A 
ATOM      9  C   UNL d   1     -54.714-100.414 -44.145  0.00  0.00     0.003 A 
ATOM     10  C   UNL d   1     -54.921-100.878 -43.510  0.00  0.00     0.019 A 
BRANCH   7  11
ATOM     11  N   UNL d   1     -56.675 -99.764 -44.854  0.00  0.00    -0.208 NA
ATOM     12  C   UNL d   1     -57.098 -99.133 -44.543  0.00  0.00     0.279 C 
ATOM     13  O   UNL d   1     -56.933 -98.868 -43.769  0.00  0.00    -0.265 OA
ATOM     14  C   UNL d   1     -57.681 -98.758 -44.984  0.00  0.00     0.068 C 
ENDBRANCH   7  11
ENDBRANCH   3   5
ENDBRANCH   1   2
BRANCH   1  15
ATOM     15  S   UNL d   1     -55.070-102.327 -40.938  0.00  0.00    -0.061 SA
BRANCH  15  16
ATOM     16  C   UNL d   1     -55.018-102.244 -40.119  0.00  0.00     0.133 A 
ATOM     17  N   UNL d   1     -54.763-101.541 -39.786  0.00  0.00    -0.141 NA
ATOM     18  N   UNL d   1     -54.711-101.457 -38.967  0.00  0.00    -0.148 NA
ATOM     19  C   UNL d   1     -54.919-102.089 -38.472  0.00  0.00     0.104 A 
ATOM     20  C   UNL d   1     -55.178-102.800 -38.804  0.00  0.00     0.023 A 
ATOM     21  C   UNL d   1     -55.228-102.880 -39.622  0.00  0.00     0.029 A 
BRANCH  19  22
ATOM     22  C   UNL d   1     -54.868-102.005 -37.653  0.00  0.00     0.039 A 
ATOM     23  C   UNL d   1     -54.850-102.668 -37.180  0.00  0.00     0.101 A 
ATOM     24  N   UNL d   1     -54.800-102.590 -36.367  0.00  0.00    -0.242 NA
ATOM     25  C   UNL d   1     -54.766-101.832 -36.026  0.00  0.00     0.099 A 
ATOM     26  C   UNL d   1     -54.784-101.169 -36.504  0.00  0.00     0.021 A 
ATOM     27  C   UNL d   1     -54.835-101.242 -37.325  0.00  0.00     0.005 A 
ENDBRANCH  19  22
ENDBRANCH  15  16
ENDBRANCH   1  15
TORSDOF 6
ENDMDL
