MODEL 1
REMARK VINA RESULT:      -7.5      0.000      0.000
REMARK  4 active torsions:
REMARK  status: ('A' for Active; 'I' for Inactive)
REMARK    1  A    between atoms: N_7  and  C_1 
REMARK    2  A    between atoms: C_8  and  C_4 
REMARK    3  A    between atoms: C_10  and  N_7 
REMARK    4  A    between atoms: C_12  and  C_8 
ROOT
ATOM      1  C   UNL d   1     -47.843  12.919  23.408  0.00  0.00     0.184 A 
ATOM      2  N   UNL d   1     -48.024  13.689  23.161  0.00  0.00    -0.129 NA
ATOM      3  N   UNL d   1     -48.796  13.880  22.939  0.00  0.00    -0.147 NA
ATOM      4  C   UNL d   1     -49.394  13.308  22.960  0.00  0.00     0.103 A 
ATOM      5  C   UNL d   1     -48.440  12.351  23.428  0.00  0.00     0.039 A 
ATOM      6  C   UNL d   1     -49.212  12.542  23.206  0.00  0.00     0.022 A 
ATOM      7  C   UNL d   1     -48.260  11.581  23.675  0.00  0.00     0.003 A 
ATOM      8  C   UNL d   1     -49.809  11.964  23.229  0.00  0.00     0.002 A 
ATOM      9  C   UNL d   1     -49.627  11.199  23.474  0.00  0.00     0.000 A 
ATOM     10  C   UNL d   1     -48.850  11.007  23.698  0.00  0.00     0.000 A 
ENDROOT
BRANCH   1  11
ATOM     11  N   UNL d   1     -47.074  12.721  23.632  0.00  0.00    -0.225 NA
BRANCH  11  12
ATOM     12  C   UNL d   1     -46.446  12.898  23.129  0.00  0.00     0.083 A 
ATOM     13  C   UNL d   1     -46.175  13.668  23.073  0.00  0.00     0.020 A 
ATOM     14  C   UNL d   1     -45.550  13.855  22.574  0.00  0.00     0.013 A 
ATOM     15  C   UNL d   1     -45.187  13.257  22.120  0.00  0.00     0.058 A 
ATOM     16  C   UNL d   1     -45.463  12.481  22.180  0.00  0.00     0.013 A 
ATOM     17 CL   UNL d   1     -44.557  13.442  21.617  0.00  0.00    -0.082 Cl
ATOM     18  C   UNL d   1     -46.094  12.299  22.684  0.00  0.00     0.020 A 
ENDBRANCH  11  12
ENDBRANCH   1  11
BRANCH   4  19
ATOM     19  C   UNL d   1     -50.167  13.499  22.737  0.00  0.00     0.021 C 
BRANCH  19  20
ATOM     20  C   UNL d   1     -50.450  14.266  22.845  0.00  0.00     0.005 A 
ATOM     21  C   UNL d   1     -50.707  14.508  23.590  0.00  0.00     0.021 A 
ATOM     22  C   UNL d   1     -50.990  15.275  23.698  0.00  0.00     0.099 A 
ATOM     23  N   UNL d   1     -51.016  15.800  23.061  0.00  0.00    -0.242 NA
ATOM     24  C   UNL d   1     -50.754  15.549  22.308  0.00  0.00     0.099 A 
ATOM     25  C   UNL d   1     -50.472  14.780  22.210  0.00  0.00     0.021 A 
ENDBRANCH  19  20
ENDBRANCH   4  19
TORSDOF 4
ENDMDL
MODEL 2
REMARK VINA RESULT:      -6.3      1.443      2.515
REMARK  4 active torsions:
REMARK  status: ('A' for Active; 'I' for Inactive)
REMARK    1  A    between atoms: N_7  and  C_1 
REMARK    2  A    between atoms: C_8  and  C_4 
REMARK    3  A    between atoms: C_10  and  N_7 
REMARK    4  A    between atoms: C_12  and  C_8 
ROOT
ATOM      1  C   UNL d   1     -47.353  13.823  22.692  0.00  0.00     0.184 A 
ATOM      2  N   UNL d   1     -47.560  13.021  22.659  0.00  0.00    -0.129 NA
ATOM      3  N   UNL d   1     -48.341  12.804  22.502  0.00  0.00    -0.147 NA
ATOM      4  C   UNL d   1     -48.922  13.381  22.376  0.00  0.00     0.103 A 
ATOM      5  C   UNL d   1     -47.932  14.396  22.567  0.00  0.00     0.039 A 
ATOM      6  C   UNL d   1     -48.713  14.179  22.409  0.00  0.00     0.022 A 
ATOM      7  C   UNL d   1     -47.725  15.197  22.600  0.00  0.00     0.003 A 
ATOM      8  C   UNL d   1     -49.292  14.761  22.284  0.00  0.00     0.002 A 
ATOM      9  C   UNL d   1     -49.084  15.558  22.317  0.00  0.00     0.000 A 
ATOM     10  C   UNL d   1     -48.298  15.776  22.476  0.00  0.00     0.000 A 
ENDROOT
BRANCH   1  11
ATOM     11  N   UNL d   1     -46.574  14.048  22.849  0.00  0.00    -0.225 NA
BRANCH  11  12
ATOM     12  C   UNL d   1     -45.958  13.532  22.668  0.00  0.00     0.083 A 
ATOM     13  C   UNL d   1     -45.495  13.668  22.007  0.00  0.00     0.020 A 
ATOM     14  C   UNL d   1     -44.878  13.160  21.818  0.00  0.00     0.013 A 
ATOM     15  C   UNL d   1     -44.721  12.499  22.301  0.00  0.00     0.058 A 
ATOM     16  C   UNL d   1     -45.191  12.365  22.967  0.00  0.00     0.013 A 
ATOM     17 CL   UNL d   1     -44.101  11.984  22.113  0.00  0.00    -0.082 Cl
ATOM     18  C   UNL d   1     -45.810  12.881  23.153  0.00  0.00     0.020 A 
ENDBRANCH  11  12
ENDBRANCH   1  11
BRANCH   4  19
ATOM     19  C   UNL d   1     -49.704  13.164  22.218  0.00  0.00     0.021 C 
BRANCH  19  20
ATOM     20  C   UNL d   1     -50.086  12.617  22.703  0.00  0.00     0.005 A 
ATOM     21  C   UNL d   1     -49.872  11.822  22.675  0.00  0.00     0.021 A 
ATOM     22  C   UNL d   1     -50.254  11.276  23.160  0.00  0.00     0.099 A 
ATOM     23  N   UNL d   1     -50.851  11.525  23.674  0.00  0.00    -0.242 NA
ATOM     24  C   UNL d   1     -51.064  12.332  23.698  0.00  0.00     0.099 A 
ATOM     25  C   UNL d   1     -50.676  12.871  23.209  0.00  0.00     0.021 A 
ENDBRANCH  19  20
ENDBRANCH   4  19
TORSDOF 4
ENDMDL
MODEL 3
REMARK VINA RESULT:      -6.2      8.721     10.279
REMARK  4 active torsions:
REMARK  status: ('A' for Active; 'I' for Inactive)
REMARK    1  A    between atoms: N_7  and  C_1 
REMARK    2  A    between atoms: C_8  and  C_4 
REMARK    3  A    between atoms: C_10  and  N_7 
REMARK    4  A    between atoms: C_12  and  C_8 
ROOT
ATOM      1  C   UNL d   1     -39.740  14.763  19.343  0.00  0.00     0.184 A 
ATOM      2  N   UNL d   1     -39.043  14.383  19.580  0.00  0.00    -0.129 NA
ATOM      3  N   UNL d   1     -38.819  14.393  20.375  0.00  0.00    -0.147 NA
ATOM      4  C   UNL d   1     -39.286  14.779  20.939  0.00  0.00     0.103 A 
ATOM      5  C   UNL d   1     -40.204  15.147  19.906  0.00  0.00     0.039 A 
ATOM      6  C   UNL d   1     -39.980  15.156  20.701  0.00  0.00     0.022 A 
ATOM      7  C   UNL d   1     -40.901  15.526  19.668  0.00  0.00     0.003 A 
ATOM      8  C   UNL d   1     -40.452  15.545  21.263  0.00  0.00     0.002 A 
ATOM      9  C   UNL d   1     -41.145  15.922  21.025  0.00  0.00     0.000 A 
ATOM     10  C   UNL d   1     -41.370  15.912  20.225  0.00  0.00     0.000 A 
ENDROOT
BRANCH   1  11
ATOM     11  N   UNL d   1     -39.970  14.757  18.549  0.00  0.00    -0.225 NA
BRANCH  11  12
ATOM     12  C   UNL d   1     -39.464  14.440  17.982  0.00  0.00     0.083 A 
ATOM     13  C   UNL d   1     -39.469  13.635  17.837  0.00  0.00     0.020 A 
ATOM     14  C   UNL d   1     -38.968  13.309  17.273  0.00  0.00     0.013 A 
ATOM     15  C   UNL d   1     -38.450  13.802  16.844  0.00  0.00     0.058 A 
ATOM     16  C   UNL d   1     -38.448  14.614  16.993  0.00  0.00     0.013 A 
ATOM     17 CL   UNL d   1     -37.944  13.477  16.275  0.00  0.00    -0.082 Cl
ATOM     18  C   UNL d   1     -38.955  14.936  17.563  0.00  0.00     0.020 A 
ENDBRANCH  11  12
ENDBRANCH   1  11
BRANCH   4  19
ATOM     19  C   UNL d   1     -39.062  14.789  21.735  0.00  0.00     0.021 C 
BRANCH  19  20
ATOM     20  C   UNL d   1     -38.746  14.112  22.084  0.00  0.00     0.005 A 
ATOM     21  C   UNL d   1     -38.255  13.616  21.646  0.00  0.00     0.021 A 
ATOM     22  C   UNL d   1     -37.940  12.938  21.994  0.00  0.00     0.099 A 
ATOM     23  N   UNL d   1     -38.115  12.757  22.781  0.00  0.00    -0.242 NA
ATOM     24  C   UNL d   1     -38.613  13.264  23.220  0.00  0.00     0.099 A 
ATOM     25  C   UNL d   1     -38.924  13.940  22.863  0.00  0.00     0.021 A 
ENDBRANCH  19  20
ENDBRANCH   4  19
TORSDOF 4
ENDMDL
MODEL 4
REMARK VINA RESULT:      -5.6      9.089     10.642
REMARK  4 active torsions:
REMARK  status: ('A' for Active; 'I' for Inactive)
REMARK    1  A    between atoms: N_7  and  C_1 
REMARK    2  A    between atoms: C_8  and  C_4 
REMARK    3  A    between atoms: C_10  and  N_7 
REMARK    4  A    between atoms: C_12  and  C_8 
ROOT
ATOM      1  C   UNL d   1     -39.420  15.329  19.584  0.00  0.00     0.184 A 
ATOM      2  N   UNL d   1     -38.758  14.904  19.323  0.00  0.00    -0.129 NA
ATOM      3  N   UNL d   1     -38.759  14.562  18.571  0.00  0.00    -0.147 NA
ATOM      4  C   UNL d   1     -39.417  14.638  18.074  0.00  0.00     0.103 A 
ATOM      5  C   UNL d   1     -40.074  15.404  19.088  0.00  0.00     0.039 A 
ATOM      6  C   UNL d   1     -40.075  15.061  18.336  0.00  0.00     0.022 A 
ATOM      7  C   UNL d   1     -40.736  15.828  19.349  0.00  0.00     0.003 A 
ATOM      8  C   UNL d   1     -40.737  15.140  17.841  0.00  0.00     0.002 A 
ATOM      9  C   UNL d   1     -41.395  15.563  18.103  0.00  0.00     0.000 A 
ATOM     10  C   UNL d   1     -41.394  15.908  18.859  0.00  0.00     0.000 A 
ENDROOT
BRANCH   1  11
ATOM     11  N   UNL d   1     -39.426  15.674  20.334  0.00  0.00    -0.225 NA
BRANCH  11  12
ATOM     12  C   UNL d   1     -39.075  15.279  20.966  0.00  0.00     0.083 A 
ATOM     13  C   UNL d   1     -38.336  15.510  21.229  0.00  0.00     0.020 A 
ATOM     14  C   UNL d   1     -37.977  15.124  21.858  0.00  0.00     0.013 A 
ATOM     15  C   UNL d   1     -38.367  14.490  22.233  0.00  0.00     0.058 A 
ATOM     16  C   UNL d   1     -39.114  14.259  21.964  0.00  0.00     0.013 A 
ATOM     17 CL   UNL d   1     -38.009  14.097  22.868  0.00  0.00    -0.082 Cl
ATOM     18  C   UNL d   1     -39.470  14.653  21.330  0.00  0.00     0.020 A 
ENDBRANCH  11  12
ENDBRANCH   1  11
BRANCH   4  19
ATOM     19  C   UNL d   1     -39.418  14.295  17.322  0.00  0.00     0.021 C 
BRANCH  19  20
ATOM     20  C   UNL d   1     -38.955  13.629  17.171  0.00  0.00     0.005 A 
ATOM     21  C   UNL d   1     -39.047  12.952  17.631  0.00  0.00     0.021 A 
ATOM     22  C   UNL d   1     -38.584  12.286  17.480  0.00  0.00     0.099 A 
ATOM     23  N   UNL d   1     -38.029  12.298  16.869  0.00  0.00    -0.242 NA
ATOM     24  C   UNL d   1     -37.940  12.988  16.406  0.00  0.00     0.099 A 
ATOM     25  C   UNL d   1     -38.407  13.649  16.565  0.00  0.00     0.021 A 
ENDBRANCH  19  20
ENDBRANCH   4  19
TORSDOF 4
ENDMDL
MODEL 5
REMARK VINA RESULT:      -5.6      1.998      4.757
REMARK  4 active torsions:
REMARK  status: ('A' for Active; 'I' for Inactive)
REMARK    1  A    between atoms: N_7  and  C_1 
REMARK    2  A    between atoms: C_8  and  C_4 
REMARK    3  A    between atoms: C_10  and  N_7 
REMARK    4  A    between atoms: C_12  and  C_8 
ROOT
ATOM      1  C   UNL d   1     -48.361  13.476  22.170  0.00  0.00     0.184 A 
ATOM      2  N   UNL d   1     -47.877  12.806  22.222  0.00  0.00    -0.129 NA
ATOM      3  N   UNL d   1     -47.075  12.890  22.401  0.00  0.00    -0.147 NA
ATOM      4  C   UNL d   1     -46.749  13.641  22.529  0.00  0.00     0.103 A 
ATOM      5  C   UNL d   1     -48.035  14.222  22.298  0.00  0.00     0.039 A 
ATOM      6  C   UNL d   1     -47.233  14.306  22.477  0.00  0.00     0.022 A 
ATOM      7  C   UNL d   1     -48.519  14.892  22.246  0.00  0.00     0.003 A 
ATOM      8  C   UNL d   1     -46.910  15.061  22.605  0.00  0.00     0.002 A 
ATOM      9  C   UNL d   1     -47.394  15.726  22.552  0.00  0.00     0.000 A 
ATOM     10  C   UNL d   1     -48.201  15.641  22.372  0.00  0.00     0.000 A 
ENDROOT
BRANCH   1  11
ATOM     11  N   UNL d   1     -49.164  13.399  21.992  0.00  0.00    -0.225 NA
BRANCH  11  12
ATOM     12  C   UNL d   1     -49.626  12.866  22.418  0.00  0.00     0.083 A 
ATOM     13  C   UNL d   1     -49.508  12.062  22.327  0.00  0.00     0.020 A 
ATOM     14  C   UNL d   1     -49.963  11.523  22.747  0.00  0.00     0.013 A 
ATOM     15  C   UNL d   1     -50.550  11.796  23.272  0.00  0.00     0.058 A 
ATOM     16  C   UNL d   1     -50.666  12.608  23.362  0.00  0.00     0.013 A 
ATOM     17 CL   UNL d   1     -51.011  11.255  23.698  0.00  0.00    -0.082 Cl
ATOM     18  C   UNL d   1     -50.204  13.146  22.935  0.00  0.00     0.020 A 
ENDBRANCH  11  12
ENDBRANCH   1  11
BRANCH   4  19
ATOM     19  C   UNL d   1     -45.946  13.725  22.708  0.00  0.00     0.021 C 
BRANCH  19  20
ATOM     20  C   UNL d   1     -45.433  13.085  22.619  0.00  0.00     0.005 A 
ATOM     21  C   UNL d   1     -45.565  12.391  23.043  0.00  0.00     0.021 A 
ATOM     22  C   UNL d   1     -45.052  11.751  22.954  0.00  0.00     0.099 A 
ATOM     23  N   UNL d   1     -44.408  11.806  22.440  0.00  0.00    -0.242 NA
ATOM     24  C   UNL d   1     -44.280  12.513  22.013  0.00  0.00     0.099 A 
ATOM     25  C   UNL d   1     -44.798  13.147  22.109  0.00  0.00     0.021 A 
ENDBRANCH  19  20
ENDBRANCH   4  19
TORSDOF 4
ENDMDL
MODEL 6
REMARK VINA RESULT:      -4.9      8.574     10.525
REMARK  4 active torsions:
REMARK  status: ('A' for Active; 'I' for Inactive)
REMARK    1  A    between atoms: N_7  and  C_1 
REMARK    2  A    between atoms: C_8  and  C_4 
REMARK    3  A    between atoms: C_10  and  N_7 
REMARK    4  A    between atoms: C_12  and  C_8 
ROOT
ATOM      1  C   UNL d   1     -38.917  14.285  17.763  0.00  0.00     0.184 A 
ATOM      2  N   UNL d   1     -38.755  14.280  18.575  0.00  0.00    -0.129 NA
ATOM      3  N   UNL d   1     -39.136  14.817  19.074  0.00  0.00    -0.147 NA
ATOM      4  C   UNL d   1     -39.679  15.362  18.769  0.00  0.00     0.103 A 
ATOM      5  C   UNL d   1     -39.458  14.828  17.461  0.00  0.00     0.039 A 
ATOM      6  C   UNL d   1     -39.839  15.366  17.960  0.00  0.00     0.022 A 
ATOM      7  C   UNL d   1     -39.620  14.833  16.649  0.00  0.00     0.003 A 
ATOM      8  C   UNL d   1     -40.384  15.911  17.649  0.00  0.00     0.002 A 
ATOM      9  C   UNL d   1     -40.543  15.913  16.841  0.00  0.00     0.000 A 
ATOM     10  C   UNL d   1     -40.160  15.373  16.339  0.00  0.00     0.000 A 
ENDROOT
BRANCH   1  11
ATOM     11  N   UNL d   1     -38.540  13.750  17.258  0.00  0.00    -0.225 NA
BRANCH  11  12
ATOM     12  C   UNL d   1     -38.390  12.983  17.518  0.00  0.00     0.083 A 
ATOM     13  C   UNL d   1     -38.539  12.350  17.022  0.00  0.00     0.020 A 
ATOM     14  C   UNL d   1     -38.392  11.581  17.271  0.00  0.00     0.013 A 
ATOM     15  C   UNL d   1     -38.089  11.443  18.035  0.00  0.00     0.058 A 
ATOM     16  C   UNL d   1     -37.940  12.086  18.533  0.00  0.00     0.013 A 
ATOM     17 CL   UNL d   1     -37.940  10.670  18.290  0.00  0.00    -0.082 Cl
ATOM     18  C   UNL d   1     -38.090  12.857  18.276  0.00  0.00     0.020 A 
ENDBRANCH  11  12
ENDBRANCH   1  11
BRANCH   4  19
ATOM     19  C   UNL d   1     -40.061  15.900  19.268  0.00  0.00     0.021 C 
BRANCH  19  20
ATOM     20  C   UNL d   1     -40.091  15.760  20.081  0.00  0.00     0.005 A 
ATOM     21  C   UNL d   1     -40.790  15.495  20.426  0.00  0.00     0.021 A 
ATOM     22  C   UNL d   1     -40.820  15.355  21.238  0.00  0.00     0.099 A 
ATOM     23  N   UNL d   1     -40.150  15.480  21.704  0.00  0.00    -0.242 NA
ATOM     24  C   UNL d   1     -39.443  15.748  21.349  0.00  0.00     0.099 A 
ATOM     25  C   UNL d   1     -39.423  15.886  20.535  0.00  0.00     0.021 A 
ENDBRANCH  19  20
ENDBRANCH   4  19
TORSDOF 4
ENDMDL
