MODEL 1
REMARK VINA RESULT:      -7.1      0.000      0.000
REMARK  4 active torsions:
REMARK  status: ('A' for Active; 'I' for Inactive)
REMARK       I    between atoms: N_2  and  C_3 
REMARK    1  A    between atoms: C_3  and  C_8 
REMARK    2  A    between atoms: S_7  and  C_5 
REMARK    3  A    between atoms: C_10  and  C_6 
REMARK    4  A    between atoms: C_8  and  S_7 
ROOT
ATOM      1  N   UNL d   1     -45.481  12.503  22.932  0.00  0.00    -0.148 NA
ATOM      2  N   UNL d   1     -46.085  13.065  22.915  0.00  0.00    -0.141 NA
ATOM      3  C   UNL d   1     -46.813  12.904  23.264  0.00  0.00     0.133 A 
ATOM      4  C   UNL d   1     -45.610  11.776  23.304  0.00  0.00     0.103 A 
ATOM      5  C   UNL d   1     -46.332  11.610  23.654  0.00  0.00     0.023 A 
ATOM      6  C   UNL d   1     -46.935  12.165  23.638  0.00  0.00     0.029 A 
ENDROOT
BRANCH   3   7
ATOM      7  S   UNL d   1     -47.408  13.463  23.244  0.00  0.00    -0.061 SA
BRANCH   7   8
ATOM      8  C   UNL d   1     -48.053  13.360  22.744  0.00  0.00     0.098 C 
BRANCH   8   9
ATOM      9  C   UNL d   1     -48.652  13.925  22.724  0.00  0.00     0.271 C 
ATOM     10  N   UNL d   1     -49.334  13.781  22.283  0.00  0.00    -0.272 N 
ATOM     11  C   UNL d   1     -49.929  14.337  22.260  0.00  0.00     0.083 A 
ATOM     12  C   UNL d   1     -49.407  13.072  21.867  0.00  0.00     0.083 A 
ATOM     13  C   UNL d   1     -50.607  14.204  21.827  0.00  0.00     0.019 A 
ATOM     14  C   UNL d   1     -50.696  13.493  21.402  0.00  0.00     0.003 A 
ATOM     15  C   UNL d   1     -50.089  12.932  21.428  0.00  0.00     0.019 A 
ATOM     16  O   UNL d   1     -48.580  14.627  23.136  0.00  0.00    -0.266 OA
ENDBRANCH   8   9
ENDBRANCH   7   8
ENDBRANCH   3   7
BRANCH   4  17
ATOM     17  C   UNL d   1     -45.006  11.214  23.322  0.00  0.00     0.019 A 
ATOM     18  C   UNL d   1     -44.269  11.382  22.977  0.00  0.00     0.002 A 
ATOM     19  C   UNL d   1     -43.663  10.818  22.996  0.00  0.00     0.000 A 
ATOM     20  C   UNL d   1     -43.789  10.082  23.358  0.00  0.00     0.000 A 
ATOM     21  C   UNL d   1     -44.513   9.916  23.698  0.00  0.00     0.000 A 
ATOM     22  C   UNL d   1     -45.127  10.473  23.686  0.00  0.00     0.002 A 
ENDBRANCH   4  17
TORSDOF 4
ENDMDL
MODEL 2
REMARK VINA RESULT:      -6.8      1.462      5.287
REMARK  4 active torsions:
REMARK  status: ('A' for Active; 'I' for Inactive)
REMARK       I    between atoms: N_2  and  C_3 
REMARK    1  A    between atoms: C_3  and  C_8 
REMARK    2  A    between atoms: S_7  and  C_5 
REMARK    3  A    between atoms: C_10  and  C_6 
REMARK    4  A    between atoms: C_8  and  S_7 
ROOT
ATOM      1  N   UNL d   1     -48.109  13.393  22.018  0.00  0.00    -0.148 NA
ATOM      2  N   UNL d   1     -47.325  13.148  21.952  0.00  0.00    -0.141 NA
ATOM      3  C   UNL d   1     -46.758  13.415  22.485  0.00  0.00     0.133 A 
ATOM      4  C   UNL d   1     -48.324  13.911  22.626  0.00  0.00     0.103 A 
ATOM      5  C   UNL d   1     -47.765  14.181  23.160  0.00  0.00     0.023 A 
ATOM      6  C   UNL d   1     -46.984  13.939  23.097  0.00  0.00     0.029 A 
ENDROOT
BRANCH   3   7
ATOM      7  S   UNL d   1     -45.982  13.169  22.415  0.00  0.00    -0.061 SA
BRANCH   7   8
ATOM      8  C   UNL d   1     -45.770  12.407  22.637  0.00  0.00     0.098 C 
BRANCH   8   9
ATOM      9  C   UNL d   1     -44.979  12.178  22.620  0.00  0.00     0.271 C 
ATOM     10  N   UNL d   1     -44.750  11.470  22.976  0.00  0.00    -0.272 N 
ATOM     11  C   UNL d   1     -43.968  11.240  22.960  0.00  0.00     0.083 A 
ATOM     12  C   UNL d   1     -45.318  10.999  23.345  0.00  0.00     0.083 A 
ATOM     13  C   UNL d   1     -43.733  10.541  23.309  0.00  0.00     0.019 A 
ATOM     14  C   UNL d   1     -44.295  10.055  23.686  0.00  0.00     0.003 A 
ATOM     15  C   UNL d   1     -45.087  10.293  23.698  0.00  0.00     0.019 A 
ATOM     16  O   UNL d   1     -44.416  12.645  22.254  0.00  0.00    -0.266 OA
ENDBRANCH   8   9
ENDBRANCH   7   8
ENDBRANCH   3   7
BRANCH   4  17
ATOM     17  C   UNL d   1     -49.109  14.157  22.694  0.00  0.00     0.019 A 
ATOM     18  C   UNL d   1     -49.326  14.927  22.469  0.00  0.00     0.002 A 
ATOM     19  C   UNL d   1     -50.114  15.174  22.537  0.00  0.00     0.000 A 
ATOM     20  C   UNL d   1     -50.690  14.653  22.830  0.00  0.00     0.000 A 
ATOM     21  C   UNL d   1     -50.478  13.896  23.051  0.00  0.00     0.000 A 
ATOM     22  C   UNL d   1     -49.693  13.638  22.988  0.00  0.00     0.002 A 
ENDBRANCH   4  17
TORSDOF 4
ENDMDL
MODEL 3
REMARK VINA RESULT:      -6.1      1.526      5.314
REMARK  4 active torsions:
REMARK  status: ('A' for Active; 'I' for Inactive)
REMARK       I    between atoms: N_2  and  C_3 
REMARK    1  A    between atoms: C_3  and  C_8 
REMARK    2  A    between atoms: S_7  and  C_5 
REMARK    3  A    between atoms: C_10  and  C_6 
REMARK    4  A    between atoms: C_8  and  S_7 
ROOT
ATOM      1  N   UNL d   1     -48.179  14.195  22.949  0.00  0.00    -0.148 NA
ATOM      2  N   UNL d   1     -47.483  13.771  23.074  0.00  0.00    -0.141 NA
ATOM      3  C   UNL d   1     -47.507  12.959  23.204  0.00  0.00     0.133 A 
ATOM      4  C   UNL d   1     -48.905  13.798  22.955  0.00  0.00     0.103 A 
ATOM      5  C   UNL d   1     -48.936  12.990  23.084  0.00  0.00     0.023 A 
ATOM      6  C   UNL d   1     -48.246  12.565  23.208  0.00  0.00     0.029 A 
ENDROOT
BRANCH   3   7
ATOM      7  S   UNL d   1     -46.815  12.543  23.327  0.00  0.00    -0.061 SA
BRANCH   7   8
ATOM      8  C   UNL d   1     -46.165  12.672  22.839  0.00  0.00     0.098 C 
BRANCH   8   9
ATOM      9  C   UNL d   1     -45.483  12.220  22.936  0.00  0.00     0.271 C 
ATOM     10  N   UNL d   1     -44.824  12.369  22.462  0.00  0.00    -0.272 N 
ATOM     11  C   UNL d   1     -44.147  11.924  22.555  0.00  0.00     0.083 A 
ATOM     12  C   UNL d   1     -44.858  12.969  21.897  0.00  0.00     0.083 A 
ATOM     13  C   UNL d   1     -43.491  12.065  22.090  0.00  0.00     0.019 A 
ATOM     14  C   UNL d   1     -43.510  12.667  21.515  0.00  0.00     0.003 A 
ATOM     15  C   UNL d   1     -44.199  13.115  21.426  0.00  0.00     0.019 A 
ATOM     16  O   UNL d   1     -45.450  11.626  23.496  0.00  0.00    -0.266 OA
ENDBRANCH   8   9
ENDBRANCH   7   8
ENDBRANCH   3   7
BRANCH   4  17
ATOM     17  C   UNL d   1     -49.602  14.221  22.830  0.00  0.00     0.019 A 
ATOM     18  C   UNL d   1     -49.799  14.857  23.327  0.00  0.00     0.002 A 
ATOM     19  C   UNL d   1     -50.499  15.282  23.201  0.00  0.00     0.000 A 
ATOM     20  C   UNL d   1     -51.007  15.074  22.579  0.00  0.00     0.000 A 
ATOM     21  C   UNL d   1     -50.815  14.448  22.090  0.00  0.00     0.000 A 
ATOM     22  C   UNL d   1     -50.117  14.016  22.206  0.00  0.00     0.002 A 
ENDBRANCH   4  17
TORSDOF 4
ENDMDL
MODEL 4
REMARK VINA RESULT:      -6.0      1.542      2.100
REMARK  4 active torsions:
REMARK  status: ('A' for Active; 'I' for Inactive)
REMARK       I    between atoms: N_2  and  C_3 
REMARK    1  A    between atoms: C_3  and  C_8 
REMARK    2  A    between atoms: S_7  and  C_5 
REMARK    3  A    between atoms: C_10  and  C_6 
REMARK    4  A    between atoms: C_8  and  S_7 
ROOT
ATOM      1  N   UNL d   1     -46.091  12.733  23.342  0.00  0.00    -0.148 NA
ATOM      2  N   UNL d   1     -46.878  12.790  23.583  0.00  0.00    -0.141 NA
ATOM      3  C   UNL d   1     -47.480  12.856  23.027  0.00  0.00     0.133 A 
ATOM      4  C   UNL d   1     -45.910  12.742  22.536  0.00  0.00     0.103 A 
ATOM      5  C   UNL d   1     -46.504  12.808  21.977  0.00  0.00     0.023 A 
ATOM      6  C   UNL d   1     -47.288  12.865  22.212  0.00  0.00     0.029 A 
ENDROOT
BRANCH   3   7
ATOM      7  S   UNL d   1     -48.258  12.913  23.270  0.00  0.00    -0.061 SA
BRANCH   7   8
ATOM      8  C   UNL d   1     -48.665  13.623  23.187  0.00  0.00     0.098 C 
BRANCH   8   9
ATOM      9  C   UNL d   1     -49.459  13.669  23.401  0.00  0.00     0.271 C 
ATOM     10  N   UNL d   1     -49.828  14.405  23.443  0.00  0.00    -0.272 N 
ATOM     11  C   UNL d   1     -50.614  14.455  23.654  0.00  0.00     0.083 A 
ATOM     12  C   UNL d   1     -49.397  15.087  23.269  0.00  0.00     0.083 A 
ATOM     13  C   UNL d   1     -50.987  15.179  23.698  0.00  0.00     0.019 A 
ATOM     14  C   UNL d   1     -50.565  15.876  23.525  0.00  0.00     0.003 A 
ATOM     15  C   UNL d   1     -49.768  15.819  23.312  0.00  0.00     0.019 A 
ATOM     16  O   UNL d   1     -49.886  12.994  23.573  0.00  0.00    -0.266 OA
ENDBRANCH   8   9
ENDBRANCH   7   8
ENDBRANCH   3   7
BRANCH   4  17
ATOM     17  C   UNL d   1     -45.123  12.685  22.294  0.00  0.00     0.019 A 
ATOM     18  C   UNL d   1     -44.645  12.064  22.570  0.00  0.00     0.002 A 
ATOM     19  C   UNL d   1     -43.855  12.007  22.327  0.00  0.00     0.000 A 
ATOM     20  C   UNL d   1     -43.537  12.570  21.806  0.00  0.00     0.000 A 
ATOM     21  C   UNL d   1     -44.006  13.181  21.534  0.00  0.00     0.000 A 
ATOM     22  C   UNL d   1     -44.798  13.248  21.770  0.00  0.00     0.002 A 
ENDBRANCH   4  17
TORSDOF 4
ENDMDL
MODEL 5
REMARK VINA RESULT:      -5.8      1.982      5.095
REMARK  4 active torsions:
REMARK  status: ('A' for Active; 'I' for Inactive)
REMARK       I    between atoms: N_2  and  C_3 
REMARK    1  A    between atoms: C_3  and  C_8 
REMARK    2  A    between atoms: S_7  and  C_5 
REMARK    3  A    between atoms: C_10  and  C_6 
REMARK    4  A    between atoms: C_8  and  S_7 
ROOT
ATOM      1  N   UNL d   1     -48.272  11.423  23.096  0.00  0.00    -0.148 NA
ATOM      2  N   UNL d   1     -47.458  11.326  23.191  0.00  0.00    -0.141 NA
ATOM      3  C   UNL d   1     -46.984  11.964  23.402  0.00  0.00     0.133 A 
ATOM      4  C   UNL d   1     -48.610  12.168  23.216  0.00  0.00     0.103 A 
ATOM      5  C   UNL d   1     -48.144  12.808  23.426  0.00  0.00     0.023 A 
ATOM      6  C   UNL d   1     -47.335  12.715  23.521  0.00  0.00     0.029 A 
ENDROOT
BRANCH   3   7
ATOM      7  S   UNL d   1     -46.179  11.863  23.494  0.00  0.00    -0.061 SA
BRANCH   7   8
ATOM      8  C   UNL d   1     -45.665  12.073  22.887  0.00  0.00     0.098 C 
BRANCH   8   9
ATOM      9  C   UNL d   1     -44.886  11.806  22.898  0.00  0.00     0.271 C 
ATOM     10  N   UNL d   1     -44.333  12.142  22.385  0.00  0.00    -0.272 N 
ATOM     11  C   UNL d   1     -43.561  11.881  22.393  0.00  0.00     0.083 A 
ATOM     12  C   UNL d   1     -44.569  12.740  21.869  0.00  0.00     0.083 A 
ATOM     13  C   UNL d   1     -43.007  12.207  21.890  0.00  0.00     0.019 A 
ATOM     14  C   UNL d   1     -43.230  12.812  21.362  0.00  0.00     0.003 A 
ATOM     15  C   UNL d   1     -44.014  13.072  21.359  0.00  0.00     0.019 A 
ATOM     16  O   UNL d   1     -44.653  11.213  23.409  0.00  0.00    -0.266 OA
ENDBRANCH   8   9
ENDBRANCH   7   8
ENDBRANCH   3   7
BRANCH   4  17
ATOM     17  C   UNL d   1     -49.424  12.267  23.122  0.00  0.00     0.019 A 
ATOM     18  C   UNL d   1     -49.718  12.766  22.527  0.00  0.00     0.002 A 
ATOM     19  C   UNL d   1     -50.536  12.865  22.432  0.00  0.00     0.000 A 
ATOM     20  C   UNL d   1     -51.064  12.465  22.932  0.00  0.00     0.000 A 
ATOM     21  C   UNL d   1     -50.776  11.973  23.517  0.00  0.00     0.000 A 
ATOM     22  C   UNL d   1     -49.960  11.867  23.621  0.00  0.00     0.002 A 
ENDBRANCH   4  17
TORSDOF 4
ENDMDL
MODEL 6
REMARK VINA RESULT:      -5.5      8.558     10.146
REMARK  4 active torsions:
REMARK  status: ('A' for Active; 'I' for Inactive)
REMARK       I    between atoms: N_2  and  C_3 
REMARK    1  A    between atoms: C_3  and  C_8 
REMARK    2  A    between atoms: S_7  and  C_5 
REMARK    3  A    between atoms: C_10  and  C_6 
REMARK    4  A    between atoms: C_8  and  S_7 
ROOT
ATOM      1  N   UNL d   1     -38.270  14.788  17.987  0.00  0.00    -0.148 NA
ATOM      2  N   UNL d   1     -38.508  14.897  18.769  0.00  0.00    -0.141 NA
ATOM      3  C   UNL d   1     -39.190  14.532  19.051  0.00  0.00     0.133 A 
ATOM      4  C   UNL d   1     -38.721  14.308  17.486  0.00  0.00     0.103 A 
ATOM      5  C   UNL d   1     -39.400  13.943  17.761  0.00  0.00     0.023 A 
ATOM      6  C   UNL d   1     -39.640  14.049  18.538  0.00  0.00     0.029 A 
ENDROOT
BRANCH   3   7
ATOM      7  S   UNL d   1     -39.422  14.643  19.827  0.00  0.00    -0.061 SA
BRANCH   7   8
ATOM      8  C   UNL d   1     -39.069  14.207  20.429  0.00  0.00     0.098 C 
BRANCH   8   9
ATOM      9  C   UNL d   1     -39.282  14.342  21.213  0.00  0.00     0.271 C 
ATOM     10  N   UNL d   1     -38.904  13.925  21.816  0.00  0.00    -0.272 N 
ATOM     11  C   UNL d   1     -39.111  14.056  22.593  0.00  0.00     0.083 A 
ATOM     12  C   UNL d   1     -38.316  13.378  21.625  0.00  0.00     0.083 A 
ATOM     13  C   UNL d   1     -38.743  13.648  23.196  0.00  0.00     0.019 A 
ATOM     14  C   UNL d   1     -38.147  13.093  23.019  0.00  0.00     0.003 A 
ATOM     15  C   UNL d   1     -37.941  12.964  22.229  0.00  0.00     0.019 A 
ATOM     16  O   UNL d   1     -39.864  14.884  21.402  0.00  0.00    -0.266 OA
ENDBRANCH   8   9
ENDBRANCH   7   8
ENDBRANCH   3   7
BRANCH   4  17
ATOM     17  C   UNL d   1     -38.483  14.199  16.704  0.00  0.00     0.019 A 
ATOM     18  C   UNL d   1     -38.547  14.821  16.157  0.00  0.00     0.002 A 
ATOM     19  C   UNL d   1     -38.308  14.711  15.371  0.00  0.00     0.000 A 
ATOM     20  C   UNL d   1     -38.004  13.978  15.127  0.00  0.00     0.000 A 
ATOM     21  C   UNL d   1     -37.941  13.366  15.664  0.00  0.00     0.000 A 
ATOM     22  C   UNL d   1     -38.177  13.464  16.452  0.00  0.00     0.002 A 
ENDBRANCH   4  17
TORSDOF 4
ENDMDL
MODEL 7
REMARK VINA RESULT:      -5.3      8.402      9.560
REMARK  4 active torsions:
REMARK  status: ('A' for Active; 'I' for Inactive)
REMARK       I    between atoms: N_2  and  C_3 
REMARK    1  A    between atoms: C_3  and  C_8 
REMARK    2  A    between atoms: S_7  and  C_5 
REMARK    3  A    between atoms: C_10  and  C_6 
REMARK    4  A    between atoms: C_8  and  S_7 
ROOT
ATOM      1  N   UNL d   1     -38.699  15.046  20.848  0.00  0.00    -0.148 NA
ATOM      2  N   UNL d   1     -38.870  15.189  20.054  0.00  0.00    -0.141 NA
ATOM      3  C   UNL d   1     -39.555  14.887  19.714  0.00  0.00     0.133 A 
ATOM      4  C   UNL d   1     -39.222  14.594  21.302  0.00  0.00     0.103 A 
ATOM      5  C   UNL d   1     -39.905  14.290  20.970  0.00  0.00     0.023 A 
ATOM      6  C   UNL d   1     -40.079  14.431  20.181  0.00  0.00     0.029 A 
ENDROOT
BRANCH   3   7
ATOM      7  S   UNL d   1     -39.720  15.031  18.927  0.00  0.00    -0.061 SA
BRANCH   7   8
ATOM      8  C   UNL d   1     -39.343  14.596  18.340  0.00  0.00     0.098 C 
BRANCH   8   9
ATOM      9  C   UNL d   1     -39.401  14.831  17.553  0.00  0.00     0.271 C 
ATOM     10  N   UNL d   1     -38.952  14.445  16.978  0.00  0.00    -0.272 N 
ATOM     11  C   UNL d   1     -39.007  14.675  16.198  0.00  0.00     0.083 A 
ATOM     12  C   UNL d   1     -38.451  13.829  17.200  0.00  0.00     0.083 A 
ATOM     13  C   UNL d   1     -38.567  14.299  15.622  0.00  0.00     0.019 A 
ATOM     14  C   UNL d   1     -38.056  13.675  15.831  0.00  0.00     0.003 A 
ATOM     15  C   UNL d   1     -38.005  13.447  16.623  0.00  0.00     0.019 A 
ATOM     16  O   UNL d   1     -39.898  15.442  17.334  0.00  0.00    -0.266 OA
ENDBRANCH   8   9
ENDBRANCH   7   8
ENDBRANCH   3   7
BRANCH   4  17
ATOM     17  C   UNL d   1     -39.051  14.450  22.097  0.00  0.00     0.019 A 
ATOM     18  C   UNL d   1     -38.984  15.082  22.631  0.00  0.00     0.002 A 
ATOM     19  C   UNL d   1     -38.813  14.937  23.429  0.00  0.00     0.000 A 
ATOM     20  C   UNL d   1     -38.708  14.159  23.698  0.00  0.00     0.000 A 
ATOM     21  C   UNL d   1     -38.775  13.536  23.173  0.00  0.00     0.000 A 
ATOM     22  C   UNL d   1     -38.946  13.669  22.373  0.00  0.00     0.002 A 
ENDBRANCH   4  17
TORSDOF 4
ENDMDL
MODEL 8
REMARK VINA RESULT:      -5.1      8.534      9.749
REMARK  4 active torsions:
REMARK  status: ('A' for Active; 'I' for Inactive)
REMARK       I    between atoms: N_2  and  C_3 
REMARK    1  A    between atoms: C_3  and  C_8 
REMARK    2  A    between atoms: S_7  and  C_5 
REMARK    3  A    between atoms: C_10  and  C_6 
REMARK    4  A    between atoms: C_8  and  S_7 
ROOT
ATOM      1  N   UNL d   1     -40.404  14.370  18.606  0.00  0.00    -0.148 NA
ATOM      2  N   UNL d   1     -40.004  14.077  19.265  0.00  0.00    -0.141 NA
ATOM      3  C   UNL d   1     -39.315  14.440  19.530  0.00  0.00     0.133 A 
ATOM      4  C   UNL d   1     -40.108  15.034  18.212  0.00  0.00     0.103 A 
ATOM      5  C   UNL d   1     -39.423  15.401  18.470  0.00  0.00     0.023 A 
ATOM      6  C   UNL d   1     -39.023  15.112  19.125  0.00  0.00     0.029 A 
ENDROOT
BRANCH   3   7
ATOM      7  S   UNL d   1     -38.922  14.146  20.183  0.00  0.00    -0.061 SA
BRANCH   7   8
ATOM      8  C   UNL d   1     -39.030  14.494  20.920  0.00  0.00     0.098 C 
BRANCH   8   9
ATOM      9  C   UNL d   1     -38.669  14.169  21.585  0.00  0.00     0.271 C 
ATOM     10  N   UNL d   1     -38.652  14.597  22.290  0.00  0.00    -0.272 N 
ATOM     11  C   UNL d   1     -38.296  14.279  22.951  0.00  0.00     0.083 A 
ATOM     12  C   UNL d   1     -38.997  15.346  22.320  0.00  0.00     0.083 A 
ATOM     13  C   UNL d   1     -38.274  14.695  23.653  0.00  0.00     0.019 A 
ATOM     14  C   UNL d   1     -38.618  15.452  23.698  0.00  0.00     0.003 A 
ATOM     15  C   UNL d   1     -38.978  15.769  23.025  0.00  0.00     0.019 A 
ATOM     16  O   UNL d   1     -38.328  13.427  21.556  0.00  0.00    -0.266 OA
ENDBRANCH   8   9
ENDBRANCH   7   8
ENDBRANCH   3   7
BRANCH   4  17
ATOM     17  C   UNL d   1     -40.507  15.329  17.552  0.00  0.00     0.019 A 
ATOM     18  C   UNL d   1     -41.295  15.582  17.620  0.00  0.00     0.002 A 
ATOM     19  C   UNL d   1     -41.697  15.878  16.958  0.00  0.00     0.000 A 
ATOM     20  C   UNL d   1     -41.312  15.922  16.224  0.00  0.00     0.000 A 
ATOM     21  C   UNL d   1     -40.537  15.673  16.155  0.00  0.00     0.000 A 
ATOM     22  C   UNL d   1     -40.126  15.375  16.811  0.00  0.00     0.002 A 
ENDBRANCH   4  17
TORSDOF 4
ENDMDL
MODEL 9
REMARK VINA RESULT:      -4.8      8.490     10.029
REMARK  4 active torsions:
REMARK  status: ('A' for Active; 'I' for Inactive)
REMARK       I    between atoms: N_2  and  C_3 
REMARK    1  A    between atoms: C_3  and  C_8 
REMARK    2  A    between atoms: S_7  and  C_5 
REMARK    3  A    between atoms: C_10  and  C_6 
REMARK    4  A    between atoms: C_8  and  S_7 
ROOT
ATOM      1  N   UNL d   1     -39.576  13.962  17.358  0.00  0.00    -0.148 NA
ATOM      2  N   UNL d   1     -39.937  14.227  18.051  0.00  0.00    -0.141 NA
ATOM      3  C   UNL d   1     -39.759  14.970  18.355  0.00  0.00     0.133 A 
ATOM      4  C   UNL d   1     -39.032  14.449  16.970  0.00  0.00     0.103 A 
ATOM      5  C   UNL d   1     -38.850  15.190  17.267  0.00  0.00     0.023 A 
ATOM      6  C   UNL d   1     -39.207  15.457  17.956  0.00  0.00     0.029 A 
ENDROOT
BRANCH   3   7
ATOM      7  S   UNL d   1     -40.119  15.228  19.042  0.00  0.00    -0.061 SA
BRANCH   7   8
ATOM      8  C   UNL d   1     -39.771  15.077  19.771  0.00  0.00     0.098 C 
BRANCH   8   9
ATOM      9  C   UNL d   1     -40.034  15.476  20.442  0.00  0.00     0.271 C 
ATOM     10  N   UNL d   1     -39.582  15.453  21.133  0.00  0.00    -0.272 N 
ATOM     11  C   UNL d   1     -39.839  15.847  21.799  0.00  0.00     0.083 A 
ATOM     12  C   UNL d   1     -38.874  15.030  21.142  0.00  0.00     0.083 A 
ATOM     13  C   UNL d   1     -39.399  15.830  22.486  0.00  0.00     0.019 A 
ATOM     14  C   UNL d   1     -38.681  15.407  22.511  0.00  0.00     0.003 A 
ATOM     15  C   UNL d   1     -38.427  15.010  21.832  0.00  0.00     0.019 A 
ATOM     16  O   UNL d   1     -40.735  15.894  20.433  0.00  0.00    -0.266 OA
ENDBRANCH   8   9
ENDBRANCH   7   8
ENDBRANCH   3   7
BRANCH   4  17
ATOM     17  C   UNL d   1     -38.670  14.185  16.277  0.00  0.00     0.019 A 
ATOM     18  C   UNL d   1     -38.303  13.441  16.255  0.00  0.00     0.002 A 
ATOM     19  C   UNL d   1     -37.940  13.175  15.559  0.00  0.00     0.000 A 
ATOM     20  C   UNL d   1     -37.941  13.653  14.880  0.00  0.00     0.000 A 
ATOM     21  C   UNL d   1     -38.302  14.386  14.900  0.00  0.00     0.000 A 
ATOM     22  C   UNL d   1     -38.669  14.661  15.591  0.00  0.00     0.002 A 
ENDBRANCH   4  17
TORSDOF 4
ENDMDL
