MODEL 1
REMARK VINA RESULT:      47.4      0.000      0.000
REMARK  10 active torsions:
REMARK  status: ('A' for Active; 'I' for Inactive)
REMARK    1  A    between atoms: C_11  and  S_1 
REMARK    2  A    between atoms: N_12  and  S_1 
REMARK    3  A    between atoms: C_2  and  O_7 
REMARK    4  A    between atoms: C_3  and  S_18 
REMARK    5  A    between atoms: C_6  and  C_17 
REMARK    6  A    between atoms: O_7  and  C_6 
REMARK    7  A    between atoms: C_29  and  N_12 
REMARK    8  A    between atoms: C_30  and  N_12 
REMARK    9  A    between atoms: C_28  and  C_14 
REMARK   10  A    between atoms: S_18  and  C_28 
ROOT
ATOM      1  C   UNL d   1      45.648 -12.933  39.636  0.00  0.00     0.167 A 
ATOM      2  C   UNL d   1      45.077 -12.757  39.057  0.00  0.00     0.222 A 
ATOM      3  C   UNL d   1      45.108 -13.167  38.336  0.00  0.00     0.069 A 
ATOM      4  C   UNL d   1      46.231 -13.502  39.496  0.00  0.00     0.151 A 
ATOM      5  O   UNL d   1      46.248 -13.901  38.776  0.00  0.00    -0.302 OA
ATOM      6  C   UNL d   1      45.690 -13.736  38.196  0.00  0.00     0.110 A 
ATOM      7  O   UNL d   1      44.501 -12.193  39.196  0.00  0.00    -0.284 OA
ENDROOT
BRANCH   1   8
ATOM      8  O   UNL d   1      45.799 -12.652  40.402  0.00  0.00    -0.268 OA
BRANCH   8   9
ATOM      9  C   UNL d   1      45.172 -12.486  40.913  0.00  0.00     0.300 C 
ATOM     10  O   UNL d   1      44.457 -12.232  40.600  0.00  0.00    -0.259 OA
BRANCH   9  11
ATOM     11  C   UNL d   1      45.269 -12.577  41.723  0.00  0.00     0.064 A 
ATOM     12  C   UNL d   1      44.707 -12.278  42.256  0.00  0.00     0.006 A 
ATOM     13  C   UNL d   1      44.809 -12.371  43.046  0.00  0.00     0.013 A 
ATOM     14  C   UNL d   1      45.458 -12.756  43.340  0.00  0.00     0.104 A 
ATOM     15  C   UNL d   1      46.017 -13.055  42.823  0.00  0.00     0.013 A 
ATOM     16  C   UNL d   1      45.931 -12.970  42.018  0.00  0.00     0.006 A 
BRANCH  14  17
ATOM     17  S   UNL d   1      45.563 -12.852  44.159  0.00  0.00     0.271 S 
ATOM     18  O   UNL d   1      45.831 -12.080  43.986  0.00  0.00    -0.200 OA
ATOM     19  O   UNL d   1      45.751 -12.725  44.954  0.00  0.00    -0.200 OA
BRANCH  17  20
ATOM     20  N   UNL d   1      45.358 -13.552  44.528  0.00  0.00    -0.229 N 
BRANCH  20  21
ATOM     21  C   UNL d   1      45.918 -14.133  44.637  0.00  0.00     0.092 C 
ATOM     22  C   UNL d   1      45.688 -14.918  44.765  0.00  0.00     0.021 C 
ENDBRANCH  20  21
BRANCH  20  23
ATOM     23  C   UNL d   1      44.584 -13.669  44.790  0.00  0.00     0.092 C 
ATOM     24  C   UNL d   1      44.259 -14.418  44.794  0.00  0.00     0.021 C 
ENDBRANCH  20  23
ENDBRANCH  17  20
ENDBRANCH  14  17
ENDBRANCH   9  11
ENDBRANCH   8   9
ENDBRANCH   1   8
BRANCH   6  25
ATOM     25  C   UNL d   1      45.711 -14.138  37.476  0.00  0.00     0.063 C 
BRANCH  25  26
ATOM     26  S   UNL d   1      44.930 -14.112  37.198  0.00  0.00    -0.046 SA
BRANCH  26  27
ATOM     27  C   UNL d   1      44.574 -14.792  36.910  0.00  0.00     0.194 A 
ATOM     28  N   UNL d   1      45.031 -15.461  36.764  0.00  0.00    -0.221 NA
ATOM     29  C   UNL d   1      44.680 -16.139  36.477  0.00  0.00     0.085 A 
ATOM     30  C   UNL d   1      45.136 -16.807  36.331  0.00  0.00     0.021 C 
ATOM     31  C   UNL d   1      43.864 -16.157  36.332  0.00  0.00     0.038 A 
ATOM     32  C   UNL d   1      43.417 -15.478  36.483  0.00  0.00     0.085 A 
ATOM     33  N   UNL d   1      43.777 -14.803  36.770  0.00  0.00    -0.221 NA
ATOM     34  C   UNL d   1      42.602 -15.496  36.338  0.00  0.00     0.021 C 
ENDBRANCH  26  27
ENDBRANCH  25  26
ENDBRANCH   6  25
TORSDOF 10
ENDMDL
MODEL 2
REMARK VINA RESULT:      50.0      3.038      3.960
REMARK  10 active torsions:
REMARK  status: ('A' for Active; 'I' for Inactive)
REMARK    1  A    between atoms: C_11  and  S_1 
REMARK    2  A    between atoms: N_12  and  S_1 
REMARK    3  A    between atoms: C_2  and  O_7 
REMARK    4  A    between atoms: C_3  and  S_18 
REMARK    5  A    between atoms: C_6  and  C_17 
REMARK    6  A    between atoms: O_7  and  C_6 
REMARK    7  A    between atoms: C_29  and  N_12 
REMARK    8  A    between atoms: C_30  and  N_12 
REMARK    9  A    between atoms: C_28  and  C_14 
REMARK   10  A    between atoms: S_18  and  C_28 
ROOT
ATOM      1  C   UNL d   1      45.448 -18.181  41.332  0.00  0.00     0.167 A 
ATOM      2  C   UNL d   1      46.001 -18.468  40.782  0.00  0.00     0.222 A 
ATOM      3  C   UNL d   1      45.900 -18.272  39.981  0.00  0.00     0.069 A 
ATOM      4  C   UNL d   1      44.813 -17.712  41.088  0.00  0.00     0.151 A 
ATOM      5  O   UNL d   1      44.725 -17.526  40.291  0.00  0.00    -0.302 OA
ATOM      6  C   UNL d   1      45.265 -17.803  39.737  0.00  0.00     0.110 A 
ATOM      7  O   UNL d   1      46.630 -18.932  41.023  0.00  0.00    -0.284 OA
ENDROOT
BRANCH   1   8
ATOM      8  O   UNL d   1      45.361 -18.253  42.154  0.00  0.00    -0.268 OA
BRANCH   8   9
ATOM      9  C   UNL d   1      45.988 -18.063  42.655  0.00  0.00     0.300 C 
ATOM     10  O   UNL d   1      46.635 -18.566  42.696  0.00  0.00    -0.259 OA
BRANCH   9  11
ATOM     11  C   UNL d   1      45.961 -17.376  43.104  0.00  0.00     0.064 A 
ATOM     12  C   UNL d   1      45.845 -17.408  43.925  0.00  0.00     0.006 A 
ATOM     13  C   UNL d   1      45.819 -16.732  44.356  0.00  0.00     0.013 A 
ATOM     14  C   UNL d   1      45.905 -16.009  44.003  0.00  0.00     0.104 A 
ATOM     15  C   UNL d   1      46.019 -15.967  43.194  0.00  0.00     0.013 A 
ATOM     16  C   UNL d   1      46.048 -16.641  42.740  0.00  0.00     0.006 A 
BRANCH  14  17
ATOM     17  S   UNL d   1      45.878 -15.308  44.451  0.00  0.00     0.271 S 
ATOM     18  O   UNL d   1      46.636 -15.632  44.583  0.00  0.00    -0.200 OA
ATOM     19  O   UNL d   1      46.073 -14.680  44.951  0.00  0.00    -0.200 OA
BRANCH  17  20
ATOM     20  N   UNL d   1      45.209 -14.839  44.454  0.00  0.00    -0.229 N 
BRANCH  20  21
ATOM     21  C   UNL d   1      44.516 -15.123  44.774  0.00  0.00     0.092 C 
ATOM     22  C   UNL d   1      43.843 -14.642  44.813  0.00  0.00     0.021 C 
ENDBRANCH  20  21
BRANCH  20  23
ATOM     23  C   UNL d   1      45.234 -14.079  44.134  0.00  0.00     0.092 C 
ATOM     24  C   UNL d   1      44.577 -13.764  43.764  0.00  0.00     0.021 C 
ENDBRANCH  20  23
ENDBRANCH  17  20
ENDBRANCH  14  17
ENDBRANCH   9  11
ENDBRANCH   8   9
ENDBRANCH   1   8
BRANCH   6  25
ATOM     25  C   UNL d   1      45.173 -17.614  38.940  0.00  0.00     0.063 C 
BRANCH  25  26
ATOM     26  S   UNL d   1      44.979 -16.808  38.935  0.00  0.00    -0.046 SA
BRANCH  26  27
ATOM     27  C   UNL d   1      44.842 -16.423  38.224  0.00  0.00     0.194 A 
ATOM     28  N   UNL d   1      44.085 -16.422  37.900  0.00  0.00    -0.221 NA
ATOM     29  C   UNL d   1      43.946 -16.039  37.194  0.00  0.00     0.085 A 
ATOM     30  C   UNL d   1      43.190 -16.038  36.870  0.00  0.00     0.021 C 
ATOM     31  C   UNL d   1      44.563 -15.651  36.801  0.00  0.00     0.038 A 
ATOM     32  C   UNL d   1      45.318 -15.660  37.137  0.00  0.00     0.085 A 
ATOM     33  N   UNL d   1      45.449 -16.045  37.845  0.00  0.00    -0.221 NA
ATOM     34  C   UNL d   1      45.936 -15.272  36.744  0.00  0.00     0.021 C 
ENDBRANCH  26  27
ENDBRANCH  25  26
ENDBRANCH   6  25
TORSDOF 10
ENDMDL
