MODEL 1
REMARK VINA RESULT:      -7.2      0.000      0.000
REMARK  4 active torsions:
REMARK  status: ('A' for Active; 'I' for Inactive)
REMARK    1  A    between atoms: C_6  and  C_4 
REMARK    2  A    between atoms: C_9  and  C_6 
REMARK    3  A    between atoms: O_15  and  C_8 
REMARK    4  A    between atoms: O_16  and  C_12 
ROOT
ATOM      1  C   UNL d   1      53.598  31.973  54.194  0.00  0.00     0.116 A 
ATOM      2  C   UNL d   1      53.099  32.840  53.176  0.00  0.00     0.003 A 
ATOM      3  C   UNL d   1      53.468  32.728  53.905  0.00  0.00     0.026 A 
ATOM      4  C   UNL d   1      53.360  31.309  53.754  0.00  0.00     0.116 A 
ATOM      5  C   UNL d   1      52.989  31.425  53.020  0.00  0.00     0.026 A 
ATOM      6  C   UNL d   1      52.859  32.180  52.731  0.00  0.00     0.002 A 
ENDROOT
BRANCH   2   7
ATOM      7  C   UNL d   1      52.969  33.600  52.886  0.00  0.00     0.009 C 
BRANCH   7   8
ATOM      8  C   UNL d   1      52.242  33.961  52.996  0.00  0.00     0.062 A 
ATOM      9  C   UNL d   1      52.117  34.715  53.319  0.00  0.00     0.145 A 
ATOM     10  N   UNL d   1      51.305  34.859  53.328  0.00  0.00    -0.191 NA
ATOM     11  S   UNL d   1      52.706  35.224  53.583  0.00  0.00    -0.057 SA
ATOM     12  C   UNL d   1      50.924  34.195  53.010  0.00  0.00     0.311 A 
ATOM     13  S   UNL d   1      51.503  33.648  52.809  0.00  0.00    -0.023 SA
ATOM     14  O   UNL d   1      50.109  34.108  52.917  0.00  0.00    -0.258 OA
ENDBRANCH   7   8
ENDBRANCH   2   7
BRANCH   1  15
ATOM     15  O   UNL d   1      53.968  31.870  54.926  0.00  0.00    -0.326 OA
ATOM     16  C   UNL d   1      54.203  32.534  55.367  0.00  0.00     0.181 C 
ENDBRANCH   1  15
BRANCH   4  17
ATOM     17  O   UNL d   1      53.487  30.552  54.035  0.00  0.00    -0.326 OA
ATOM     18  C   UNL d   1      53.226  29.897  53.605  0.00  0.00     0.181 C 
ENDBRANCH   4  17
TORSDOF 4
ENDMDL
MODEL 2
REMARK VINA RESULT:      -7.1      2.344      3.870
REMARK  4 active torsions:
REMARK  status: ('A' for Active; 'I' for Inactive)
REMARK    1  A    between atoms: C_6  and  C_4 
REMARK    2  A    between atoms: C_9  and  C_6 
REMARK    3  A    between atoms: O_15  and  C_8 
REMARK    4  A    between atoms: O_16  and  C_12 
ROOT
ATOM      1  C   UNL d   1      52.788  33.042  53.814  0.00  0.00     0.116 A 
ATOM      2  C   UNL d   1      53.535  31.853  53.559  0.00  0.00     0.003 A 
ATOM      3  C   UNL d   1      52.871  32.324  53.429  0.00  0.00     0.026 A 
ATOM      4  C   UNL d   1      53.375  33.305  54.342  0.00  0.00     0.116 A 
ATOM      5  C   UNL d   1      54.043  32.829  54.470  0.00  0.00     0.026 A 
ATOM      6  C   UNL d   1      54.126  32.111  54.085  0.00  0.00     0.002 A 
ENDROOT
BRANCH   2   7
ATOM      7  C   UNL d   1      53.618  31.131  53.171  0.00  0.00     0.009 C 
BRANCH   7   8
ATOM      8  C   UNL d   1      53.373  30.440  53.536  0.00  0.00     0.062 A 
ATOM      9  C   UNL d   1      52.956  29.821  53.174  0.00  0.00     0.145 A 
ATOM     10  N   UNL d   1      52.824  29.236  53.741  0.00  0.00    -0.191 NA
ATOM     11  S   UNL d   1      52.720  29.800  52.387  0.00  0.00    -0.057 SA
ATOM     12  C   UNL d   1      53.158  29.491  54.454  0.00  0.00     0.311 A 
ATOM     13  S   UNL d   1      53.493  30.229  54.323  0.00  0.00    -0.023 SA
ATOM     14  O   UNL d   1      53.150  29.071  55.165  0.00  0.00    -0.258 OA
ENDBRANCH   7   8
ENDBRANCH   2   7
BRANCH   1  15
ATOM     15  O   UNL d   1      52.119  33.508  53.678  0.00  0.00    -0.326 OA
ATOM     16  C   UNL d   1      51.731  33.470  52.943  0.00  0.00     0.181 C 
ENDBRANCH   1  15
BRANCH   4  17
ATOM     17  O   UNL d   1      53.299  34.020  54.730  0.00  0.00    -0.326 OA
ATOM     18  C   UNL d   1      53.913  34.306  55.202  0.00  0.00     0.181 C 
ENDBRANCH   4  17
TORSDOF 4
ENDMDL
MODEL 3
REMARK VINA RESULT:      -7.0      1.650      2.583
REMARK  4 active torsions:
REMARK  status: ('A' for Active; 'I' for Inactive)
REMARK    1  A    between atoms: C_6  and  C_4 
REMARK    2  A    between atoms: C_9  and  C_6 
REMARK    3  A    between atoms: O_15  and  C_8 
REMARK    4  A    between atoms: O_16  and  C_12 
ROOT
ATOM      1  C   UNL d   1      52.331  31.778  53.182  0.00  0.00     0.116 A 
ATOM      2  C   UNL d   1      53.419  32.689  53.332  0.00  0.00     0.003 A 
ATOM      3  C   UNL d   1      52.611  32.544  53.255  0.00  0.00     0.026 A 
ATOM      4  C   UNL d   1      52.860  31.136  53.187  0.00  0.00     0.116 A 
ATOM      5  C   UNL d   1      53.673  31.285  53.265  0.00  0.00     0.026 A 
ATOM      6  C   UNL d   1      53.953  32.051  53.338  0.00  0.00     0.002 A 
ENDROOT
BRANCH   2   7
ATOM      7  C   UNL d   1      53.700  33.460  53.405  0.00  0.00     0.009 C 
BRANCH   7   8
ATOM      8  C   UNL d   1      53.956  33.737  54.132  0.00  0.00     0.062 A 
ATOM      9  C   UNL d   1      53.715  34.441  54.497  0.00  0.00     0.145 A 
ATOM     10  N   UNL d   1      54.108  34.504  55.220  0.00  0.00    -0.191 NA
ATOM     11  S   UNL d   1      53.177  34.980  54.186  0.00  0.00    -0.057 SA
ATOM     12  C   UNL d   1      54.593  33.838  55.305  0.00  0.00     0.311 A 
ATOM     13  S   UNL d   1      54.496  33.371  54.636  0.00  0.00    -0.023 SA
ATOM     14  O   UNL d   1      55.083  33.680  55.951  0.00  0.00    -0.258 OA
ENDBRANCH   7   8
ENDBRANCH   2   7
BRANCH   1  15
ATOM     15  O   UNL d   1      51.520  31.641  53.105  0.00  0.00    -0.326 OA
ATOM     16  C   UNL d   1      50.991  32.282  53.110  0.00  0.00     0.181 C 
ENDBRANCH   1  15
BRANCH   4  17
ATOM     17  O   UNL d   1      52.589  30.368  53.115  0.00  0.00    -0.326 OA
ATOM     18  C   UNL d   1      53.062  29.734  53.349  0.00  0.00     0.181 C 
ENDBRANCH   4  17
TORSDOF 4
ENDMDL
MODEL 4
REMARK VINA RESULT:      -6.9      2.175      3.398
REMARK  4 active torsions:
REMARK  status: ('A' for Active; 'I' for Inactive)
REMARK    1  A    between atoms: C_6  and  C_4 
REMARK    2  A    between atoms: C_9  and  C_6 
REMARK    3  A    between atoms: O_15  and  C_8 
REMARK    4  A    between atoms: O_16  and  C_12 
ROOT
ATOM      1  C   UNL d   1      53.608  33.223  54.406  0.00  0.00     0.116 A 
ATOM      2  C   UNL d   1      53.518  32.161  53.458  0.00  0.00     0.003 A 
ATOM      3  C   UNL d   1      53.801  32.463  54.171  0.00  0.00     0.026 A 
ATOM      4  C   UNL d   1      53.123  33.700  53.928  0.00  0.00     0.116 A 
ATOM      5  C   UNL d   1      52.839  33.393  53.210  0.00  0.00     0.026 A 
ATOM      6  C   UNL d   1      53.032  32.633  52.975  0.00  0.00     0.002 A 
ENDROOT
BRANCH   2   7
ATOM      7  C   UNL d   1      53.712  31.396  53.221  0.00  0.00     0.009 C 
BRANCH   7   8
ATOM      8  C   UNL d   1      53.188  30.780  53.353  0.00  0.00     0.062 A 
ATOM      9  C   UNL d   1      53.392  30.004  53.561  0.00  0.00     0.145 A 
ATOM     10  N   UNL d   1      52.696  29.568  53.638  0.00  0.00    -0.191 NA
ATOM     11  S   UNL d   1      54.158  29.724  53.668  0.00  0.00    -0.057 SA
ATOM     12  C   UNL d   1      52.059  30.073  53.479  0.00  0.00     0.311 A 
ATOM     13  S   UNL d   1      52.366  30.815  53.305  0.00  0.00    -0.023 SA
ATOM     14  O   UNL d   1      51.262  29.860  53.496  0.00  0.00    -0.258 OA
ENDBRANCH   7   8
ENDBRANCH   2   7
BRANCH   1  15
ATOM     15  O   UNL d   1      53.896  33.519  55.123  0.00  0.00    -0.326 OA
ATOM     16  C   UNL d   1      54.655  33.300  55.384  0.00  0.00     0.181 C 
ENDBRANCH   1  15
BRANCH   4  17
ATOM     17  O   UNL d   1      52.926  34.460  54.156  0.00  0.00    -0.326 OA
ATOM     18  C   UNL d   1      52.437  34.925  53.681  0.00  0.00     0.181 C 
ENDBRANCH   4  17
TORSDOF 4
ENDMDL
MODEL 5
REMARK VINA RESULT:      -6.7      1.742      3.477
REMARK  4 active torsions:
REMARK  status: ('A' for Active; 'I' for Inactive)
REMARK    1  A    between atoms: C_6  and  C_4 
REMARK    2  A    between atoms: C_9  and  C_6 
REMARK    3  A    between atoms: O_15  and  C_8 
REMARK    4  A    between atoms: O_16  and  C_12 
ROOT
ATOM      1  C   UNL d   1      51.992  34.645  53.527  0.00  0.00     0.116 A 
ATOM      2  C   UNL d   1      52.633  33.519  52.927  0.00  0.00     0.003 A 
ATOM      3  C   UNL d   1      52.650  34.165  53.439  0.00  0.00     0.026 A 
ATOM      4  C   UNL d   1      51.297  34.486  53.099  0.00  0.00     0.116 A 
ATOM      5  C   UNL d   1      51.283  33.835  52.584  0.00  0.00     0.026 A 
ATOM      6  C   UNL d   1      51.940  33.355  52.496  0.00  0.00     0.002 A 
ENDROOT
BRANCH   2   7
ATOM      7  C   UNL d   1      53.295  33.037  52.839  0.00  0.00     0.009 C 
BRANCH   7   8
ATOM      8  C   UNL d   1      53.279  32.266  53.114  0.00  0.00     0.062 A 
ATOM      9  C   UNL d   1      53.829  31.923  53.631  0.00  0.00     0.145 A 
ATOM     10  N   UNL d   1      53.605  31.140  53.762  0.00  0.00    -0.191 NA
ATOM     11  S   UNL d   1      54.482  32.304  53.955  0.00  0.00    -0.057 SA
ATOM     12  C   UNL d   1      52.916  30.996  53.325  0.00  0.00     0.311 A 
ATOM     13  S   UNL d   1      52.721  31.688  52.929  0.00  0.00    -0.023 SA
ATOM     14  O   UNL d   1      52.506  30.279  53.297  0.00  0.00    -0.258 OA
ENDBRANCH   7   8
ENDBRANCH   2   7
BRANCH   1  15
ATOM     15  O   UNL d   1      52.018  35.291  54.043  0.00  0.00    -0.326 OA
ATOM     16  C   UNL d   1      52.736  35.498  54.408  0.00  0.00     0.181 C 
ENDBRANCH   1  15
BRANCH   4  17
ATOM     17  O   UNL d   1      50.636  34.960  53.181  0.00  0.00    -0.326 OA
ATOM     18  C   UNL d   1      49.913  34.728  52.857  0.00  0.00     0.181 C 
ENDBRANCH   4  17
TORSDOF 4
ENDMDL
MODEL 6
REMARK VINA RESULT:      -6.2      1.978      3.478
REMARK  4 active torsions:
REMARK  status: ('A' for Active; 'I' for Inactive)
REMARK    1  A    between atoms: C_6  and  C_4 
REMARK    2  A    between atoms: C_9  and  C_6 
REMARK    3  A    between atoms: O_15  and  C_8 
REMARK    4  A    between atoms: O_16  and  C_12 
ROOT
ATOM      1  C   UNL d   1      51.175  33.203  53.143  0.00  0.00     0.116 A 
ATOM      2  C   UNL d   1      52.498  33.738  53.109  0.00  0.00     0.003 A 
ATOM      3  C   UNL d   1      51.984  33.102  53.215  0.00  0.00     0.026 A 
ATOM      4  C   UNL d   1      50.861  33.952  52.962  0.00  0.00     0.116 A 
ATOM      5  C   UNL d   1      51.381  34.591  52.856  0.00  0.00     0.026 A 
ATOM      6  C   UNL d   1      52.190  34.489  52.928  0.00  0.00     0.002 A 
ENDROOT
BRANCH   2   7
ATOM      7  C   UNL d   1      53.312  33.634  53.182  0.00  0.00     0.009 C 
BRANCH   7   8
ATOM      8  C   UNL d   1      53.671  33.708  53.914  0.00  0.00     0.062 A 
ATOM      9  C   UNL d   1      54.301  33.248  54.195  0.00  0.00     0.145 A 
ATOM     10  N   UNL d   1      54.489  33.507  54.956  0.00  0.00    -0.191 NA
ATOM     11  S   UNL d   1      54.669  32.639  53.782  0.00  0.00    -0.057 SA
ATOM     12  C   UNL d   1      53.976  34.129  55.147  0.00  0.00     0.311 A 
ATOM     13  S   UNL d   1      53.477  34.248  54.506  0.00  0.00    -0.023 SA
ATOM     14  O   UNL d   1      53.974  34.548  55.859  0.00  0.00    -0.258 OA
ENDBRANCH   7   8
ENDBRANCH   2   7
BRANCH   1  15
ATOM     15  O   UNL d   1      50.667  32.560  53.251  0.00  0.00    -0.326 OA
ATOM     16  C   UNL d   1      50.974  31.787  53.254  0.00  0.00     0.181 C 
ENDBRANCH   1  15
BRANCH   4  17
ATOM     17  O   UNL d   1      50.054  34.062  52.888  0.00  0.00    -0.326 OA
ATOM     18  C   UNL d   1      49.744  34.819  52.777  0.00  0.00     0.181 C 
ENDBRANCH   4  17
TORSDOF 4
ENDMDL
MODEL 7
REMARK VINA RESULT:      -6.1      1.248      2.126
REMARK  4 active torsions:
REMARK  status: ('A' for Active; 'I' for Inactive)
REMARK    1  A    between atoms: C_6  and  C_4 
REMARK    2  A    between atoms: C_9  and  C_6 
REMARK    3  A    between atoms: O_15  and  C_8 
REMARK    4  A    between atoms: O_16  and  C_12 
ROOT
ATOM      1  C   UNL d   1      53.710  32.597  54.036  0.00  0.00     0.116 A 
ATOM      2  C   UNL d   1      52.501  33.353  53.972  0.00  0.00     0.003 A 
ATOM      3  C   UNL d   1      52.921  32.658  53.829  0.00  0.00     0.026 A 
ATOM      4  C   UNL d   1      54.100  33.238  54.396  0.00  0.00     0.116 A 
ATOM      5  C   UNL d   1      53.675  33.937  54.539  0.00  0.00     0.026 A 
ATOM      6  C   UNL d   1      52.885  33.998  54.331  0.00  0.00     0.002 A 
ENDROOT
BRANCH   2   7
ATOM      7  C   UNL d   1      51.707  33.413  53.763  0.00  0.00     0.009 C 
BRANCH   7   8
ATOM      8  C   UNL d   1      51.494  33.778  53.061  0.00  0.00     0.062 A 
ATOM      9  C   UNL d   1      50.769  34.149  52.906  0.00  0.00     0.145 A 
ATOM     10  N   UNL d   1      50.790  34.441  52.135  0.00  0.00    -0.191 NA
ATOM     11  S   UNL d   1      50.142  34.210  53.435  0.00  0.00    -0.057 SA
ATOM     12  C   UNL d   1      51.528  34.253  51.811  0.00  0.00     0.311 A 
ATOM     13  S   UNL d   1      51.956  33.847  52.382  0.00  0.00    -0.023 SA
ATOM     14  O   UNL d   1      51.780  34.443  51.048  0.00  0.00    -0.258 OA
ENDBRANCH   7   8
ENDBRANCH   2   7
BRANCH   1  15
ATOM     15  O   UNL d   1      54.123  31.896  53.889  0.00  0.00    -0.326 OA
ATOM     16  C   UNL d   1      53.704  31.191  53.753  0.00  0.00     0.181 C 
ENDBRANCH   1  15
BRANCH   4  17
ATOM     17  O   UNL d   1      54.888  33.186  54.606  0.00  0.00    -0.326 OA
ATOM     18  C   UNL d   1      55.246  33.790  55.040  0.00  0.00     0.181 C 
ENDBRANCH   4  17
TORSDOF 4
ENDMDL
MODEL 8
REMARK VINA RESULT:      -5.8      1.502      2.049
REMARK  4 active torsions:
REMARK  status: ('A' for Active; 'I' for Inactive)
REMARK    1  A    between atoms: C_6  and  C_4 
REMARK    2  A    between atoms: C_9  and  C_6 
REMARK    3  A    between atoms: O_15  and  C_8 
REMARK    4  A    between atoms: O_16  and  C_12 
ROOT
ATOM      1  C   UNL d   1      53.338  30.215  54.044  0.00  0.00     0.116 A 
ATOM      2  C   UNL d   1      53.724  31.538  53.673  0.00  0.00     0.003 A 
ATOM      3  C   UNL d   1      53.734  30.912  54.210  0.00  0.00     0.026 A 
ATOM      4  C   UNL d   1      52.920  30.129  53.331  0.00  0.00     0.116 A 
ATOM      5  C   UNL d   1      52.911  30.762  52.792  0.00  0.00     0.026 A 
ATOM      6  C   UNL d   1      53.308  31.459  52.957  0.00  0.00     0.002 A 
ENDROOT
BRANCH   2   7
ATOM      7  C   UNL d   1      54.123  32.239  53.840  0.00  0.00     0.009 C 
BRANCH   7   8
ATOM      8  C   UNL d   1      53.703  32.908  54.057  0.00  0.00     0.062 A 
ATOM      9  C   UNL d   1      53.939  33.468  54.621  0.00  0.00     0.145 A 
ATOM     10  N   UNL d   1      53.354  34.048  54.666  0.00  0.00    -0.191 NA
ATOM     11  S   UNL d   1      54.636  33.443  55.057  0.00  0.00    -0.057 SA
ATOM     12  C   UNL d   1      52.755  33.849  54.130  0.00  0.00     0.311 A 
ATOM     13  S   UNL d   1      52.974  33.150  53.759  0.00  0.00    -0.023 SA
ATOM     14  O   UNL d   1      52.065  34.283  53.998  0.00  0.00    -0.258 OA
ENDBRANCH   7   8
ENDBRANCH   2   7
BRANCH   1  15
ATOM     15  O   UNL d   1      53.353  29.592  54.588  0.00  0.00    -0.326 OA
ATOM     16  C   UNL d   1      53.334  29.756  55.404  0.00  0.00     0.181 C 
ENDBRANCH   1  15
BRANCH   4  17
ATOM     17  O   UNL d   1      52.522  29.437  53.158  0.00  0.00    -0.326 OA
ATOM     18  C   UNL d   1      52.414  29.201  52.374  0.00  0.00     0.181 C 
ENDBRANCH   4  17
TORSDOF 4
ENDMDL
