MODEL 1
REMARK VINA RESULT:       0.2      0.000      0.000
REMARK  8 active torsions:
REMARK  status: ('A' for Active; 'I' for Inactive)
REMARK    1  A    between atoms: C_7  and  N_1 
REMARK    2  A    between atoms: C_2  and  C_5 
REMARK    3  A    between atoms: C_9  and  C_4 
REMARK       I    between atoms: N_20  and  C_9 
REMARK    4  A    between atoms: O_25  and  C_14 
REMARK    5  A    between atoms: O_26  and  C_16 
REMARK    6  A    between atoms: C_27  and  N_20 
REMARK    7  A    between atoms: C_23  and  C_28 
REMARK    8  A    between atoms: C_28  and  C_27 
ROOT
ATOM      1  C   UNL d   1      59.148  -9.763  31.314  0.00  0.00     0.101 A 
ATOM      2  O   UNL d   1      59.205  -9.766  32.137  0.00  0.00    -0.302 OA
ATOM      3  C   UNL d   1      60.004  -9.776  32.330  0.00  0.00     0.158 A 
ATOM      4  C   UNL d   1      59.901  -9.771  30.997  0.00  0.00     0.027 A 
ATOM      5  C   UNL d   1      60.442  -9.779  31.630  0.00  0.00     0.032 A 
ENDROOT
BRANCH   3   6
ATOM      6  C   UNL d   1      60.319  -9.782  33.093  0.00  0.00     0.302 C 
ATOM      7  O   UNL d   1      61.132  -9.814  33.205  0.00  0.00    -0.263 OA
ATOM      8  N   UNL d   1      59.814  -9.755  33.743  0.00  0.00    -0.205 NA
BRANCH   8   9
ATOM      9  C   UNL d   1      60.130  -9.761  34.508  0.00  0.00     0.102 C 
BRANCH   9  10
ATOM     10  C   UNL d   1      59.728  -9.391  35.126  0.00  0.00     0.021 C 
BRANCH  10  11
ATOM     11  C   UNL d   1      59.890  -8.612  35.313  0.00  0.00     0.004 A 
ATOM     12  C   UNL d   1      59.269  -8.088  35.438  0.00  0.00     0.026 A 
ATOM     13  C   UNL d   1      59.431  -7.302  35.627  0.00  0.00     0.116 A 
ATOM     14  C   UNL d   1      60.215  -7.043  35.690  0.00  0.00     0.116 A 
ATOM     15  C   UNL d   1      60.833  -7.571  35.564  0.00  0.00     0.026 A 
ATOM     16  C   UNL d   1      60.670  -8.358  35.376  0.00  0.00     0.002 A 
BRANCH  13  17
ATOM     17  O   UNL d   1      58.810  -6.769  35.754  0.00  0.00    -0.326 OA
ATOM     18  C   UNL d   1      58.029  -7.042  35.732  0.00  0.00     0.181 C 
ENDBRANCH  13  17
BRANCH  14  19
ATOM     19  O   UNL d   1      60.375  -6.259  35.878  0.00  0.00    -0.326 OA
ATOM     20  C   UNL d   1      61.103  -6.054  36.202  0.00  0.00     0.181 C 
ENDBRANCH  14  19
ENDBRANCH  10  11
ENDBRANCH   9  10
ENDBRANCH   8   9
ENDBRANCH   3   6
BRANCH   1  21
ATOM     21  C   UNL d   1      58.441  -9.753  30.889  0.00  0.00     0.034 A 
ATOM     22  C   UNL d   1      57.711  -9.762  31.280  0.00  0.00     0.004 A 
ATOM     23  C   UNL d   1      57.011  -9.752  30.844  0.00  0.00     0.024 A 
ATOM     24  C   UNL d   1      57.037  -9.734  30.024  0.00  0.00     0.128 A 
ATOM     25  C   UNL d   1      57.766  -9.726  29.633  0.00  0.00     0.035 A 
ATOM     26  C   UNL d   1      58.468  -9.736  30.062  0.00  0.00     0.061 A 
ATOM     27 CL   UNL d   1      59.187  -9.727  29.668  0.00  0.00    -0.082 Cl
BRANCH  24  28
ATOM     28  N   UNL d   1      56.335  -9.724  29.585  0.00  0.00    -0.114 N 
ATOM     29  O   UNL d   1      55.607  -9.817  29.959  0.00  0.00    -0.532 OA
ATOM     30  O   UNL d   1      56.367  -9.621  28.768  0.00  0.00    -0.532 OA
ENDBRANCH  24  28
ENDBRANCH   1  21
TORSDOF 8
ENDMDL
MODEL 2
REMARK VINA RESULT:       1.9      8.811     10.599
REMARK  8 active torsions:
REMARK  status: ('A' for Active; 'I' for Inactive)
REMARK    1  A    between atoms: C_7  and  N_1 
REMARK    2  A    between atoms: C_2  and  C_5 
REMARK    3  A    between atoms: C_9  and  C_4 
REMARK       I    between atoms: N_20  and  C_9 
REMARK    4  A    between atoms: O_25  and  C_14 
REMARK    5  A    between atoms: O_26  and  C_16 
REMARK    6  A    between atoms: C_27  and  N_20 
REMARK    7  A    between atoms: C_23  and  C_28 
REMARK    8  A    between atoms: C_28  and  C_27 
ROOT
ATOM      1  C   UNL d   1      56.654   0.629  32.968  0.00  0.00     0.101 A 
ATOM      2  O   UNL d   1      56.519   0.599  32.155  0.00  0.00    -0.302 OA
ATOM      3  C   UNL d   1      57.251   0.605  31.780  0.00  0.00     0.158 A 
ATOM      4  C   UNL d   1      57.459   0.654  33.101  0.00  0.00     0.027 A 
ATOM      5  C   UNL d   1      57.839   0.639  32.359  0.00  0.00     0.032 A 
ENDROOT
BRANCH   3   6
ATOM      6  C   UNL d   1      57.381   0.581  30.966  0.00  0.00     0.302 C 
ATOM      7  O   UNL d   1      56.746   0.544  30.446  0.00  0.00    -0.263 OA
ATOM      8  N   UNL d   1      58.152   0.594  30.676  0.00  0.00    -0.205 NA
BRANCH   8   9
ATOM      9  C   UNL d   1      58.283   0.570  29.859  0.00  0.00     0.102 C 
BRANCH   9  10
ATOM     10  C   UNL d   1      59.046   0.469  29.564  0.00  0.00     0.021 C 
BRANCH  10  11
ATOM     11  C   UNL d   1      59.297  -0.270  29.318  0.00  0.00     0.004 A 
ATOM     12  C   UNL d   1      59.938  -0.623  29.690  0.00  0.00     0.026 A 
ATOM     13  C   UNL d   1      60.192  -1.368  29.443  0.00  0.00     0.116 A 
ATOM     14  C   UNL d   1      59.803  -1.756  28.824  0.00  0.00     0.116 A 
ATOM     15  C   UNL d   1      59.161  -1.398  28.455  0.00  0.00     0.026 A 
ATOM     16  C   UNL d   1      58.907  -0.652  28.703  0.00  0.00     0.002 A 
BRANCH  13  17
ATOM     17  O   UNL d   1      60.839  -1.730  29.814  0.00  0.00    -0.326 OA
ATOM     18  C   UNL d   1      61.133  -1.413  30.519  0.00  0.00     0.181 C 
ENDBRANCH  13  17
BRANCH  14  19
ATOM     19  O   UNL d   1      60.057  -2.498  28.579  0.00  0.00    -0.326 OA
ATOM     20  C   UNL d   1      59.517  -3.114  28.503  0.00  0.00     0.181 C 
ENDBRANCH  14  19
ENDBRANCH  10  11
ENDBRANCH   9  10
ENDBRANCH   8   9
ENDBRANCH   3   6
BRANCH   1  21
ATOM     21  C   UNL d   1      56.064   0.633  33.545  0.00  0.00     0.034 A 
ATOM     22  C   UNL d   1      56.259   0.675  34.349  0.00  0.00     0.004 A 
ATOM     23  C   UNL d   1      55.660   0.679  34.916  0.00  0.00     0.024 A 
ATOM     24  C   UNL d   1      54.874   0.641  34.687  0.00  0.00     0.128 A 
ATOM     25  C   UNL d   1      54.679   0.599  33.883  0.00  0.00     0.035 A 
ATOM     26  C   UNL d   1      55.271   0.595  33.312  0.00  0.00     0.061 A 
ATOM     27 CL   UNL d   1      55.072   0.553  32.518  0.00  0.00    -0.082 Cl
BRANCH  24  28
ATOM     28  N   UNL d   1      54.272   0.645  35.255  0.00  0.00    -0.114 N 
ATOM     29  O   UNL d   1      54.456   0.611  36.057  0.00  0.00    -0.532 OA
ATOM     30  O   UNL d   1      53.485   0.682  35.015  0.00  0.00    -0.532 OA
ENDBRANCH  24  28
ENDBRANCH   1  21
TORSDOF 8
ENDMDL
