MODEL 1
REMARK VINA RESULT:      -5.6      0.000      0.000
REMARK  5 active torsions:
REMARK  status: ('A' for Active; 'I' for Inactive)
REMARK    1  A    between atoms: O_8  and  S_1 
REMARK    2  A    between atoms: C_9  and  S_1 
REMARK    3  A    between atoms: C_7  and  C_2 
REMARK    4  A    between atoms: C_20  and  C_7 
REMARK    5  A    between atoms: C_14  and  O_8 
ROOT
ATOM      1  C   UNL d   1     -42.637-123.166 -49.376  0.00  0.00     0.139 A 
ATOM      2  C   UNL d   1     -42.676-122.418 -50.474  0.00  0.00     0.064 A 
ATOM      3  C   UNL d   1     -43.085-122.607 -49.787  0.00  0.00     0.220 A 
ATOM      4  C   UNL d   1     -41.977-122.855 -50.494  0.00  0.00     0.105 A 
ATOM      5  O   UNL d   1     -41.954-123.320 -49.811  0.00  0.00    -0.304 OA
ATOM      6  C   UNL d   1     -41.465-122.771 -51.122  0.00  0.00     0.050 A 
ATOM      7  C   UNL d   1     -42.854-121.899 -51.088  0.00  0.00     0.007 A 
ATOM      8  C   UNL d   1     -41.643-122.252 -51.736  0.00  0.00     0.116 A 
ATOM      9  O   UNL d   1     -43.810-122.300 -49.543  0.00  0.00    -0.284 OA
ATOM     10  C   UNL d   1     -42.335-121.819 -51.717  0.00  0.00     0.026 A 
ENDROOT
BRANCH   8  11
ATOM     11  O   UNL d   1     -41.123-122.171 -52.368  0.00  0.00    -0.227 OA
BRANCH  11  12
ATOM     12  S   UNL d   1     -41.407-122.194 -53.143  0.00  0.00     0.304 S 
ATOM     13  O   UNL d   1     -41.298-122.999 -53.159  0.00  0.00    -0.193 OA
ATOM     14  O   UNL d   1     -41.521-121.381 -53.139  0.00  0.00    -0.193 OA
BRANCH  12  15
ATOM     15  C   UNL d   1     -41.693-122.222 -53.925  0.00  0.00     0.111 A 
ATOM     16  C   UNL d   1     -41.448-122.831 -54.428  0.00  0.00     0.016 A 
ATOM     17  C   UNL d   1     -41.731-122.860 -55.202  0.00  0.00     0.030 A 
ATOM     18  C   UNL d   1     -42.259-122.279 -55.474  0.00  0.00     0.140 A 
ATOM     19  C   UNL d   1     -42.497-121.673 -54.961  0.00  0.00     0.030 A 
ATOM     20  F   UNL d   1     -42.538-122.307 -56.236  0.00  0.00    -0.204 F 
ATOM     21  C   UNL d   1     -42.212-121.648 -54.187  0.00  0.00     0.016 A 
ENDBRANCH  12  15
ENDBRANCH  11  12
ENDBRANCH   8  11
BRANCH   1  22
ATOM     22  C   UNL d   1     -42.835-123.514 -48.654  0.00  0.00     0.029 C 
BRANCH  22  23
ATOM     23  C   UNL d   1     -42.339-123.430 -47.997  0.00  0.00     0.021 A 
ATOM     24  C   UNL d   1     -42.579-122.955 -47.373  0.00  0.00     0.099 A 
ATOM     25  N   UNL d   1     -42.098-122.863 -46.716  0.00  0.00    -0.242 NA
ATOM     26  C   UNL d   1     -41.363-123.255 -46.683  0.00  0.00     0.099 A 
ATOM     27  C   UNL d   1     -41.125-123.733 -47.314  0.00  0.00     0.021 A 
ATOM     28  C   UNL d   1     -41.621-123.817 -47.971  0.00  0.00     0.003 A 
ENDBRANCH  22  23
ENDBRANCH   1  22
TORSDOF 5
ENDMDL
MODEL 2
REMARK VINA RESULT:      -3.4      2.692      5.743
REMARK  5 active torsions:
REMARK  status: ('A' for Active; 'I' for Inactive)
REMARK    1  A    between atoms: O_8  and  S_1 
REMARK    2  A    between atoms: C_9  and  S_1 
REMARK    3  A    between atoms: C_7  and  C_2 
REMARK    4  A    between atoms: C_20  and  C_7 
REMARK    5  A    between atoms: C_14  and  O_8 
ROOT
ATOM      1  C   UNL d   1     -41.200-121.914 -53.417  0.00  0.00     0.139 A 
ATOM      2  C   UNL d   1     -41.263-121.935 -52.089  0.00  0.00     0.064 A 
ATOM      3  C   UNL d   1     -41.201-121.439 -52.742  0.00  0.00     0.220 A 
ATOM      4  C   UNL d   1     -41.300-122.715 -52.354  0.00  0.00     0.105 A 
ATOM      5  O   UNL d   1     -41.261-122.701 -53.178  0.00  0.00    -0.304 OA
ATOM      6  C   UNL d   1     -41.363-123.323 -51.814  0.00  0.00     0.050 A 
ATOM      7  C   UNL d   1     -41.290-121.772 -51.282  0.00  0.00     0.007 A 
ATOM      8  C   UNL d   1     -41.390-123.160 -51.007  0.00  0.00     0.116 A 
ATOM      9  O   UNL d   1     -41.150-120.616 -52.734  0.00  0.00    -0.284 OA
ATOM     10  C   UNL d   1     -41.353-122.387 -50.745  0.00  0.00     0.026 A 
ENDROOT
BRANCH   8  11
ATOM     11  O   UNL d   1     -41.454-123.776 -50.466  0.00  0.00    -0.227 OA
BRANCH  11  12
ATOM     12  S   UNL d   1     -41.838-123.655 -49.746  0.00  0.00     0.304 S 
ATOM     13  O   UNL d   1     -42.552-123.816 -50.099  0.00  0.00    -0.193 OA
ATOM     14  O   UNL d   1     -41.123-123.490 -49.377  0.00  0.00    -0.193 OA
BRANCH  12  15
ATOM     15  C   UNL d   1     -42.230-123.534 -49.020  0.00  0.00     0.111 A 
ATOM     16  C   UNL d   1     -41.815-123.214 -48.380  0.00  0.00     0.016 A 
ATOM     17  C   UNL d   1     -42.202-123.093 -47.662  0.00  0.00     0.030 A 
ATOM     18  C   UNL d   1     -43.005-123.294 -47.583  0.00  0.00     0.140 A 
ATOM     19  C   UNL d   1     -43.410-123.614 -48.232  0.00  0.00     0.030 A 
ATOM     20  F   UNL d   1     -43.386-123.175 -46.876  0.00  0.00    -0.204 F 
ATOM     21  C   UNL d   1     -43.019-123.733 -48.948  0.00  0.00     0.016 A 
ENDBRANCH  12  15
ENDBRANCH  11  12
ENDBRANCH   8  11
BRANCH   1  22
ATOM     22  C   UNL d   1     -41.147-121.652 -54.198  0.00  0.00     0.029 C 
BRANCH  22  23
ATOM     23  C   UNL d   1     -41.724-121.864 -54.753  0.00  0.00     0.021 A 
ATOM     24  C   UNL d   1     -42.411-121.421 -54.805  0.00  0.00     0.099 A 
ATOM     25  N   UNL d   1     -42.990-121.620 -55.350  0.00  0.00    -0.242 NA
ATOM     26  C   UNL d   1     -42.878-122.276 -55.853  0.00  0.00     0.099 A 
ATOM     27  C   UNL d   1     -42.182-122.719 -55.797  0.00  0.00     0.021 A 
ATOM     28  C   UNL d   1     -41.607-122.507 -55.242  0.00  0.00     0.003 A 
ENDBRANCH  22  23
ENDBRANCH   1  22
TORSDOF 5
ENDMDL
