MODEL 1
REMARK VINA RESULT:      33.0      0.000      0.000
REMARK  4 active torsions:
REMARK  status: ('A' for Active; 'I' for Inactive)
REMARK    1  A    between atoms: C_7  and  N_2 
REMARK    2  A    between atoms: C_10  and  C_7 
REMARK    3  A    between atoms: O_8  and  C_10 
REMARK    4  A    between atoms: C_9  and  O_8 
ROOT
ATOM      1  C   UNL d   1     -51.208  24.442  33.342  0.00  0.00     0.296 A 
ATOM      2  N   UNL d   1     -51.830  24.982  33.337  0.00  0.00    -0.266 N 
ATOM      3  S   UNL d   1     -51.542  23.672  33.334  0.00  0.00    -0.025 SA
ATOM      4  C   UNL d   1     -52.542  24.557  33.326  0.00  0.00     0.074 A 
ATOM      5  C   UNL d   1     -52.366  23.755  33.325  0.00  0.00     0.050 A 
ATOM      6  O   UNL d   1     -50.407  24.618  33.352  0.00  0.00    -0.259 OA
ATOM      7  C   UNL d   1     -53.329  24.811  33.318  0.00  0.00     0.018 A 
ATOM      8  C   UNL d   1     -52.972  23.189  33.314  0.00  0.00     0.008 A 
ATOM      9  C   UNL d   1     -53.937  24.250  33.308  0.00  0.00     0.002 A 
ATOM     10  C   UNL d   1     -53.760  23.448  33.306  0.00  0.00     0.001 A 
ENDROOT
BRANCH   2  11
ATOM     11  C   UNL d   1     -51.757  25.804  33.342  0.00  0.00     0.110 C 
BRANCH  11  12
ATOM     12  C   UNL d   1     -51.014  26.156  33.369  0.00  0.00     0.142 C 
BRANCH  12  13
ATOM     13  O   UNL d   1     -50.928  26.977  33.311  0.00  0.00    -0.304 OA
BRANCH  13  14
ATOM     14  C   UNL d   1     -50.292  27.357  33.673  0.00  0.00     0.100 A 
ATOM     15  C   UNL d   1     -50.278  28.181  33.723  0.00  0.00     0.025 A 
ATOM     16  C   UNL d   1     -49.643  28.557  34.083  0.00  0.00     0.002 A 
ATOM     17  C   UNL d   1     -49.024  28.109  34.393  0.00  0.00     0.000 A 
ATOM     18  C   UNL d   1     -49.041  27.283  34.342  0.00  0.00     0.002 A 
ATOM     19  C   UNL d   1     -49.681  26.914  33.979  0.00  0.00     0.025 A 
ENDBRANCH  13  14
ENDBRANCH  12  13
ENDBRANCH  11  12
ENDBRANCH   2  11
TORSDOF 4
ENDMDL
