MODEL 1
REMARK VINA RESULT:      -4.2      0.000      0.000
REMARK  5 active torsions:
REMARK  status: ('A' for Active; 'I' for Inactive)
REMARK    1  A    between atoms: S_6  and  C_2 
REMARK    2  A    between atoms: C_11  and  S_6 
REMARK    3  A    between atoms: C_7  and  C_11 
REMARK       I    between atoms: N_8  and  C_7 
REMARK    4  A    between atoms: C_13  and  N_8 
REMARK    5  A    between atoms: C_14  and  C_13 
ROOT
ATOM      1  S   UNL d   1     -41.611-122.106 -52.510  0.00  0.00    -0.080 SA
ENDROOT
BRANCH   1   2
ATOM      2  C   UNL d   1     -41.602-122.406 -53.278  0.00  0.00     0.049 A 
ATOM      3  C   UNL d   1     -41.254-123.109 -53.521  0.00  0.00     0.087 A 
ATOM      4  N   UNL d   1     -41.380-123.191 -54.344  0.00  0.00    -0.302 N 
ATOM      5  C   UNL d   1     -41.811-122.525 -54.598  0.00  0.00     0.065 A 
ATOM      6  C   UNL d   1     -41.124-123.816 -54.815  0.00  0.00     0.100 C 
ATOM      7  C   UNL d   1     -41.948-122.042 -53.943  0.00  0.00     0.024 A 
ATOM      8  C   UNL d   1     -42.088-122.312 -55.344  0.00  0.00     0.018 A 
ATOM      9  C   UNL d   1     -42.367-121.338 -54.039  0.00  0.00     0.002 A 
ATOM     10  C   UNL d   1     -42.645-121.120 -54.778  0.00  0.00     0.000 A 
ATOM     11  C   UNL d   1     -42.508-121.604 -55.433  0.00  0.00     0.002 A 
ENDBRANCH   1   2
BRANCH   1  12
ATOM     12  C   UNL d   1     -41.446-122.608 -51.872  0.00  0.00     0.098 C 
BRANCH  12  13
ATOM     13  C   UNL d   1     -41.503-122.323 -51.099  0.00  0.00     0.286 C 
ATOM     14  N   UNL d   1     -41.819-122.804 -50.510  0.00  0.00    -0.204 NA
ATOM     15  O   UNL d   1     -41.244-121.563 -50.918  0.00  0.00    -0.265 OA
BRANCH  14  16
ATOM     16  C   UNL d   1     -41.876-122.520 -49.735  0.00  0.00     0.127 C 
BRANCH  16  17
ATOM     17  C   UNL d   1     -42.244-122.967 -49.167  0.00  0.00     0.119 A 
ATOM     18  O   UNL d   1     -43.043-123.169 -49.142  0.00  0.00    -0.304 OA
ATOM     19  C   UNL d   1     -43.174-123.632 -48.462  0.00  0.00     0.123 A 
ATOM     20  C   UNL d   1     -42.453-123.714 -48.070  0.00  0.00     0.029 A 
ATOM     21  C   UNL d   1     -41.885-123.307 -48.501  0.00  0.00     0.028 A 
ENDBRANCH  16  17
ENDBRANCH  14  16
ENDBRANCH  12  13
ENDBRANCH   1  12
TORSDOF 5
ENDMDL
MODEL 2
REMARK VINA RESULT:      -3.3      1.347      5.137
REMARK  5 active torsions:
REMARK  status: ('A' for Active; 'I' for Inactive)
REMARK    1  A    between atoms: S_6  and  C_2 
REMARK    2  A    between atoms: C_11  and  S_6 
REMARK    3  A    between atoms: C_7  and  C_11 
REMARK       I    between atoms: N_8  and  C_7 
REMARK    4  A    between atoms: C_13  and  N_8 
REMARK    5  A    between atoms: C_14  and  C_13 
ROOT
ATOM      1  S   UNL d   1     -42.073-123.083 -51.167  0.00  0.00    -0.080 SA
ENDROOT
BRANCH   1   2
ATOM      2  C   UNL d   1     -42.033-123.058 -50.344  0.00  0.00     0.049 A 
ATOM      3  C   UNL d   1     -41.400-122.789 -49.896  0.00  0.00     0.087 A 
ATOM      4  N   UNL d   1     -41.601-122.866 -49.088  0.00  0.00    -0.302 N 
ATOM      5  C   UNL d   1     -42.369-123.186 -49.052  0.00  0.00     0.065 A 
ATOM      6  C   UNL d   1     -41.127-122.661 -48.447  0.00  0.00     0.100 C 
ATOM      7  C   UNL d   1     -42.635-123.305 -49.824  0.00  0.00     0.024 A 
ATOM      8  C   UNL d   1     -42.845-123.380 -48.407  0.00  0.00     0.018 A 
ATOM      9  C   UNL d   1     -43.387-123.621 -49.950  0.00  0.00     0.002 A 
ATOM     10  C   UNL d   1     -43.865-123.815 -49.314  0.00  0.00     0.000 A 
ATOM     11  C   UNL d   1     -43.599-123.696 -48.542  0.00  0.00     0.002 A 
ENDBRANCH   1   2
BRANCH   1  12
ATOM     12  C   UNL d   1     -41.431-122.812 -51.617  0.00  0.00     0.098 C 
BRANCH  12  13
ATOM     13  C   UNL d   1     -41.352-123.048 -52.405  0.00  0.00     0.286 C 
ATOM     14  N   UNL d   1     -41.504-122.507 -53.008  0.00  0.00    -0.204 NA
ATOM     15  O   UNL d   1     -41.123-123.817 -52.585  0.00  0.00    -0.265 OA
BRANCH  14  16
ATOM     16  C   UNL d   1     -41.425-122.743 -53.797  0.00  0.00     0.127 C 
BRANCH  16  17
ATOM     17  C   UNL d   1     -41.810-122.330 -54.381  0.00  0.00     0.119 A 
ATOM     18  O   UNL d   1     -42.264-121.649 -54.284  0.00  0.00    -0.304 OA
ATOM     19  C   UNL d   1     -42.551-121.418 -55.031  0.00  0.00     0.123 A 
ATOM     20  C   UNL d   1     -42.272-121.959 -55.587  0.00  0.00     0.029 A 
ATOM     21  C   UNL d   1     -41.819-122.516 -55.189  0.00  0.00     0.028 A 
ENDBRANCH  16  17
ENDBRANCH  14  16
ENDBRANCH  12  13
ENDBRANCH   1  12
TORSDOF 5
ENDMDL
