MODEL 1
REMARK VINA RESULT:      -7.3      0.000      0.000
REMARK  4 active torsions:
REMARK  status: ('A' for Active; 'I' for Inactive)
REMARK    1  A    between atoms: N_2  and  C_1 
REMARK       I    between atoms: C_3  and  N_2 
REMARK    2  A    between atoms: C_6  and  C_3 
REMARK    3  A    between atoms: C_11  and  C_7 
REMARK    4  A    between atoms: C_10  and  C_11 
ROOT
ATOM      1  C   UNL d   1     -46.325  12.671  23.293  0.00  0.00     0.197 A 
ATOM      2  N   UNL d   1     -45.964  13.384  23.187  0.00  0.00    -0.219 NA
ATOM      3  S   UNL d   1     -47.146  12.774  23.184  0.00  0.00    -0.047 SA
ATOM      4  C   UNL d   1     -47.267  13.570  23.010  0.00  0.00     0.051 A 
ATOM      5  C   UNL d   1     -46.548  13.959  23.008  0.00  0.00     0.108 A 
ENDROOT
BRANCH   1   6
ATOM      6  N   UNL d   1     -45.937  11.954  23.479  0.00  0.00    -0.182 NA
ATOM      7  C   UNL d   1     -45.235  11.747  23.112  0.00  0.00     0.287 C 
ATOM      8  O   UNL d   1     -44.919  12.251  22.560  0.00  0.00    -0.265 OA
BRANCH   7   9
ATOM      9  C   UNL d   1     -44.863  11.054  23.295  0.00  0.00     0.087 A 
ATOM     10  S   UNL d   1     -44.086  10.948  23.108  0.00  0.00    -0.082 SA
ATOM     11  C   UNL d   1     -43.869  10.184  23.367  0.00  0.00     0.036 A 
ATOM     12  C   UNL d   1     -44.488   9.843  23.697  0.00  0.00     0.008 A 
ATOM     13  C   UNL d   1     -45.134  10.368  23.668  0.00  0.00     0.012 A 
ENDBRANCH   7   9
ENDBRANCH   1   6
BRANCH   4  14
ATOM     14  C   UNL d   1     -47.933  14.007  22.850  0.00  0.00     0.009 C 
BRANCH  14  15
ATOM     15  C   UNL d   1     -48.520  13.695  22.338  0.00  0.00     0.011 A 
ATOM     16  C   UNL d   1     -49.309  13.891  22.456  0.00  0.00     0.058 A 
ATOM     17 CL   UNL d   1     -49.535  14.395  23.078  0.00  0.00    -0.082 Cl
ATOM     18  C   UNL d   1     -49.901  13.579  21.943  0.00  0.00     0.011 A 
ATOM     19  C   UNL d   1     -49.700  13.088  21.334  0.00  0.00     0.001 A 
ATOM     20  C   UNL d   1     -48.909  12.881  21.202  0.00  0.00     0.000 A 
ATOM     21  C   UNL d   1     -48.320  13.193  21.714  0.00  0.00     0.001 A 
ENDBRANCH  14  15
ENDBRANCH   4  14
TORSDOF 4
ENDMDL
MODEL 2
REMARK VINA RESULT:      -6.4      1.625      2.228
REMARK  4 active torsions:
REMARK  status: ('A' for Active; 'I' for Inactive)
REMARK    1  A    between atoms: N_2  and  C_1 
REMARK       I    between atoms: C_3  and  N_2 
REMARK    2  A    between atoms: C_6  and  C_3 
REMARK    3  A    between atoms: C_11  and  C_7 
REMARK    4  A    between atoms: C_10  and  C_11 
ROOT
ATOM      1  C   UNL d   1     -47.510  13.993  22.455  0.00  0.00     0.197 A 
ATOM      2  N   UNL d   1     -47.593  14.691  22.851  0.00  0.00    -0.219 NA
ATOM      3  S   UNL d   1     -48.267  13.658  22.353  0.00  0.00    -0.047 SA
ATOM      4  C   UNL d   1     -48.807  14.175  22.699  0.00  0.00     0.051 A 
ATOM      5  C   UNL d   1     -48.406  14.816  23.010  0.00  0.00     0.108 A 
ENDROOT
BRANCH   1   6
ATOM      6  N   UNL d   1     -46.785  13.667  22.194  0.00  0.00    -0.182 NA
ATOM      7  C   UNL d   1     -46.225  13.402  22.729  0.00  0.00     0.287 C 
ATOM      8  O   UNL d   1     -46.385  13.461  23.523  0.00  0.00    -0.265 OA
BRANCH   7   9
ATOM      9  C   UNL d   1     -45.527  13.088  22.474  0.00  0.00     0.087 A 
ATOM     10  S   UNL d   1     -45.267  12.383  22.767  0.00  0.00    -0.082 SA
ATOM     11  C   UNL d   1     -44.538  12.213  22.396  0.00  0.00     0.036 A 
ATOM     12  C   UNL d   1     -44.365  12.790  21.900  0.00  0.00     0.008 A 
ATOM     13  C   UNL d   1     -44.971  13.360  21.925  0.00  0.00     0.012 A 
ENDBRANCH   7   9
ENDBRANCH   1   6
BRANCH   4  14
ATOM     14  C   UNL d   1     -49.615  14.160  22.779  0.00  0.00     0.009 C 
BRANCH  14  15
ATOM     15  C   UNL d   1     -50.003  13.432  22.939  0.00  0.00     0.011 A 
ATOM     16  C   UNL d   1     -50.660  13.215  22.497  0.00  0.00     0.058 A 
ATOM     17 CL   UNL d   1     -50.948  13.707  21.891  0.00  0.00    -0.082 Cl
ATOM     18  C   UNL d   1     -51.050  12.485  22.656  0.00  0.00     0.011 A 
ATOM     19  C   UNL d   1     -50.784  11.995  23.240  0.00  0.00     0.001 A 
ATOM     20  C   UNL d   1     -50.122  12.200  23.695  0.00  0.00     0.000 A 
ATOM     21  C   UNL d   1     -49.734  12.928  23.535  0.00  0.00     0.001 A 
ENDBRANCH  14  15
ENDBRANCH   4  14
TORSDOF 4
ENDMDL
MODEL 3
REMARK VINA RESULT:      -6.2      2.286      4.839
REMARK  4 active torsions:
REMARK  status: ('A' for Active; 'I' for Inactive)
REMARK    1  A    between atoms: N_2  and  C_1 
REMARK       I    between atoms: C_3  and  N_2 
REMARK    2  A    between atoms: C_6  and  C_3 
REMARK    3  A    between atoms: C_11  and  C_7 
REMARK    4  A    between atoms: C_10  and  C_11 
ROOT
ATOM      1  C   UNL d   1     -48.485  12.672  23.290  0.00  0.00     0.197 A 
ATOM      2  N   UNL d   1     -48.546  11.868  23.247  0.00  0.00    -0.219 NA
ATOM      3  S   UNL d   1     -47.686  12.866  23.429  0.00  0.00    -0.047 SA
ATOM      4  C   UNL d   1     -47.269  12.157  23.467  0.00  0.00     0.051 A 
ATOM      5  C   UNL d   1     -47.786  11.533  23.356  0.00  0.00     0.108 A 
ENDROOT
BRANCH   1   6
ATOM      6  N   UNL d   1     -49.119  13.211  23.210  0.00  0.00    -0.182 NA
ATOM      7  C   UNL d   1     -49.474  13.339  22.484  0.00  0.00     0.287 C 
ATOM      8  O   UNL d   1     -49.200  12.931  21.837  0.00  0.00    -0.265 OA
BRANCH   7   9
ATOM      9  C   UNL d   1     -50.086  13.860  22.410  0.00  0.00     0.087 A 
ATOM     10  S   UNL d   1     -50.467  13.942  21.704  0.00  0.00    -0.082 SA
ATOM     11  C   UNL d   1     -51.064  14.517  21.809  0.00  0.00     0.036 A 
ATOM     12  C   UNL d   1     -51.046  14.771  22.546  0.00  0.00     0.008 A 
ATOM     13  C   UNL d   1     -50.437  14.374  22.954  0.00  0.00     0.012 A 
ENDBRANCH   7   9
ENDBRANCH   1   6
BRANCH   4  14
ATOM     14  C   UNL d   1     -46.485  11.980  23.587  0.00  0.00     0.009 C 
BRANCH  14  15
ATOM     15  C   UNL d   1     -45.906  12.290  23.064  0.00  0.00     0.011 A 
ATOM     16  C   UNL d   1     -45.221  11.861  22.915  0.00  0.00     0.058 A 
ATOM     17 CL   UNL d   1     -45.093  11.122  23.275  0.00  0.00    -0.082 Cl
ATOM     18  C   UNL d   1     -44.638  12.169  22.390  0.00  0.00     0.011 A 
ATOM     19  C   UNL d   1     -44.745  12.885  22.031  0.00  0.00     0.001 A 
ATOM     20  C   UNL d   1     -45.430  13.330  22.171  0.00  0.00     0.000 A 
ATOM     21  C   UNL d   1     -46.010  13.021  22.695  0.00  0.00     0.001 A 
ENDBRANCH  14  15
ENDBRANCH   4  14
TORSDOF 4
ENDMDL
MODEL 4
REMARK VINA RESULT:      -6.0      7.675      8.778
REMARK  4 active torsions:
REMARK  status: ('A' for Active; 'I' for Inactive)
REMARK    1  A    between atoms: N_2  and  C_1 
REMARK       I    between atoms: C_3  and  N_2 
REMARK    2  A    between atoms: C_6  and  C_3 
REMARK    3  A    between atoms: C_11  and  C_7 
REMARK    4  A    between atoms: C_10  and  C_11 
ROOT
ATOM      1  C   UNL d   1     -40.200  14.997  20.231  0.00  0.00     0.197 A 
ATOM      2  N   UNL d   1     -40.766  14.423  20.202  0.00  0.00    -0.219 NA
ATOM      3  S   UNL d   1     -40.010  15.218  19.450  0.00  0.00    -0.047 SA
ATOM      4  C   UNL d   1     -40.478  14.761  18.950  0.00  0.00     0.051 A 
ATOM      5  C   UNL d   1     -40.950  14.265  19.399  0.00  0.00     0.108 A 
ENDROOT
BRANCH   1   6
ATOM      6  N   UNL d   1     -39.865  15.312  20.930  0.00  0.00    -0.182 NA
ATOM      7  C   UNL d   1     -39.435  14.839  21.442  0.00  0.00     0.287 C 
ATOM      8  O   UNL d   1     -39.338  14.053  21.260  0.00  0.00    -0.265 OA
BRANCH   7   9
ATOM      9  C   UNL d   1     -39.114  15.146  22.116  0.00  0.00     0.087 A 
ATOM     10  S   UNL d   1     -38.688  14.676  22.613  0.00  0.00    -0.082 SA
ATOM     11  C   UNL d   1     -38.434  15.154  23.250  0.00  0.00     0.036 A 
ATOM     12  C   UNL d   1     -38.696  15.881  23.142  0.00  0.00     0.008 A 
ATOM     13  C   UNL d   1     -39.130  15.910  22.432  0.00  0.00     0.012 A 
ENDBRANCH   7   9
ENDBRANCH   1   6
BRANCH   4  14
ATOM     14  C   UNL d   1     -40.549  14.718  18.142  0.00  0.00     0.009 C 
BRANCH  14  15
ATOM     15  C   UNL d   1     -39.914  14.410  17.686  0.00  0.00     0.011 A 
ATOM     16  C   UNL d   1     -39.692  14.786  16.990  0.00  0.00     0.058 A 
ATOM     17 CL   UNL d   1     -40.089  15.470  16.730  0.00  0.00    -0.082 Cl
ATOM     18  C   UNL d   1     -39.056  14.479  16.531  0.00  0.00     0.011 A 
ATOM     19  C   UNL d   1     -38.660  13.817  16.768  0.00  0.00     0.001 A 
ATOM     20  C   UNL d   1     -38.871  13.426  17.468  0.00  0.00     0.000 A 
ATOM     21  C   UNL d   1     -39.506  13.733  17.924  0.00  0.00     0.001 A 
ENDBRANCH  14  15
ENDBRANCH   4  14
TORSDOF 4
ENDMDL
MODEL 5
REMARK VINA RESULT:      -6.0      7.810      9.169
REMARK  4 active torsions:
REMARK  status: ('A' for Active; 'I' for Inactive)
REMARK    1  A    between atoms: N_2  and  C_1 
REMARK       I    between atoms: C_3  and  N_2 
REMARK    2  A    between atoms: C_6  and  C_3 
REMARK    3  A    between atoms: C_11  and  C_7 
REMARK    4  A    between atoms: C_10  and  C_11 
ROOT
ATOM      1  C   UNL d   1     -39.808  14.654  18.793  0.00  0.00     0.197 A 
ATOM      2  N   UNL d   1     -40.534  14.324  18.920  0.00  0.00    -0.219 NA
ATOM      3  S   UNL d   1     -39.545  14.988  19.511  0.00  0.00    -0.047 SA
ATOM      4  C   UNL d   1     -40.131  14.849  20.071  0.00  0.00     0.051 A 
ATOM      5  C   UNL d   1     -40.748  14.440  19.722  0.00  0.00     0.108 A 
ENDROOT
BRANCH   1   6
ATOM      6  N   UNL d   1     -39.398  14.658  18.065  0.00  0.00    -0.182 NA
ATOM      7  C   UNL d   1     -39.248  13.962  17.662  0.00  0.00     0.287 C 
ATOM      8  O   UNL d   1     -39.507  13.261  17.982  0.00  0.00    -0.265 OA
BRANCH   7   9
ATOM      9  C   UNL d   1     -38.852  13.969  16.958  0.00  0.00     0.087 A 
ATOM     10  S   UNL d   1     -38.291  13.410  16.803  0.00  0.00    -0.082 SA
ATOM     11  C   UNL d   1     -37.988  13.568  16.040  0.00  0.00     0.036 A 
ATOM     12  C   UNL d   1     -38.349  14.195  15.748  0.00  0.00     0.008 A 
ATOM     13  C   UNL d   1     -38.902  14.473  16.306  0.00  0.00     0.012 A 
ENDBRANCH   7   9
ENDBRANCH   1   6
BRANCH   4  14
ATOM     14  C   UNL d   1     -40.201  15.035  20.859  0.00  0.00     0.009 C 
BRANCH  14  15
ATOM     15  C   UNL d   1     -39.684  14.677  21.416  0.00  0.00     0.011 A 
ATOM     16  C   UNL d   1     -39.390  15.121  22.041  0.00  0.00     0.058 A 
ATOM     17 CL   UNL d   1     -39.596  15.921  22.132  0.00  0.00    -0.082 Cl
ATOM     18  C   UNL d   1     -38.871  14.764  22.602  0.00  0.00     0.011 A 
ATOM     19  C   UNL d   1     -38.659  13.988  22.531  0.00  0.00     0.001 A 
ATOM     20  C   UNL d   1     -38.948  13.527  21.905  0.00  0.00     0.000 A 
ATOM     21  C   UNL d   1     -39.465  13.884  21.347  0.00  0.00     0.001 A 
ENDBRANCH  14  15
ENDBRANCH   4  14
TORSDOF 4
ENDMDL
