MODEL 1
REMARK VINA RESULT:      -8.1      0.000      0.000
REMARK  8 active torsions:
REMARK  status: ('A' for Active; 'I' for Inactive)
REMARK    1  A    between atoms: C_6  and  C_1 
REMARK    2  A    between atoms: C_8  and  N_3 
REMARK    3  A    between atoms: C_7  and  C_6 
REMARK    4  A    between atoms: C_9  and  C_7 
REMARK    5  A    between atoms: C_14  and  C_8 
REMARK    6  A    between atoms: C_17  and  C_14 
REMARK    7  A    between atoms: C_15  and  C_16 
REMARK    8  A    between atoms: C_16  and  C_17 
ROOT
ATOM      1  C   UNL d   1      52.501  34.233  53.541  0.00  0.00     0.148 A 
ATOM      2  N   UNL d   1      52.971  34.817  54.095  0.00  0.00    -0.227 NA
ATOM      3  N   UNL d   1      52.902  33.403  53.624  0.00  0.00    -0.289 N 
ATOM      4  C   UNL d   1      53.609  33.464  54.217  0.00  0.00     0.083 A 
ATOM      5  C   UNL d   1      53.653  34.359  54.515  0.00  0.00     0.099 A 
ATOM      6  C   UNL d   1      54.219  32.833  54.529  0.00  0.00     0.019 A 
ATOM      7  C   UNL d   1      54.306  34.596  55.117  0.00  0.00     0.021 A 
ATOM      8  C   UNL d   1      54.864  33.098  55.131  0.00  0.00     0.002 A 
ATOM      9  C   UNL d   1      54.907  33.992  55.429  0.00  0.00     0.002 A 
ENDROOT
BRANCH   1  10
ATOM     10  C   UNL d   1      51.947  34.036  53.032  0.00  0.00     0.037 C 
BRANCH  10  11
ATOM     11  C   UNL d   1      51.568  34.566  52.538  0.00  0.00     0.003 C 
BRANCH  11  12
ATOM     12  C   UNL d   1      50.781  34.482  52.291  0.00  0.00     0.000 A 
ATOM     13  C   UNL d   1      50.158  34.618  52.803  0.00  0.00     0.000 A 
ATOM     14  C   UNL d   1      49.381  34.532  52.553  0.00  0.00     0.000 A 
ATOM     15  C   UNL d   1      49.226  34.304  51.767  0.00  0.00     0.000 A 
ATOM     16  C   UNL d   1      49.852  34.168  51.254  0.00  0.00     0.000 A 
ATOM     17  C   UNL d   1      50.626  34.253  51.505  0.00  0.00     0.000 A 
ENDBRANCH  11  12
ENDBRANCH  10  11
ENDBRANCH   1  10
BRANCH   3  18
ATOM     18  C   UNL d   1      53.188  32.651  53.636  0.00  0.00     0.082 C 
BRANCH  18  19
ATOM     19  C   UNL d   1      52.813  32.061  53.210  0.00  0.00     0.019 C 
BRANCH  19  20
ATOM     20  C   UNL d   1      53.126  31.308  53.177  0.00  0.00     0.002 C 
BRANCH  20  21
ATOM     21  C   UNL d   1      52.645  30.655  53.028  0.00  0.00     0.000 C 
BRANCH  21  22
ATOM     22  C   UNL d   1      52.960  29.897  52.979  0.00  0.00     0.000 C 
ATOM     23  C   UNL d   1      52.938  29.384  53.625  0.00  0.00     0.000 C 
ENDBRANCH  21  22
ENDBRANCH  20  21
ENDBRANCH  19  20
ENDBRANCH  18  19
ENDBRANCH   3  18
TORSDOF 8
ENDMDL
MODEL 2
REMARK VINA RESULT:      -7.6      0.741      3.896
REMARK  8 active torsions:
REMARK  status: ('A' for Active; 'I' for Inactive)
REMARK    1  A    between atoms: C_6  and  C_1 
REMARK    2  A    between atoms: C_8  and  N_3 
REMARK    3  A    between atoms: C_7  and  C_6 
REMARK    4  A    between atoms: C_9  and  C_7 
REMARK    5  A    between atoms: C_14  and  C_8 
REMARK    6  A    between atoms: C_17  and  C_14 
REMARK    7  A    between atoms: C_15  and  C_16 
REMARK    8  A    between atoms: C_16  and  C_17 
ROOT
ATOM      1  C   UNL d   1      53.518  32.781  54.009  0.00  0.00     0.148 A 
ATOM      2  N   UNL d   1      54.071  33.204  54.628  0.00  0.00    -0.227 NA
ATOM      3  N   UNL d   1      52.922  33.418  53.701  0.00  0.00    -0.289 N 
ATOM      4  C   UNL d   1      53.096  34.225  54.119  0.00  0.00     0.083 A 
ATOM      5  C   UNL d   1      53.823  34.089  54.705  0.00  0.00     0.099 A 
ATOM      6  C   UNL d   1      52.697  35.064  54.049  0.00  0.00     0.019 A 
ATOM      7  C   UNL d   1      54.130  34.797  55.204  0.00  0.00     0.021 A 
ATOM      8  C   UNL d   1      53.024  35.755  54.561  0.00  0.00     0.002 A 
ATOM      9  C   UNL d   1      53.751  35.620  55.148  0.00  0.00     0.002 A 
ENDROOT
BRANCH   1  10
ATOM     10  C   UNL d   1      53.261  32.179  53.587  0.00  0.00     0.037 C 
BRANCH  10  11
ATOM     11  C   UNL d   1      53.695  31.501  53.443  0.00  0.00     0.003 C 
BRANCH  11  12
ATOM     12  C   UNL d   1      53.367  30.740  53.433  0.00  0.00     0.000 A 
ATOM     13  C   UNL d   1      52.887  30.494  52.818  0.00  0.00     0.000 A 
ATOM     14  C   UNL d   1      52.565  29.740  52.812  0.00  0.00     0.000 A 
ATOM     15  C   UNL d   1      52.730  29.218  53.439  0.00  0.00     0.000 A 
ATOM     16  C   UNL d   1      53.212  29.466  54.055  0.00  0.00     0.000 A 
ATOM     17  C   UNL d   1      53.532  30.218  54.060  0.00  0.00     0.000 A 
ENDBRANCH  11  12
ENDBRANCH  10  11
ENDBRANCH   1  10
BRANCH   3  18
ATOM     18  C   UNL d   1      52.367  33.906  53.381  0.00  0.00     0.082 C 
BRANCH  18  19
ATOM     19  C   UNL d   1      51.717  33.593  52.995  0.00  0.00     0.019 C 
BRANCH  19  20
ATOM     20  C   UNL d   1      51.288  34.046  52.469  0.00  0.00     0.002 C 
BRANCH  20  21
ATOM     21  C   UNL d   1      50.473  33.942  52.387  0.00  0.00     0.000 C 
BRANCH  21  22
ATOM     22  C   UNL d   1      50.073  34.222  51.725  0.00  0.00     0.000 C 
ATOM     23  C   UNL d   1      49.319  34.549  51.789  0.00  0.00     0.000 C 
ENDBRANCH  21  22
ENDBRANCH  20  21
ENDBRANCH  19  20
ENDBRANCH  18  19
ENDBRANCH   3  18
TORSDOF 8
ENDMDL
MODEL 3
REMARK VINA RESULT:      -7.2      0.945      4.463
REMARK  8 active torsions:
REMARK  status: ('A' for Active; 'I' for Inactive)
REMARK    1  A    between atoms: C_6  and  C_1 
REMARK    2  A    between atoms: C_8  and  N_3 
REMARK    3  A    between atoms: C_7  and  C_6 
REMARK    4  A    between atoms: C_9  and  C_7 
REMARK    5  A    between atoms: C_14  and  C_8 
REMARK    6  A    between atoms: C_17  and  C_14 
REMARK    7  A    between atoms: C_15  and  C_16 
REMARK    8  A    between atoms: C_16  and  C_17 
ROOT
ATOM      1  C   UNL d   1      52.320  32.039  52.964  0.00  0.00     0.148 A 
ATOM      2  N   UNL d   1      51.595  32.346  52.464  0.00  0.00    -0.227 NA
ATOM      3  N   UNL d   1      52.635  32.761  53.450  0.00  0.00    -0.289 N 
ATOM      4  C   UNL d   1      52.120  33.505  53.260  0.00  0.00     0.083 A 
ATOM      5  C   UNL d   1      51.462  33.242  52.636  0.00  0.00     0.099 A 
ATOM      6  C   UNL d   1      52.156  34.384  53.565  0.00  0.00     0.019 A 
ATOM      7  C   UNL d   1      50.859  33.867  52.336  0.00  0.00     0.021 A 
ATOM      8  C   UNL d   1      51.539  34.990  53.248  0.00  0.00     0.002 A 
ATOM      9  C   UNL d   1      50.881  34.727  52.624  0.00  0.00     0.002 A 
ENDROOT
BRANCH   1  10
ATOM     10  C   UNL d   1      52.829  31.507  53.217  0.00  0.00     0.037 C 
BRANCH  10  11
ATOM     11  C   UNL d   1      52.828  30.724  52.982  0.00  0.00     0.003 C 
BRANCH  11  12
ATOM     12  C   UNL d   1      53.121  30.105  53.448  0.00  0.00     0.000 A 
ATOM     13  C   UNL d   1      53.921  29.934  53.472  0.00  0.00     0.000 A 
ATOM     14  C   UNL d   1      54.207  29.320  53.935  0.00  0.00     0.000 A 
ATOM     15  C   UNL d   1      53.676  28.865  54.387  0.00  0.00     0.000 A 
ATOM     16  C   UNL d   1      52.874  29.037  54.362  0.00  0.00     0.000 A 
ATOM     17  C   UNL d   1      52.590  29.650  53.900  0.00  0.00     0.000 A 
ENDBRANCH  11  12
ENDBRANCH  10  11
ENDBRANCH   1  10
BRANCH   3  18
ATOM     18  C   UNL d   1      52.973  33.331  53.907  0.00  0.00     0.082 C 
BRANCH  18  19
ATOM     19  C   UNL d   1      53.496  33.126  54.502  0.00  0.00     0.019 C 
BRANCH  19  20
ATOM     20  C   UNL d   1      54.155  33.583  54.652  0.00  0.00     0.002 C 
BRANCH  20  21
ATOM     21  C   UNL d   1      54.702  33.362  55.230  0.00  0.00     0.000 C 
BRANCH  21  22
ATOM     22  C   UNL d   1      55.344  33.843  55.413  0.00  0.00     0.000 C 
ATOM     23  C   UNL d   1      55.914  34.028  54.846  0.00  0.00     0.000 C 
ENDBRANCH  21  22
ENDBRANCH  20  21
ENDBRANCH  19  20
ENDBRANCH  18  19
ENDBRANCH   3  18
TORSDOF 8
ENDMDL
MODEL 4
REMARK VINA RESULT:      -6.8      0.837      3.941
REMARK  8 active torsions:
REMARK  status: ('A' for Active; 'I' for Inactive)
REMARK    1  A    between atoms: C_6  and  C_1 
REMARK    2  A    between atoms: C_8  and  N_3 
REMARK    3  A    between atoms: C_7  and  C_6 
REMARK    4  A    between atoms: C_9  and  C_7 
REMARK    5  A    between atoms: C_14  and  C_8 
REMARK    6  A    between atoms: C_17  and  C_14 
REMARK    7  A    between atoms: C_15  and  C_16 
REMARK    8  A    between atoms: C_16  and  C_17 
ROOT
ATOM      1  C   UNL d   1      52.193  34.369  53.739  0.00  0.00     0.148 A 
ATOM      2  N   UNL d   1      51.531  35.016  53.632  0.00  0.00    -0.227 NA
ATOM      3  N   UNL d   1      51.918  33.622  53.267  0.00  0.00    -0.289 N 
ATOM      4  C   UNL d   1      51.099  33.796  52.873  0.00  0.00     0.083 A 
ATOM      5  C   UNL d   1      50.854  34.678  53.104  0.00  0.00     0.099 A 
ATOM      6  C   UNL d   1      50.541  33.277  52.337  0.00  0.00     0.019 A 
ATOM      7  C   UNL d   1      50.059  35.015  52.792  0.00  0.00     0.021 A 
ATOM      8  C   UNL d   1      49.750  33.640  52.037  0.00  0.00     0.002 A 
ATOM      9  C   UNL d   1      49.505  34.522  52.268  0.00  0.00     0.002 A 
ENDROOT
BRANCH   1  10
ATOM     10  C   UNL d   1      52.868  34.087  54.005  0.00  0.00     0.037 C 
BRANCH  10  11
ATOM     11  C   UNL d   1      53.358  34.484  54.525  0.00  0.00     0.003 C 
BRANCH  11  12
ATOM     12  C   UNL d   1      54.066  34.170  54.820  0.00  0.00     0.000 A 
ATOM     13  C   UNL d   1      54.075  33.703  55.491  0.00  0.00     0.000 A 
ATOM     14  C   UNL d   1      54.778  33.393  55.780  0.00  0.00     0.000 A 
ATOM     15  C   UNL d   1      55.492  33.558  55.383  0.00  0.00     0.000 A 
ATOM     16  C   UNL d   1      55.481  34.027  54.710  0.00  0.00     0.000 A 
ATOM     17  C   UNL d   1      54.780  34.335  54.424  0.00  0.00     0.000 A 
ENDBRANCH  11  12
ENDBRANCH  10  11
ENDBRANCH   1  10
BRANCH   3  18
ATOM     18  C   UNL d   1      51.756  32.932  52.885  0.00  0.00     0.082 C 
BRANCH  18  19
ATOM     19  C   UNL d   1      52.353  32.392  52.740  0.00  0.00     0.019 C 
BRANCH  19  20
ATOM     20  C   UNL d   1      52.256  31.604  52.930  0.00  0.00     0.002 C 
BRANCH  20  21
ATOM     21  C   UNL d   1      52.890  31.078  52.889  0.00  0.00     0.000 C 
BRANCH  21  22
ATOM     22  C   UNL d   1      52.809  30.295  53.129  0.00  0.00     0.000 C 
ATOM     23  C   UNL d   1      53.379  29.934  53.604  0.00  0.00     0.000 C 
ENDBRANCH  21  22
ENDBRANCH  20  21
ENDBRANCH  19  20
ENDBRANCH  18  19
ENDBRANCH   3  18
TORSDOF 8
ENDMDL
MODEL 5
REMARK VINA RESULT:      -6.8      0.925      3.045
REMARK  8 active torsions:
REMARK  status: ('A' for Active; 'I' for Inactive)
REMARK    1  A    between atoms: C_6  and  C_1 
REMARK    2  A    between atoms: C_8  and  N_3 
REMARK    3  A    between atoms: C_7  and  C_6 
REMARK    4  A    between atoms: C_9  and  C_7 
REMARK    5  A    between atoms: C_14  and  C_8 
REMARK    6  A    between atoms: C_17  and  C_14 
REMARK    7  A    between atoms: C_15  and  C_16 
REMARK    8  A    between atoms: C_16  and  C_17 
ROOT
ATOM      1  C   UNL d   1      52.255  32.298  52.884  0.00  0.00     0.148 A 
ATOM      2  N   UNL d   1      52.058  31.459  52.528  0.00  0.00    -0.227 NA
ATOM      3  N   UNL d   1      52.941  32.177  53.492  0.00  0.00    -0.289 N 
ATOM      4  C   UNL d   1      53.172  31.282  53.518  0.00  0.00     0.083 A 
ATOM      5  C   UNL d   1      52.613  30.828  52.907  0.00  0.00     0.099 A 
ATOM      6  C   UNL d   1      53.811  30.814  54.009  0.00  0.00     0.019 A 
ATOM      7  C   UNL d   1      52.710  29.919  52.806  0.00  0.00     0.021 A 
ATOM      8  C   UNL d   1      53.886  29.905  53.889  0.00  0.00     0.002 A 
ATOM      9  C   UNL d   1      53.327  29.451  53.278  0.00  0.00     0.002 A 
ENDROOT
BRANCH   1  10
ATOM     10  C   UNL d   1      52.170  33.067  52.967  0.00  0.00     0.037 C 
BRANCH  10  11
ATOM     11  C   UNL d   1      51.829  33.554  52.405  0.00  0.00     0.003 C 
BRANCH  11  12
ATOM     12  C   UNL d   1      51.150  34.009  52.544  0.00  0.00     0.000 A 
ATOM     13  C   UNL d   1      51.056  34.429  53.240  0.00  0.00     0.000 A 
ATOM     14  C   UNL d   1      50.383  34.878  53.372  0.00  0.00     0.000 A 
ATOM     15  C   UNL d   1      49.787  34.907  52.790  0.00  0.00     0.000 A 
ATOM     16  C   UNL d   1      49.883  34.486  52.093  0.00  0.00     0.000 A 
ATOM     17  C   UNL d   1      50.555  34.038  51.962  0.00  0.00     0.000 A 
ENDBRANCH  11  12
ENDBRANCH  10  11
ENDBRANCH   1  10
BRANCH   3  18
ATOM     18  C   UNL d   1      53.535  32.162  54.037  0.00  0.00     0.082 C 
BRANCH  18  19
ATOM     19  C   UNL d   1      53.661  32.807  54.525  0.00  0.00     0.019 C 
BRANCH  19  20
ATOM     20  C   UNL d   1      54.418  33.025  54.738  0.00  0.00     0.002 C 
BRANCH  20  21
ATOM     21  C   UNL d   1      54.551  33.689  55.209  0.00  0.00     0.000 C 
BRANCH  21  22
ATOM     22  C   UNL d   1      55.314  33.931  55.398  0.00  0.00     0.000 C 
ATOM     23  C   UNL d   1      55.849  34.152  54.809  0.00  0.00     0.000 C 
ENDBRANCH  21  22
ENDBRANCH  20  21
ENDBRANCH  19  20
ENDBRANCH  18  19
ENDBRANCH   3  18
TORSDOF 8
ENDMDL
MODEL 6
REMARK VINA RESULT:      -6.4      1.081      3.852
REMARK  8 active torsions:
REMARK  status: ('A' for Active; 'I' for Inactive)
REMARK    1  A    between atoms: C_6  and  C_1 
REMARK    2  A    between atoms: C_8  and  N_3 
REMARK    3  A    between atoms: C_7  and  C_6 
REMARK    4  A    between atoms: C_9  and  C_7 
REMARK    5  A    between atoms: C_14  and  C_8 
REMARK    6  A    between atoms: C_17  and  C_14 
REMARK    7  A    between atoms: C_15  and  C_16 
REMARK    8  A    between atoms: C_16  and  C_17 
ROOT
ATOM      1  C   UNL d   1      53.717  32.514  53.839  0.00  0.00     0.148 A 
ATOM      2  N   UNL d   1      54.188  31.734  54.037  0.00  0.00    -0.227 NA
ATOM      3  N   UNL d   1      52.941  32.256  53.406  0.00  0.00    -0.289 N 
ATOM      4  C   UNL d   1      52.925  31.334  53.333  0.00  0.00     0.083 A 
ATOM      5  C   UNL d   1      53.714  31.004  53.732  0.00  0.00     0.099 A 
ATOM      6  C   UNL d   1      52.304  30.747  52.960  0.00  0.00     0.019 A 
ATOM      7  C   UNL d   1      53.860  30.097  53.746  0.00  0.00     0.021 A 
ATOM      8  C   UNL d   1      52.476  29.843  52.989  0.00  0.00     0.002 A 
ATOM      9  C   UNL d   1      53.265  29.513  53.387  0.00  0.00     0.002 A 
ENDROOT
BRANCH   1  10
ATOM     10  C   UNL d   1      53.596  33.283  53.829  0.00  0.00     0.037 C 
BRANCH  10  11
ATOM     11  C   UNL d   1      53.963  33.811  54.334  0.00  0.00     0.003 C 
BRANCH  11  12
ATOM     12  C   UNL d   1      53.677  34.574  54.487  0.00  0.00     0.000 A 
ATOM     13  C   UNL d   1      53.742  35.170  53.931  0.00  0.00     0.000 A 
ATOM     14  C   UNL d   1      53.458  35.924  54.086  0.00  0.00     0.000 A 
ATOM     15  C   UNL d   1      53.099  36.083  54.821  0.00  0.00     0.000 A 
ATOM     16  C   UNL d   1      53.034  35.484  55.377  0.00  0.00     0.000 A 
ATOM     17  C   UNL d   1      53.318  34.733  55.221  0.00  0.00     0.000 A 
ENDBRANCH  11  12
ENDBRANCH  10  11
ENDBRANCH   1  10
BRANCH   3  18
ATOM     18  C   UNL d   1      52.245  32.121  53.025  0.00  0.00     0.082 C 
BRANCH  18  19
ATOM     19  C   UNL d   1      51.865  32.731  52.634  0.00  0.00     0.019 C 
BRANCH  19  20
ATOM     20  C   UNL d   1      51.096  32.931  52.823  0.00  0.00     0.002 C 
BRANCH  20  21
ATOM     21  C   UNL d   1      50.726  33.575  52.463  0.00  0.00     0.000 C 
BRANCH  21  22
ATOM     22  C   UNL d   1      50.266  34.099  52.900  0.00  0.00     0.000 C 
ATOM     23  C   UNL d   1      49.792  34.663  52.527  0.00  0.00     0.000 C 
ENDBRANCH  21  22
ENDBRANCH  20  21
ENDBRANCH  19  20
ENDBRANCH  18  19
ENDBRANCH   3  18
TORSDOF 8
ENDMDL
MODEL 7
REMARK VINA RESULT:      -5.9      9.807     11.121
REMARK  8 active torsions:
REMARK  status: ('A' for Active; 'I' for Inactive)
REMARK    1  A    between atoms: C_6  and  C_1 
REMARK    2  A    between atoms: C_8  and  N_3 
REMARK    3  A    between atoms: C_7  and  C_6 
REMARK    4  A    between atoms: C_9  and  C_7 
REMARK    5  A    between atoms: C_14  and  C_8 
REMARK    6  A    between atoms: C_17  and  C_14 
REMARK    7  A    between atoms: C_15  and  C_16 
REMARK    8  A    between atoms: C_16  and  C_17 
ROOT
ATOM      1  C   UNL d   1      44.683  28.481  59.947  0.00  0.00     0.148 A 
ATOM      2  N   UNL d   1      44.620  28.388  60.872  0.00  0.00    -0.227 NA
ATOM      3  N   UNL d   1      44.653  29.388  59.765  0.00  0.00    -0.289 N 
ATOM      4  C   UNL d   1      44.574  29.855  60.559  0.00  0.00     0.083 A 
ATOM      5  C   UNL d   1      44.553  29.223  61.260  0.00  0.00     0.099 A 
ATOM      6  C   UNL d   1      44.518  30.766  60.745  0.00  0.00     0.019 A 
ATOM      7  C   UNL d   1      44.476  29.520  62.126  0.00  0.00     0.021 A 
ATOM      8  C   UNL d   1      44.441  31.037  61.622  0.00  0.00     0.002 A 
ATOM      9  C   UNL d   1      44.421  30.405  62.322  0.00  0.00     0.002 A 
ENDROOT
BRANCH   1  10
ATOM     10  C   UNL d   1      44.748  28.226  59.214  0.00  0.00     0.037 C 
BRANCH  10  11
ATOM     11  C   UNL d   1      44.938  27.457  59.013  0.00  0.00     0.003 C 
BRANCH  11  12
ATOM     12  C   UNL d   1      44.967  27.181  58.231  0.00  0.00     0.000 A 
ATOM     13  C   UNL d   1      44.314  26.837  57.878  0.00  0.00     0.000 A 
ATOM     14  C   UNL d   1      44.348  26.566  57.105  0.00  0.00     0.000 A 
ATOM     15  C   UNL d   1      45.056  26.641  56.674  0.00  0.00     0.000 A 
ATOM     16  C   UNL d   1      45.711  26.986  57.029  0.00  0.00     0.000 A 
ATOM     17  C   UNL d   1      45.676  27.256  57.800  0.00  0.00     0.000 A 
ENDBRANCH  11  12
ENDBRANCH  10  11
ENDBRANCH   1  10
BRANCH   3  18
ATOM     18  C   UNL d   1      44.635  30.154  59.518  0.00  0.00     0.082 C 
BRANCH  18  19
ATOM     19  C   UNL d   1      44.449  30.332  58.742  0.00  0.00     0.019 C 
BRANCH  19  20
ATOM     20  C   UNL d   1      44.774  30.985  58.375  0.00  0.00     0.002 C 
BRANCH  20  21
ATOM     21  C   UNL d   1      44.607  31.153  57.584  0.00  0.00     0.000 C 
BRANCH  21  22
ATOM     22  C   UNL d   1      44.756  31.898  57.268  0.00  0.00     0.000 C 
ATOM     23  C   UNL d   1      44.393  32.145  56.569  0.00  0.00     0.000 C 
ENDBRANCH  21  22
ENDBRANCH  20  21
ENDBRANCH  19  20
ENDBRANCH  18  19
ENDBRANCH   3  18
TORSDOF 8
ENDMDL
MODEL 8
REMARK VINA RESULT:      -5.8      9.040     10.660
REMARK  8 active torsions:
REMARK  status: ('A' for Active; 'I' for Inactive)
REMARK    1  A    between atoms: C_6  and  C_1 
REMARK    2  A    between atoms: C_8  and  N_3 
REMARK    3  A    between atoms: C_7  and  C_6 
REMARK    4  A    between atoms: C_9  and  C_7 
REMARK    5  A    between atoms: C_14  and  C_8 
REMARK    6  A    between atoms: C_17  and  C_14 
REMARK    7  A    between atoms: C_15  and  C_16 
REMARK    8  A    between atoms: C_16  and  C_17 
ROOT
ATOM      1  C   UNL d   1      44.804  29.294  57.155  0.00  0.00     0.148 A 
ATOM      2  N   UNL d   1      44.667  29.728  56.341  0.00  0.00    -0.227 NA
ATOM      3  N   UNL d   1      44.773  29.943  57.814  0.00  0.00    -0.289 N 
ATOM      4  C   UNL d   1      44.621  30.767  57.423  0.00  0.00     0.083 A 
ATOM      5  C   UNL d   1      44.554  30.631  56.492  0.00  0.00     0.099 A 
ATOM      6  C   UNL d   1      44.533  31.622  57.782  0.00  0.00     0.019 A 
ATOM      7  C   UNL d   1      44.401  31.355  55.946  0.00  0.00     0.021 A 
ATOM      8  C   UNL d   1      44.381  32.330  57.213  0.00  0.00     0.002 A 
ATOM      9  C   UNL d   1      44.314  32.194  56.281  0.00  0.00     0.002 A 
ENDROOT
BRANCH   1  10
ATOM     10  C   UNL d   1      44.933  28.679  57.614  0.00  0.00     0.037 C 
BRANCH  10  11
ATOM     11  C   UNL d   1      45.214  27.959  57.347  0.00  0.00     0.003 C 
BRANCH  11  12
ATOM     12  C   UNL d   1      45.032  27.234  57.705  0.00  0.00     0.000 A 
ATOM     13  C   UNL d   1      45.342  27.031  58.434  0.00  0.00     0.000 A 
ATOM     14  C   UNL d   1      45.159  26.312  58.784  0.00  0.00     0.000 A 
ATOM     15  C   UNL d   1      44.650  25.782  58.391  0.00  0.00     0.000 A 
ATOM     16  C   UNL d   1      44.339  25.987  57.660  0.00  0.00     0.000 A 
ATOM     17  C   UNL d   1      44.523  26.704  57.312  0.00  0.00     0.000 A 
ENDBRANCH  11  12
ENDBRANCH  10  11
ENDBRANCH   1  10
BRANCH   3  18
ATOM     18  C   UNL d   1      44.762  30.440  58.448  0.00  0.00     0.082 C 
BRANCH  18  19
ATOM     19  C   UNL d   1      44.584  30.151  59.193  0.00  0.00     0.019 C 
BRANCH  19  20
ATOM     20  C   UNL d   1      44.883  30.513  59.861  0.00  0.00     0.002 C 
BRANCH  20  21
ATOM     21  C   UNL d   1      44.715  30.218  60.613  0.00  0.00     0.000 C 
BRANCH  21  22
ATOM     22  C   UNL d   1      44.983  30.602  61.289  0.00  0.00     0.000 C 
ATOM     23  C   UNL d   1      44.453  30.911  61.842  0.00  0.00     0.000 C 
ENDBRANCH  21  22
ENDBRANCH  20  21
ENDBRANCH  19  20
ENDBRANCH  18  19
ENDBRANCH   3  18
TORSDOF 8
ENDMDL
