MODEL 1
REMARK VINA RESULT:      33.4      0.000      0.000
REMARK  5 active torsions:
REMARK  status: ('A' for Active; 'I' for Inactive)
REMARK    1  A    between atoms: C_6  and  C_1 
REMARK    2  A    between atoms: C_14  and  N_3 
REMARK    3  A    between atoms: O_9  and  C_6 
REMARK    4  A    between atoms: C_15  and  O_9 
REMARK    5  A    between atoms: C_16  and  C_14 
ROOT
ATOM      1  C   UNL d   1      14.815  13.699  -1.500  0.00  0.00     0.120 A 
ATOM      2  C   UNL d   1      14.866  13.156  -0.880  0.00  0.00     0.177 A 
ATOM      3  N   UNL d   1      14.482  12.466  -1.118  0.00  0.00    -0.273 N 
ATOM      4  C   UNL d   1      14.195  12.578  -1.881  0.00  0.00     0.167 A 
ATOM      5  C   UNL d   1      14.400  13.338  -2.115  0.00  0.00     0.124 A 
ATOM      6  N   UNL d   1      13.775  12.085  -2.384  0.00  0.00    -0.225 NA
ATOM      7  N   UNL d   1      14.183  13.606  -2.859  0.00  0.00    -0.241 NA
ATOM      8  C   UNL d   1      13.558  12.354  -3.129  0.00  0.00     0.101 A 
ATOM      9  C   UNL d   1      13.761  13.114  -3.370  0.00  0.00     0.099 A 
ATOM     10  N   UNL d   1      15.233  13.274  -0.149  0.00  0.00    -0.128 N 
ATOM     11  C   UNL d   1      13.139  11.860  -3.631  0.00  0.00     0.021 A 
ATOM     12  C   UNL d   1      13.543  13.378  -4.114  0.00  0.00     0.021 A 
ATOM     13  C   UNL d   1      12.918  12.130  -4.387  0.00  0.00     0.002 A 
ATOM     14  C   UNL d   1      13.124  12.886  -4.617  0.00  0.00     0.002 A 
ENDROOT
BRANCH   1  15
ATOM     15  C   UNL d   1      15.127  14.464  -1.494  0.00  0.00     0.300 C 
ATOM     16  O   UNL d   1      15.924  14.578  -1.660  0.00  0.00    -0.259 OA
BRANCH  15  17
ATOM     17  O   UNL d   1      14.643  15.113  -1.323  0.00  0.00    -0.303 OA
BRANCH  17  18
ATOM     18  C   UNL d   1      14.970  15.782  -0.992  0.00  0.00     0.102 C 
ATOM     19  C   UNL d   1      14.768  16.226  -1.659  0.00  0.00     0.030 C 
ATOM     20  C   UNL d   1      15.178  15.347  -0.319  0.00  0.00     0.030 C 
ATOM     21  C   UNL d   1      15.310  16.466  -0.644  0.00  0.00     0.030 C 
ENDBRANCH  17  18
ENDBRANCH  15  17
ENDBRANCH   1  15
BRANCH   3  22
ATOM     22  C   UNL d   1      14.398  11.779  -0.673  0.00  0.00     0.083 C 
BRANCH  22  23
ATOM     23  C   UNL d   1      13.900  11.781  -0.014  0.00  0.00     0.019 C 
ATOM     24  C   UNL d   1      13.117  12.038  -0.096  0.00  0.00     0.002 C 
ENDBRANCH  22  23
ENDBRANCH   3  22
TORSDOF 5
ENDMDL
MODEL 2
REMARK VINA RESULT:      33.7      1.706      4.220
REMARK  5 active torsions:
REMARK  status: ('A' for Active; 'I' for Inactive)
REMARK    1  A    between atoms: C_6  and  C_1 
REMARK    2  A    between atoms: C_14  and  N_3 
REMARK    3  A    between atoms: O_9  and  C_6 
REMARK    4  A    between atoms: C_15  and  O_9 
REMARK    5  A    between atoms: C_16  and  C_14 
ROOT
ATOM      1  C   UNL d   1      13.763  13.290  -3.462  0.00  0.00     0.120 A 
ATOM      2  C   UNL d   1      13.832  14.100  -3.608  0.00  0.00     0.177 A 
ATOM      3  N   UNL d   1      14.179  14.445  -2.944  0.00  0.00    -0.273 N 
ATOM      4  C   UNL d   1      14.325  13.855  -2.390  0.00  0.00     0.167 A 
ATOM      5  C   UNL d   1      14.068  13.144  -2.710  0.00  0.00     0.124 A 
ATOM      6  N   UNL d   1      14.657  13.881  -1.640  0.00  0.00    -0.225 NA
ATOM      7  N   UNL d   1      14.145  12.452  -2.275  0.00  0.00    -0.241 NA
ATOM      8  C   UNL d   1      14.734  13.188  -1.206  0.00  0.00     0.101 A 
ATOM      9  C   UNL d   1      14.479  12.472  -1.521  0.00  0.00     0.099 A 
ATOM     10  N   UNL d   1      13.598  14.500  -4.292  0.00  0.00    -0.128 N 
ATOM     11  C   UNL d   1      15.066  13.215  -0.457  0.00  0.00     0.021 A 
ATOM     12  C   UNL d   1      14.557  11.783  -1.084  0.00  0.00     0.021 A 
ATOM     13  C   UNL d   1      15.145  12.514  -0.015  0.00  0.00     0.002 A 
ATOM     14  C   UNL d   1      14.889  11.808  -0.335  0.00  0.00     0.002 A 
ENDROOT
BRANCH   1  15
ATOM     15  C   UNL d   1      13.444  12.734  -3.984  0.00  0.00     0.300 C 
ATOM     16  O   UNL d   1      12.943  12.148  -3.697  0.00  0.00    -0.259 OA
BRANCH  15  17
ATOM     17  O   UNL d   1      13.625  12.764  -4.791  0.00  0.00    -0.303 OA
BRANCH  17  18
ATOM     18  C   UNL d   1      13.225  12.280  -5.310  0.00  0.00     0.102 C 
ATOM     19  C   UNL d   1      12.861  11.885  -4.683  0.00  0.00     0.030 C 
ATOM     20  C   UNL d   1      13.584  12.668  -5.947  0.00  0.00     0.030 C 
ATOM     21  C   UNL d   1      12.817  11.786  -5.853  0.00  0.00     0.030 C 
ENDBRANCH  17  18
ENDBRANCH  15  17
ENDBRANCH   1  15
BRANCH   3  22
ATOM     22  C   UNL d   1      14.352  15.244  -2.848  0.00  0.00     0.083 C 
BRANCH  22  23
ATOM     23  C   UNL d   1      14.418  15.727  -3.514  0.00  0.00     0.019 C 
ATOM     24  C   UNL d   1      14.771  16.473  -3.444  0.00  0.00     0.002 C 
ENDBRANCH  22  23
ENDBRANCH   3  22
TORSDOF 5
ENDMDL
MODEL 3
REMARK VINA RESULT:      34.6      1.378      3.198
REMARK  5 active torsions:
REMARK  status: ('A' for Active; 'I' for Inactive)
REMARK    1  A    between atoms: C_6  and  C_1 
REMARK    2  A    between atoms: C_14  and  N_3 
REMARK    3  A    between atoms: O_9  and  C_6 
REMARK    4  A    between atoms: C_15  and  O_9 
REMARK    5  A    between atoms: C_16  and  C_14 
ROOT
ATOM      1  C   UNL d   1      13.602  13.995  -3.555  0.00  0.00     0.120 A 
ATOM      2  C   UNL d   1      13.247  13.489  -4.104  0.00  0.00     0.177 A 
ATOM      3  N   UNL d   1      13.265  12.727  -3.791  0.00  0.00    -0.273 N 
ATOM      4  C   UNL d   1      13.627  12.757  -3.052  0.00  0.00     0.167 A 
ATOM      5  C   UNL d   1      13.834  13.539  -2.909  0.00  0.00     0.124 A 
ATOM      6  N   UNL d   1      13.791  12.172  -2.501  0.00  0.00    -0.225 NA
ATOM      7  N   UNL d   1      14.209  13.736  -2.206  0.00  0.00    -0.241 NA
ATOM      8  C   UNL d   1      14.166  12.370  -1.798  0.00  0.00     0.101 A 
ATOM      9  C   UNL d   1      14.377  13.152  -1.648  0.00  0.00     0.099 A 
ATOM     10  N   UNL d   1      12.930  13.702  -4.837  0.00  0.00    -0.128 N 
ATOM     11  C   UNL d   1      14.330  11.785  -1.248  0.00  0.00     0.021 A 
ATOM     12  C   UNL d   1      14.751  13.345  -0.945  0.00  0.00     0.021 A 
ATOM     13  C   UNL d   1      14.710  11.984  -0.535  0.00  0.00     0.002 A 
ATOM     14  C   UNL d   1      14.915  12.761  -0.394  0.00  0.00     0.002 A 
ENDROOT
BRANCH   1  15
ATOM     15  C   UNL d   1      13.700  14.810  -3.647  0.00  0.00     0.300 C 
ATOM     16  O   UNL d   1      13.091  15.259  -3.966  0.00  0.00    -0.259 OA
BRANCH  15  17
ATOM     17  O   UNL d   1      14.408  15.175  -3.420  0.00  0.00    -0.303 OA
BRANCH  17  18
ATOM     18  C   UNL d   1      14.511  15.971  -3.557  0.00  0.00     0.102 C 
ATOM     19  C   UNL d   1      14.248  15.884  -4.336  0.00  0.00     0.030 C 
ATOM     20  C   UNL d   1      14.776  16.071  -2.780  0.00  0.00     0.030 C 
ATOM     21  C   UNL d   1      14.620  16.793  -3.690  0.00  0.00     0.030 C 
ENDBRANCH  17  18
ENDBRANCH  15  17
ENDBRANCH   1  15
BRANCH   3  22
ATOM     22  C   UNL d   1      12.971  12.048  -4.151  0.00  0.00     0.083 C 
BRANCH  22  23
ATOM     23  C   UNL d   1      13.309  11.785  -4.857  0.00  0.00     0.019 C 
ATOM     24  C   UNL d   1      12.886  11.859  -5.565  0.00  0.00     0.002 C 
ENDBRANCH  22  23
ENDBRANCH   3  22
TORSDOF 5
ENDMDL
