MODEL 1
REMARK VINA RESULT:      49.5      0.000      0.000
REMARK  5 active torsions:
REMARK  status: ('A' for Active; 'I' for Inactive)
REMARK    1  A    between atoms: C_12  and  S_1 
REMARK    2  A    between atoms: N_13  and  S_1 
REMARK    3  A    between atoms: C_2  and  N_6 
REMARK    4  A    between atoms: C_5  and  C_3 
REMARK       I    between atoms: N_6  and  C_8 
REMARK    5  A    between atoms: C_8  and  C_18 
ROOT
ATOM      1  N   UNL d   1      45.255 -18.025  40.270  0.00  0.00    -0.183 NA
ATOM      2  C   UNL d   1      45.948 -18.337  40.579  0.00  0.00     0.281 C 
ATOM      3  O   UNL d   1      46.631 -18.359  40.109  0.00  0.00    -0.265 OA
ENDROOT
BRANCH   1   4
ATOM      4  C   UNL d   1      45.234 -17.735  39.503  0.00  0.00     0.197 A 
ATOM      5  N   UNL d   1      45.439 -16.973  39.266  0.00  0.00    -0.218 NA
ATOM      6  C   UNL d   1      45.335 -16.925  38.448  0.00  0.00     0.113 A 
ATOM      7  C   UNL d   1      45.064 -17.656  38.179  0.00  0.00     0.059 A 
ATOM      8  S   UNL d   1      45.004 -18.153  38.831  0.00  0.00    -0.046 SA
BRANCH   6   9
ATOM      9  C   UNL d   1      45.475 -16.262  37.983  0.00  0.00     0.118 A 
ATOM     10  O   UNL d   1      46.153 -15.919  37.784  0.00  0.00    -0.306 OA
ATOM     11  C   UNL d   1      46.098 -15.281  37.323  0.00  0.00     0.100 A 
ATOM     12  C   UNL d   1      46.623 -14.743  36.974  0.00  0.00     0.025 A 
ATOM     13  C   UNL d   1      45.276 -15.192  37.201  0.00  0.00     0.025 A 
ATOM     14  C   UNL d   1      46.339 -14.126  36.511  0.00  0.00     0.002 A 
ATOM     15  C   UNL d   1      45.518 -14.029  36.384  0.00  0.00     0.000 A 
ATOM     16  C   UNL d   1      44.996 -14.568  36.734  0.00  0.00     0.002 A 
ATOM     17  C   UNL d   1      44.899 -15.800  37.611  0.00  0.00     0.028 A 
ENDBRANCH   6   9
ENDBRANCH   1   4
BRANCH   2  18
ATOM     18  C   UNL d   1      45.970 -18.629  41.350  0.00  0.00     0.058 A 
ATOM     19  C   UNL d   1      46.261 -19.386  41.497  0.00  0.00     0.005 A 
ATOM     20  C   UNL d   1      46.282 -19.671  42.262  0.00  0.00     0.013 A 
ATOM     21  C   UNL d   1      46.009 -19.200  42.893  0.00  0.00     0.104 A 
ATOM     22  C   UNL d   1      45.719 -18.442  42.733  0.00  0.00     0.013 A 
ATOM     23  C   UNL d   1      45.700 -18.161  41.969  0.00  0.00     0.005 A 
BRANCH  21  24
ATOM     24  S   UNL d   1      46.031 -19.490  43.668  0.00  0.00     0.271 S 
ATOM     25  O   UNL d   1      46.016 -18.721  43.953  0.00  0.00    -0.200 OA
ATOM     26  O   UNL d   1      46.045 -20.265  43.381  0.00  0.00    -0.200 OA
BRANCH  24  27
ATOM     27  N   UNL d   1      46.052 -19.779  44.439  0.00  0.00    -0.226 N 
ATOM     28  C   UNL d   1      46.635 -19.520  44.955  0.00  0.00     0.111 C 
ATOM     29  C   UNL d   1      45.492 -20.322  44.690  0.00  0.00     0.111 C 
ENDBRANCH  24  27
ENDBRANCH  21  24
ENDBRANCH   2  18
TORSDOF 5
ENDMDL
