MODEL 1
REMARK VINA RESULT:       5.4      0.000      0.000
REMARK  2 active torsions:
REMARK  status: ('A' for Active; 'I' for Inactive)
REMARK    1  A    between atoms: C_6  and  C_1 
REMARK    2  A    between atoms: O_10  and  C_6 
ROOT
ATOM      1  C   UNL d   1      46.501 -19.097  42.007  0.00  0.00     0.096 A 
ATOM      2  S   UNL d   1      46.428 -18.334  42.336  0.00  0.00    -0.040 SA
ATOM      3  C   UNL d   1      46.354 -18.244  43.157  0.00  0.00     0.226 A 
ATOM      4  C   UNL d   1      46.500 -19.761  42.504  0.00  0.00     0.012 A 
ATOM      5  C   UNL d   1      46.427 -19.669  43.319  0.00  0.00     0.004 A 
ATOM      6  C   UNL d   1      46.354 -18.914  43.644  0.00  0.00     0.045 A 
ATOM      7  O   UNL d   1      46.282 -17.489  43.482  0.00  0.00    -0.279 OA
ATOM      8  C   UNL d   1      46.426 -20.330  43.809  0.00  0.00     0.000 A 
ATOM      9  C   UNL d   1      46.281 -18.813  44.462  0.00  0.00     0.004 A 
ATOM     10  C   UNL d   1      46.353 -20.238  44.624  0.00  0.00     0.000 A 
ATOM     11  C   UNL d   1      46.280 -19.475  44.952  0.00  0.00     0.000 A 
ENDROOT
BRANCH   1  12
ATOM     12  C   UNL d   1      46.573 -19.180  41.192  0.00  0.00     0.302 C 
ATOM     13  O   UNL d   1      46.638 -18.507  40.720  0.00  0.00    -0.259 OA
BRANCH  12  14
ATOM     14  O   UNL d   1      46.582 -19.921  40.842  0.00  0.00    -0.295 OA
ATOM     15  C   UNL d   1      46.644 -19.983  40.012  0.00  0.00     0.185 C 
ENDBRANCH  12  14
ENDBRANCH   1  12
TORSDOF 2
ENDMDL
MODEL 2
REMARK VINA RESULT:       8.3      4.681      6.082
REMARK  2 active torsions:
REMARK  status: ('A' for Active; 'I' for Inactive)
REMARK    1  A    between atoms: C_6  and  C_1 
REMARK    2  A    between atoms: O_10  and  C_6 
ROOT
ATOM      1  C   UNL d   1      45.610 -14.655  44.556  0.00  0.00     0.096 A 
ATOM      2  S   UNL d   1      46.114 -14.070  44.872  0.00  0.00    -0.040 SA
ATOM      3  C   UNL d   1      46.027 -13.280  44.635  0.00  0.00     0.226 A 
ATOM      4  C   UNL d   1      45.027 -14.443  44.006  0.00  0.00     0.012 A 
ATOM      5  C   UNL d   1      44.943 -13.657  43.773  0.00  0.00     0.004 A 
ATOM      6  C   UNL d   1      45.441 -13.079  44.086  0.00  0.00     0.045 A 
ATOM      7  O   UNL d   1      46.525 -12.701  44.949  0.00  0.00    -0.279 OA
ATOM      8  C   UNL d   1      44.363 -13.450  43.228  0.00  0.00     0.000 A 
ATOM      9  C   UNL d   1      45.364 -12.288  43.857  0.00  0.00     0.004 A 
ATOM     10  C   UNL d   1      44.280 -12.665  42.994  0.00  0.00     0.000 A 
ATOM     11  C   UNL d   1      44.783 -12.080  43.311  0.00  0.00     0.000 A 
ENDROOT
BRANCH   1  12
ATOM     12  C   UNL d   1      45.700 -15.437  44.794  0.00  0.00     0.302 C 
ATOM     13  O   UNL d   1      46.459 -15.744  44.900  0.00  0.00    -0.259 OA
BRANCH  12  14
ATOM     14  O   UNL d   1      45.049 -15.916  44.928  0.00  0.00    -0.295 OA
ATOM     15  C   UNL d   1      45.146 -16.744  44.955  0.00  0.00     0.185 C 
ENDBRANCH  12  14
ENDBRANCH   1  12
TORSDOF 2
ENDMDL
