MODEL 1
REMARK VINA RESULT:       1.1      0.000      0.000
REMARK  5 active torsions:
REMARK  status: ('A' for Active; 'I' for Inactive)
REMARK    1  A    between atoms: N_2  and  S_1 
REMARK    2  A    between atoms: C_4  and  S_1 
REMARK    3  A    between atoms: C_3  and  N_2 
REMARK       I    between atoms: C_6  and  N_2 
REMARK    4  A    between atoms: O_13  and  C_7 
REMARK    5  A    between atoms: C_14  and  O_13 
ROOT
ATOM      1  C   UNL d   1     -42.385-122.639 -50.791  0.00  0.00     0.078 A 
ATOM      2  C   UNL d   1     -41.962-122.008 -51.144  0.00  0.00     0.019 A 
ATOM      3  C   UNL d   1     -41.559-122.862 -52.199  0.00  0.00     0.103 A 
ATOM      4  C   UNL d   1     -41.557-122.143 -51.846  0.00  0.00     0.024 A 
ATOM      5  C   UNL d   1     -42.369-123.358 -51.173  0.00  0.00     0.020 A 
ATOM      6  C   UNL d   1     -41.966-123.505 -51.879  0.00  0.00     0.026 A 
ATOM      7  C   UNL d   1     -41.947-121.265 -50.800  0.00  0.00     0.002 A 
ATOM      8  C   UNL d   1     -41.138-121.541 -52.206  0.00  0.00     0.002 A 
ATOM      9  C   UNL d   1     -41.530-120.657 -51.153  0.00  0.00     0.000 A 
ATOM     10  C   UNL d   1     -41.123-120.797 -51.862  0.00  0.00     0.000 A 
ENDROOT
BRANCH   1  11
ATOM     11  N   UNL d   1     -42.791-122.509 -50.091  0.00  0.00    -0.198 N 
ATOM     12  C   UNL d   1     -43.494-122.082 -50.084  0.00  0.00     0.274 C 
ATOM     13  O   UNL d   1     -43.793-121.785 -50.779  0.00  0.00    -0.266 OA
ATOM     14  C   UNL d   1     -44.061-121.832 -49.517  0.00  0.00     0.067 C 
BRANCH  11  15
ATOM     15  S   UNL d   1     -42.468-122.824 -49.371  0.00  0.00     0.279 S 
ATOM     16  O   UNL d   1     -42.624-123.588 -49.681  0.00  0.00    -0.199 OA
ATOM     17  O   UNL d   1     -42.338-122.051 -49.118  0.00  0.00    -0.199 OA
BRANCH  15  18
ATOM     18  C   UNL d   1     -42.162-123.139 -48.687  0.00  0.00     0.133 A 
ATOM     19  S   UNL d   1     -42.564-123.592 -48.121  0.00  0.00    -0.074 SA
ATOM     20  C   UNL d   1     -42.078-123.817 -47.498  0.00  0.00     0.036 A 
ATOM     21  C   UNL d   1     -41.322-123.497 -47.663  0.00  0.00     0.008 A 
ATOM     22  C   UNL d   1     -41.348-123.082 -48.378  0.00  0.00     0.020 A 
ENDBRANCH  15  18
ENDBRANCH  11  15
ENDBRANCH   1  11
BRANCH   3  23
ATOM     23  O   UNL d   1     -41.124-122.985 -52.942  0.00  0.00    -0.273 OA
BRANCH  23  24
ATOM     24  C   UNL d   1     -41.502-123.299 -53.634  0.00  0.00     0.300 C 
ATOM     25  O   UNL d   1     -42.152-123.814 -53.573  0.00  0.00    -0.259 OA
ATOM     26  C   UNL d   1     -41.189-123.067 -54.498  0.00  0.00     0.074 C 
ENDBRANCH  23  24
ENDBRANCH   3  23
TORSDOF 5
ENDMDL
MODEL 2
REMARK VINA RESULT:       3.6      1.491      2.399
REMARK  5 active torsions:
REMARK  status: ('A' for Active; 'I' for Inactive)
REMARK    1  A    between atoms: N_2  and  S_1 
REMARK    2  A    between atoms: C_4  and  S_1 
REMARK    3  A    between atoms: C_3  and  N_2 
REMARK       I    between atoms: C_6  and  N_2 
REMARK    4  A    between atoms: O_13  and  C_7 
REMARK    5  A    between atoms: C_14  and  O_13 
ROOT
ATOM      1  C   UNL d   1     -42.182-121.834 -52.183  0.00  0.00     0.078 A 
ATOM      2  C   UNL d   1     -41.885-122.505 -52.586  0.00  0.00     0.019 A 
ATOM      3  C   UNL d   1     -42.550-122.095 -53.767  0.00  0.00     0.103 A 
ATOM      4  C   UNL d   1     -42.083-122.614 -53.376  0.00  0.00     0.024 A 
ATOM      5  C   UNL d   1     -42.655-121.323 -52.606  0.00  0.00     0.020 A 
ATOM      6  C   UNL d   1     -42.859-121.423 -53.400  0.00  0.00     0.026 A 
ATOM      7  C   UNL d   1     -41.406-123.049 -52.205  0.00  0.00     0.002 A 
ATOM      8  C   UNL d   1     -41.804-123.263 -53.787  0.00  0.00     0.002 A 
ATOM      9  C   UNL d   1     -41.123-123.700 -52.609  0.00  0.00     0.000 A 
ATOM     10  C   UNL d   1     -41.324-123.807 -53.407  0.00  0.00     0.000 A 
ENDROOT
BRANCH   1  11
ATOM     11  N   UNL d   1     -41.988-121.720 -51.394  0.00  0.00    -0.198 N 
ATOM     12  C   UNL d   1     -41.460-121.130 -51.170  0.00  0.00     0.274 C 
ATOM     13  O   UNL d   1     -41.125-120.653 -51.737  0.00  0.00    -0.266 OA
ATOM     14  C   UNL d   1     -41.123-120.837 -50.459  0.00  0.00     0.067 C 
BRANCH  11  15
ATOM     15  S   UNL d   1     -42.345-122.226 -50.812  0.00  0.00     0.279 S 
ATOM     16  O   UNL d   1     -41.570-122.405 -50.547  0.00  0.00    -0.199 OA
ATOM     17  O   UNL d   1     -43.082-122.013 -51.114  0.00  0.00    -0.199 OA
BRANCH  15  18
ATOM     18  C   UNL d   1     -42.675-122.712 -50.251  0.00  0.00     0.133 A 
ATOM     19  S   UNL d   1     -43.163-122.488 -49.618  0.00  0.00    -0.074 SA
ATOM     20  C   UNL d   1     -43.395-123.129 -49.161  0.00  0.00     0.036 A 
ATOM     21  C   UNL d   1     -43.043-123.806 -49.508  0.00  0.00     0.008 A 
ATOM     22  C   UNL d   1     -42.602-123.578 -50.170  0.00  0.00     0.020 A 
ENDBRANCH  15  18
ENDBRANCH  11  15
ENDBRANCH   1  11
BRANCH   3  23
ATOM     23  O   UNL d   1     -42.747-122.228 -54.604  0.00  0.00    -0.273 OA
BRANCH  23  24
ATOM     24  C   UNL d   1     -42.438-121.733 -55.219  0.00  0.00     0.300 C 
ATOM     25  O   UNL d   1     -42.173-120.961 -55.060  0.00  0.00    -0.259 OA
ATOM     26  C   UNL d   1     -42.388-122.052 -56.110  0.00  0.00     0.074 C 
ENDBRANCH  23  24
ENDBRANCH   3  23
TORSDOF 5
ENDMDL
