MODEL 1
REMARK VINA RESULT:      16.8      0.000      0.000
REMARK  2 active torsions:
REMARK  status: ('A' for Active; 'I' for Inactive)
REMARK    1  A    between atoms: C_6  and  C_1 
REMARK    2  A    between atoms: C_8  and  C_6 
ROOT
ATOM      1  C   UNL d   1     -56.927 -98.757 -44.337  0.00  0.00     0.141 A 
ATOM      2  C   UNL d   1     -58.268 -98.756 -44.364  0.00  0.00     0.064 A 
ATOM      3  C   UNL d   1     -57.587 -98.756 -44.833  0.00  0.00     0.220 A 
ATOM      4  C   UNL d   1     -58.028 -98.756 -43.575  0.00  0.00     0.106 A 
ATOM      5  O   UNL d   1     -57.201 -98.757 -43.552  0.00  0.00    -0.304 OA
ATOM      6  C   UNL d   1     -59.075 -98.755 -44.557  0.00  0.00     0.008 A 
ATOM      7  C   UNL d   1     -58.592 -98.756 -42.971  0.00  0.00     0.067 A 
ATOM      8  C   UNL d   1     -59.637 -98.755 -43.955  0.00  0.00     0.042 A 
ATOM      9  C   UNL d   1     -59.397 -98.756 -43.166  0.00  0.00     0.198 A 
ATOM     10  O   UNL d   1     -57.566 -98.756 -45.662  0.00  0.00    -0.284 OA
ATOM     11  O   UNL d   1     -59.958 -98.755 -42.563  0.00  0.00    -0.286 OA
ATOM     12  C   UNL d   1     -59.312 -98.755 -45.348  0.00  0.00     0.000 C 
ENDROOT
BRANCH   1  13
ATOM     13  C   UNL d   1     -56.135 -98.757 -44.569  0.00  0.00     0.053 C 
BRANCH  13  14
ATOM     14  C   UNL d   1     -55.675 -99.432 -44.477  0.00  0.00     0.102 A 
ATOM     15  O   UNL d   1     -55.778-100.141 -44.889  0.00  0.00    -0.305 OA
ATOM     16  C   UNL d   1     -55.198-100.666 -44.625  0.00  0.00     0.123 A 
ATOM     17  C   UNL d   1     -54.745-100.285 -44.058  0.00  0.00     0.029 A 
ATOM     18  C   UNL d   1     -55.040 -99.516 -43.964  0.00  0.00     0.027 A 
ENDBRANCH  13  14
ENDBRANCH   1  13
TORSDOF 2
ENDMDL
