MODEL 1
REMARK VINA RESULT:      -8.3      0.000      0.000
REMARK  6 active torsions:
REMARK  status: ('A' for Active; 'I' for Inactive)
REMARK       I    between atoms: C_2  and  N_1 
REMARK    1  A    between atoms: O_20  and  C_2 
REMARK       I    between atoms: C_5  and  N_3 
REMARK    2  A    between atoms: C_16  and  C_5 
REMARK    3  A    between atoms: C_9  and  C_7 
REMARK    4  A    between atoms: C_8  and  S_14 
REMARK    5  A    between atoms: S_14  and  C_16 
REMARK    6  A    between atoms: C_25  and  O_20 
ROOT
ATOM      1  C   UNL d   1      50.052  34.500  52.432  0.00  0.00     0.098 C 
ENDROOT
BRANCH   1   2
ATOM      2  S   UNL d   1      50.714  34.084  52.185  0.00  0.00    -0.061 SA
BRANCH   2   3
ATOM      3  C   UNL d   1      51.362  33.994  52.687  0.00  0.00     0.133 A 
ATOM      4  N   UNL d   1      51.357  33.427  53.278  0.00  0.00    -0.141 NA
ATOM      5  N   UNL d   1      52.005  33.338  53.780  0.00  0.00    -0.148 NA
ATOM      6  C   UNL d   1      52.671  33.824  53.690  0.00  0.00     0.104 A 
ATOM      7  C   UNL d   1      52.679  34.397  53.094  0.00  0.00     0.023 A 
ATOM      8  C   UNL d   1      52.031  34.484  52.595  0.00  0.00     0.029 A 
BRANCH   6   9
ATOM      9  C   UNL d   1      53.319  33.734  54.192  0.00  0.00     0.039 A 
ATOM     10  C   UNL d   1      53.495  34.318  54.732  0.00  0.00     0.101 A 
ATOM     11  N   UNL d   1      54.137  34.233  55.232  0.00  0.00    -0.242 NA
ATOM     12  C   UNL d   1      54.609  33.549  55.187  0.00  0.00     0.099 A 
ATOM     13  C   UNL d   1      54.428  32.965  54.643  0.00  0.00     0.021 A 
ATOM     14  C   UNL d   1      53.781  33.046  54.136  0.00  0.00     0.005 A 
ENDBRANCH   6   9
ENDBRANCH   2   3
ENDBRANCH   1   2
BRANCH   1  15
ATOM     15  C   UNL d   1      49.431  34.633  51.902  0.00  0.00     0.272 C 
ATOM     16  N   UNL d   1      48.771  35.061  52.143  0.00  0.00    -0.269 N 
ATOM     17  C   UNL d   1      48.735  35.356  52.917  0.00  0.00     0.102 A 
ATOM     18  C   UNL d   1      48.158  35.192  51.618  0.00  0.00     0.102 A 
ATOM     19  C   UNL d   1      48.075  35.780  53.148  0.00  0.00     0.104 A 
ATOM     20  N   UNL d   1      47.454  35.917  52.627  0.00  0.00    -0.249 N 
ATOM     21  C   UNL d   1      46.792  36.342  52.856  0.00  0.00     0.378 C 
ATOM     22  C   UNL d   1      47.494  35.621  51.855  0.00  0.00     0.104 A 
ATOM     23  O   UNL d   1      46.752  36.638  53.628  0.00  0.00    -0.237 OA
ATOM     24  O   UNL d   1      49.469  34.342  51.141  0.00  0.00    -0.266 OA
BRANCH  21  25
ATOM     25  O   UNL d   1      46.176  36.474  52.329  0.00  0.00    -0.257 OA
BRANCH  25  26
ATOM     26  C   UNL d   1      45.442  36.709  52.601  0.00  0.00     0.128 C 
ATOM     27  C   UNL d   1      44.792  36.679  52.111  0.00  0.00     0.029 C 
ENDBRANCH  25  26
ENDBRANCH  21  25
ENDBRANCH   1  15
TORSDOF 6
ENDMDL
MODEL 2
REMARK VINA RESULT:      -6.7      1.452      1.868
REMARK  6 active torsions:
REMARK  status: ('A' for Active; 'I' for Inactive)
REMARK       I    between atoms: C_2  and  N_1 
REMARK    1  A    between atoms: O_20  and  C_2 
REMARK       I    between atoms: C_5  and  N_3 
REMARK    2  A    between atoms: C_16  and  C_5 
REMARK    3  A    between atoms: C_9  and  C_7 
REMARK    4  A    between atoms: C_8  and  S_14 
REMARK    5  A    between atoms: S_14  and  C_16 
REMARK    6  A    between atoms: C_25  and  O_20 
ROOT
ATOM      1  C   UNL d   1      49.725  34.697  52.712  0.00  0.00     0.098 C 
ENDROOT
BRANCH   1   2
ATOM      2  S   UNL d   1      50.526  34.806  52.855  0.00  0.00    -0.061 SA
BRANCH   2   3
ATOM      3  C   UNL d   1      51.030  34.156  52.925  0.00  0.00     0.133 A 
ATOM      4  N   UNL d   1      50.856  33.549  53.446  0.00  0.00    -0.141 NA
ATOM      5  N   UNL d   1      51.360  32.899  53.516  0.00  0.00    -0.148 NA
ATOM      6  C   UNL d   1      52.049  32.856  53.057  0.00  0.00     0.104 A 
ATOM      7  C   UNL d   1      52.227  33.468  52.530  0.00  0.00     0.023 A 
ATOM      8  C   UNL d   1      51.722  34.115  52.463  0.00  0.00     0.029 A 
BRANCH   6   9
ATOM      9  C   UNL d   1      52.553  32.207  53.128  0.00  0.00     0.039 A 
ATOM     10  C   UNL d   1      52.351  31.500  52.777  0.00  0.00     0.101 A 
ATOM     11  N   UNL d   1      52.848  30.853  52.844  0.00  0.00    -0.242 NA
ATOM     12  C   UNL d   1      53.559  30.920  53.271  0.00  0.00     0.099 A 
ATOM     13  C   UNL d   1      53.757  31.632  53.622  0.00  0.00     0.021 A 
ATOM     14  C   UNL d   1      53.259  32.288  53.557  0.00  0.00     0.005 A 
ENDBRANCH   6   9
ENDBRANCH   2   3
ENDBRANCH   1   2
BRANCH   1  15
ATOM     15  C   UNL d   1      49.186  35.279  52.945  0.00  0.00     0.272 C 
ATOM     16  N   UNL d   1      48.477  35.367  52.537  0.00  0.00    -0.269 N 
ATOM     17  C   UNL d   1      48.309  34.869  51.895  0.00  0.00     0.102 A 
ATOM     18  C   UNL d   1      47.944  35.943  52.768  0.00  0.00     0.102 A 
ATOM     19  C   UNL d   1      47.602  34.963  51.495  0.00  0.00     0.104 A 
ATOM     20  N   UNL d   1      47.061  35.539  51.720  0.00  0.00    -0.249 N 
ATOM     21  C   UNL d   1      46.352  35.636  51.321  0.00  0.00     0.378 C 
ATOM     22  C   UNL d   1      47.231  36.034  52.361  0.00  0.00     0.104 A 
ATOM     23  O   UNL d   1      46.182  35.141  50.680  0.00  0.00    -0.237 OA
ATOM     24  O   UNL d   1      49.352  35.767  53.576  0.00  0.00    -0.266 OA
BRANCH  21  25
ATOM     25  O   UNL d   1      45.816  36.215  51.553  0.00  0.00    -0.257 OA
BRANCH  25  26
ATOM     26  C   UNL d   1      45.102  36.297  51.163  0.00  0.00     0.128 C 
ATOM     27  C   UNL d   1      44.452  36.595  51.554  0.00  0.00     0.029 C 
ENDBRANCH  25  26
ENDBRANCH  21  25
ENDBRANCH   1  15
TORSDOF 6
ENDMDL
MODEL 3
REMARK VINA RESULT:      -6.7      2.805      6.694
REMARK  6 active torsions:
REMARK  status: ('A' for Active; 'I' for Inactive)
REMARK       I    between atoms: C_2  and  N_1 
REMARK    1  A    between atoms: O_20  and  C_2 
REMARK       I    between atoms: C_5  and  N_3 
REMARK    2  A    between atoms: C_16  and  C_5 
REMARK    3  A    between atoms: C_9  and  C_7 
REMARK    4  A    between atoms: C_8  and  S_14 
REMARK    5  A    between atoms: S_14  and  C_16 
REMARK    6  A    between atoms: C_25  and  O_20 
ROOT
ATOM      1  C   UNL d   1      52.207  33.266  52.709  0.00  0.00     0.098 C 
ENDROOT
BRANCH   1   2
ATOM      2  S   UNL d   1      51.902  34.017  52.839  0.00  0.00    -0.061 SA
BRANCH   2   3
ATOM      3  C   UNL d   1      51.160  34.223  52.543  0.00  0.00     0.133 A 
ATOM      4  N   UNL d   1      51.030  34.263  51.735  0.00  0.00    -0.141 NA
ATOM      5  N   UNL d   1      50.289  34.469  51.439  0.00  0.00    -0.148 NA
ATOM      6  C   UNL d   1      49.665  34.637  51.959  0.00  0.00     0.104 A 
ATOM      7  C   UNL d   1      49.793  34.597  52.775  0.00  0.00     0.023 A 
ATOM      8  C   UNL d   1      50.534  34.392  53.067  0.00  0.00     0.029 A 
BRANCH   6   9
ATOM      9  C   UNL d   1      48.923  34.843  51.663  0.00  0.00     0.039 A 
ATOM     10  C   UNL d   1      48.659  34.508  50.969  0.00  0.00     0.101 A 
ATOM     11  N   UNL d   1      47.924  34.709  50.672  0.00  0.00    -0.242 NA
ATOM     12  C   UNL d   1      47.448  35.257  51.079  0.00  0.00     0.099 A 
ATOM     13  C   UNL d   1      47.718  35.591  51.776  0.00  0.00     0.021 A 
ATOM     14  C   UNL d   1      48.459  35.391  52.080  0.00  0.00     0.005 A 
ENDBRANCH   6   9
ENDBRANCH   2   3
ENDBRANCH   1   2
BRANCH   1  15
ATOM     15  C   UNL d   1      52.785  32.967  53.220  0.00  0.00     0.272 C 
ATOM     16  N   UNL d   1      52.854  32.154  53.328  0.00  0.00    -0.269 N 
ATOM     17  C   UNL d   1      52.343  31.642  52.923  0.00  0.00     0.102 A 
ATOM     18  C   UNL d   1      53.426  31.858  53.833  0.00  0.00     0.102 A 
ATOM     19  C   UNL d   1      52.418  30.836  53.036  0.00  0.00     0.104 A 
ATOM     20  N   UNL d   1      52.990  30.530  53.541  0.00  0.00    -0.249 N 
ATOM     21  C   UNL d   1      53.068  29.723  53.656  0.00  0.00     0.378 C 
ATOM     22  C   UNL d   1      53.498  31.044  53.944  0.00  0.00     0.104 A 
ATOM     23  O   UNL d   1      52.559  29.209  53.254  0.00  0.00    -0.237 OA
ATOM     24  O   UNL d   1      53.287  33.471  53.617  0.00  0.00    -0.266 OA
BRANCH  21  25
ATOM     25  O   UNL d   1      53.642  29.425  54.164  0.00  0.00    -0.257 OA
BRANCH  25  26
ATOM     26  C   UNL d   1      53.615  28.645  54.406  0.00  0.00     0.128 C 
ATOM     27  C   UNL d   1      53.640  28.459  55.199  0.00  0.00     0.029 C 
ENDBRANCH  25  26
ENDBRANCH  21  25
ENDBRANCH   1  15
TORSDOF 6
ENDMDL
MODEL 4
REMARK VINA RESULT:      -5.8      1.837      6.426
REMARK  6 active torsions:
REMARK  status: ('A' for Active; 'I' for Inactive)
REMARK       I    between atoms: C_2  and  N_1 
REMARK    1  A    between atoms: O_20  and  C_2 
REMARK       I    between atoms: C_5  and  N_3 
REMARK    2  A    between atoms: C_16  and  C_5 
REMARK    3  A    between atoms: C_9  and  C_7 
REMARK    4  A    between atoms: C_8  and  S_14 
REMARK    5  A    between atoms: S_14  and  C_16 
REMARK    6  A    between atoms: C_25  and  O_20 
ROOT
ATOM      1  C   UNL d   1      50.430  34.466  52.685  0.00  0.00     0.098 C 
ENDROOT
BRANCH   1   2
ATOM      2  S   UNL d   1      49.903  34.461  52.055  0.00  0.00    -0.061 SA
BRANCH   2   3
ATOM      3  C   UNL d   1      49.172  34.836  52.120  0.00  0.00     0.133 A 
ATOM      4  N   UNL d   1      48.963  35.227  52.809  0.00  0.00    -0.141 NA
ATOM      5  N   UNL d   1      48.231  35.602  52.874  0.00  0.00    -0.148 NA
ATOM      6  C   UNL d   1      47.698  35.586  52.239  0.00  0.00     0.104 A 
ATOM      7  C   UNL d   1      47.906  35.192  51.542  0.00  0.00     0.023 A 
ATOM      8  C   UNL d   1      48.637  34.819  51.480  0.00  0.00     0.029 A 
BRANCH   6   9
ATOM      9  C   UNL d   1      46.966  35.960  52.304  0.00  0.00     0.039 A 
ATOM     10  C   UNL d   1      46.455  35.960  51.670  0.00  0.00     0.101 A 
ATOM     11  N   UNL d   1      45.728  36.330  51.730  0.00  0.00    -0.242 NA
ATOM     12  C   UNL d   1      45.513  36.708  52.440  0.00  0.00     0.099 A 
ATOM     13  C   UNL d   1      46.030  36.706  53.074  0.00  0.00     0.021 A 
ATOM     14  C   UNL d   1      46.765  36.333  53.018  0.00  0.00     0.005 A 
ENDBRANCH   6   9
ENDBRANCH   2   3
ENDBRANCH   1   2
BRANCH   1  15
ATOM     15  C   UNL d   1      51.032  33.900  52.718  0.00  0.00     0.272 C 
ATOM     16  N   UNL d   1      51.666  34.006  53.231  0.00  0.00    -0.269 N 
ATOM     17  C   UNL d   1      51.695  34.681  53.712  0.00  0.00     0.102 A 
ATOM     18  C   UNL d   1      52.261  33.446  53.264  0.00  0.00     0.102 A 
ATOM     19  C   UNL d   1      52.328  34.780  54.219  0.00  0.00     0.104 A 
ATOM     20  N   UNL d   1      52.931  34.222  54.258  0.00  0.00    -0.249 N 
ATOM     21  C   UNL d   1      53.567  34.317  54.766  0.00  0.00     0.378 C 
ATOM     22  C   UNL d   1      52.898  33.549  53.778  0.00  0.00     0.104 A 
ATOM     23  O   UNL d   1      53.599  34.990  55.247  0.00  0.00    -0.237 OA
ATOM     24  O   UNL d   1      51.002  33.237  52.245  0.00  0.00    -0.266 OA
BRANCH  21  25
ATOM     25  O   UNL d   1      54.165  33.754  54.799  0.00  0.00    -0.257 OA
BRANCH  25  26
ATOM     26  C   UNL d   1      54.752  33.808  55.365  0.00  0.00     0.128 C 
ATOM     27  C   UNL d   1      55.537  33.775  55.149  0.00  0.00     0.029 C 
ENDBRANCH  25  26
ENDBRANCH  21  25
ENDBRANCH   1  15
TORSDOF 6
ENDMDL
MODEL 5
REMARK VINA RESULT:      -5.6     10.662     11.402
REMARK  6 active torsions:
REMARK  status: ('A' for Active; 'I' for Inactive)
REMARK       I    between atoms: C_2  and  N_1 
REMARK    1  A    between atoms: O_20  and  C_2 
REMARK       I    between atoms: C_5  and  N_3 
REMARK    2  A    between atoms: C_16  and  C_5 
REMARK    3  A    between atoms: C_9  and  C_7 
REMARK    4  A    between atoms: C_8  and  S_14 
REMARK    5  A    between atoms: S_14  and  C_16 
REMARK    6  A    between atoms: C_25  and  O_20 
ROOT
ATOM      1  C   UNL d   1      44.753  29.020  59.054  0.00  0.00     0.098 C 
ENDROOT
BRANCH   1   2
ATOM      2  S   UNL d   1      45.060  28.890  58.304  0.00  0.00    -0.061 SA
BRANCH   2   3
ATOM      3  C   UNL d   1      44.970  28.156  57.937  0.00  0.00     0.133 A 
ATOM      4  N   UNL d   1      45.344  27.492  58.236  0.00  0.00    -0.141 NA
ATOM      5  N   UNL d   1      45.253  26.758  57.869  0.00  0.00    -0.148 NA
ATOM      6  C   UNL d   1      44.780  26.688  57.192  0.00  0.00     0.104 A 
ATOM      7  C   UNL d   1      44.401  27.357  56.888  0.00  0.00     0.023 A 
ATOM      8  C   UNL d   1      44.493  28.087  57.256  0.00  0.00     0.029 A 
BRANCH   6   9
ATOM      9  C   UNL d   1      44.689  25.954  56.826  0.00  0.00     0.039 A 
ATOM     10  C   UNL d   1      44.821  25.884  56.026  0.00  0.00     0.101 A 
ATOM     11  N   UNL d   1      44.733  25.159  55.658  0.00  0.00    -0.242 NA
ATOM     12  C   UNL d   1      44.507  24.494  56.105  0.00  0.00     0.099 A 
ATOM     13  C   UNL d   1      44.376  24.569  56.908  0.00  0.00     0.021 A 
ATOM     14  C   UNL d   1      44.464  25.299  57.284  0.00  0.00     0.005 A 
ENDBRANCH   6   9
ENDBRANCH   2   3
ENDBRANCH   1   2
BRANCH   1  15
ATOM     15  C   UNL d   1      44.740  29.787  59.362  0.00  0.00     0.272 C 
ATOM     16  N   UNL d   1      44.652  29.902  60.172  0.00  0.00    -0.269 N 
ATOM     17  C   UNL d   1      44.577  29.245  60.672  0.00  0.00     0.102 A 
ATOM     18  C   UNL d   1      44.640  30.661  60.476  0.00  0.00     0.102 A 
ATOM     19  C   UNL d   1      44.490  29.367  61.476  0.00  0.00     0.104 A 
ATOM     20  N   UNL d   1      44.476  30.126  61.790  0.00  0.00    -0.249 N 
ATOM     21  C   UNL d   1      44.389  30.252  62.596  0.00  0.00     0.378 C 
ATOM     22  C   UNL d   1      44.552  30.779  61.288  0.00  0.00     0.104 A 
ATOM     23  O   UNL d   1      44.314  29.599  63.098  0.00  0.00    -0.237 OA
ATOM     24  O   UNL d   1      44.814  30.432  58.869  0.00  0.00    -0.266 OA
BRANCH  21  25
ATOM     25  O   UNL d   1      44.377  31.015  62.902  0.00  0.00    -0.257 OA
BRANCH  25  26
ATOM     26  C   UNL d   1      44.347  31.135  63.709  0.00  0.00     0.128 C 
ATOM     27  C   UNL d   1      44.314  31.891  64.012  0.00  0.00     0.029 C 
ENDBRANCH  25  26
ENDBRANCH  21  25
ENDBRANCH   1  15
TORSDOF 6
ENDMDL
