MODEL 1
REMARK VINA RESULT:      34.8      0.000      0.000
REMARK  2 active torsions:
REMARK  status: ('A' for Active; 'I' for Inactive)
REMARK    1  A    between atoms: C_3  and  C_1 
REMARK       I    between atoms: N_2  and  C_3 
REMARK    2  A    between atoms: O_16  and  C_15 
ROOT
ATOM      1  C   UNL d   1     -56.984 -99.175 -44.392  0.00  0.00     0.121 A 
ATOM      2  C   UNL d   1     -57.032 -99.135 -43.567  0.00  0.00     0.305 A 
ATOM      3  O   UNL d   1     -57.772 -99.019 -43.199  0.00  0.00    -0.271 OA
ATOM      4  C   UNL d   1     -57.672 -99.100 -44.859  0.00  0.00     0.012 A 
ATOM      5  C   UNL d   1     -58.450 -98.945 -43.654  0.00  0.00     0.125 A 
ATOM      6  C   UNL d   1     -58.401 -98.986 -44.487  0.00  0.00     0.025 A 
ATOM      7  O   UNL d   1     -56.355 -99.208 -43.109  0.00  0.00    -0.259 OA
ATOM      8  C   UNL d   1     -59.190 -98.829 -43.298  0.00  0.00     0.117 A 
ATOM      9  C   UNL d   1     -59.086 -98.911 -44.946  0.00  0.00     0.002 A 
ATOM     10  C   UNL d   1     -59.815 -98.797 -44.576  0.00  0.00     0.002 A 
ATOM     11  C   UNL d   1     -59.866 -98.756 -43.757  0.00  0.00     0.026 A 
ENDROOT
BRANCH   1  12
ATOM     12  C   UNL d   1     -56.255 -99.289 -44.753  0.00  0.00     0.285 C 
ATOM     13  N   UNL d   1     -55.787 -99.932 -44.552  0.00  0.00    -0.193 N 
ATOM     14  N   UNL d   1     -55.979-100.509 -43.998  0.00  0.00    -0.163 NA
ATOM     15  C   UNL d   1     -55.051-100.114 -44.866  0.00  0.00     0.105 A 
ATOM     16  C   UNL d   1     -55.358-101.047 -43.971  0.00  0.00     0.103 A 
ATOM     17  C   UNL d   1     -55.321-101.717 -43.486  0.00  0.00     0.022 C 
ATOM     18  C   UNL d   1     -54.790-100.803 -44.504  0.00  0.00     0.042 A 
ATOM     19  O   UNL d   1     -55.988 -98.756 -45.320  0.00  0.00    -0.265 OA
ENDBRANCH   1  12
BRANCH   8  20
ATOM     20  O   UNL d   1     -59.233 -98.790 -42.477  0.00  0.00    -0.326 OA
ATOM     21  C   UNL d   1     -59.957 -98.820 -42.094  0.00  0.00     0.181 C 
ENDBRANCH   8  20
TORSDOF 2
ENDMDL
