MODEL 1
REMARK VINA RESULT:      -7.4      0.000      0.000
REMARK  5 active torsions:
REMARK  status: ('A' for Active; 'I' for Inactive)
REMARK    1  A    between atoms: S_2  and  C_1 
REMARK    2  A    between atoms: N_8  and  S_2 
REMARK    3  A    between atoms: C_11  and  C_16 
REMARK    4  A    between atoms: O_22  and  C_11 
REMARK    5  A    between atoms: C_23  and  O_22 
ROOT
ATOM      1  S   UNL d   1     -47.945  13.398  22.637  0.00  0.00     0.277 S 
ATOM      2  O   UNL d   1     -48.136  13.189  23.416  0.00  0.00    -0.199 OA
ATOM      3  O   UNL d   1     -47.743  13.600  21.866  0.00  0.00    -0.199 OA
ENDROOT
BRANCH   1   4
ATOM      4  C   UNL d   1     -48.667  13.784  22.555  0.00  0.00     0.178 A 
ATOM      5  C   UNL d   1     -48.748  14.555  22.843  0.00  0.00     0.282 A 
ATOM      6  N   UNL d   1     -49.469  14.937  22.760  0.00  0.00    -0.224 N 
ATOM      7  O   UNL d   1     -48.125  14.924  23.200  0.00  0.00    -0.266 OA
ATOM      8  C   UNL d   1     -49.544  15.706  23.049  0.00  0.00     0.107 C 
ATOM      9  C   UNL d   1     -50.102  14.562  22.397  0.00  0.00     0.342 A 
ATOM     10  N   UNL d   1     -50.018  13.802  22.114  0.00  0.00    -0.255 N 
ATOM     11  O   UNL d   1     -50.827  14.945  22.313  0.00  0.00    -0.245 OA
ATOM     12  C   UNL d   1     -49.301  13.409  22.192  0.00  0.00     0.102 A 
ATOM     13  C   UNL d   1     -50.648  13.428  21.753  0.00  0.00     0.104 C 
ENDBRANCH   1   4
BRANCH   1  14
ATOM     14  N   UNL d   1     -47.217  13.014  22.709  0.00  0.00    -0.229 N 
ATOM     15  C   UNL d   1     -46.557  13.270  22.245  0.00  0.00     0.092 A 
ATOM     16  C   UNL d   1     -45.827  12.870  22.330  0.00  0.00     0.025 A 
ATOM     17  C   UNL d   1     -45.749  12.227  22.862  0.00  0.00     0.067 A 
ATOM     18  C   UNL d   1     -46.399  11.976  23.317  0.00  0.00     0.025 A 
ATOM     19  C   UNL d   1     -47.139  12.371  23.241  0.00  0.00     0.092 A 
BRANCH  17  20
ATOM     20  C   UNL d   1     -45.034  11.847  22.934  0.00  0.00     0.300 C 
ATOM     21  O   UNL d   1     -44.389  12.147  22.577  0.00  0.00    -0.259 OA
BRANCH  20  22
ATOM     22  O   UNL d   1     -44.992  11.167  23.370  0.00  0.00    -0.271 OA
BRANCH  22  23
ATOM     23  C   UNL d   1     -44.345  10.717  23.358  0.00  0.00     0.126 C 
ATOM     24  C   UNL d   1     -44.354   9.988  23.695  0.00  0.00     0.029 C 
ENDBRANCH  22  23
ENDBRANCH  20  22
ENDBRANCH  17  20
ENDBRANCH   1  14
TORSDOF 5
ENDMDL
MODEL 2
REMARK VINA RESULT:      -6.9      0.905      1.276
REMARK  5 active torsions:
REMARK  status: ('A' for Active; 'I' for Inactive)
REMARK    1  A    between atoms: S_2  and  C_1 
REMARK    2  A    between atoms: N_8  and  S_2 
REMARK    3  A    between atoms: C_11  and  C_16 
REMARK    4  A    between atoms: O_22  and  C_11 
REMARK    5  A    between atoms: C_23  and  O_22 
ROOT
ATOM      1  S   UNL d   1     -47.972  13.499  22.813  0.00  0.00     0.277 S 
ATOM      2  O   UNL d   1     -48.053  13.528  21.989  0.00  0.00    -0.199 OA
ATOM      3  O   UNL d   1     -47.881  13.465  23.629  0.00  0.00    -0.199 OA
ENDROOT
BRANCH   1   4
ATOM      4  C   UNL d   1     -48.747  13.761  22.905  0.00  0.00     0.178 A 
ATOM      5  C   UNL d   1     -48.890  14.567  23.018  0.00  0.00     0.282 A 
ATOM      6  N   UNL d   1     -49.662  14.827  23.110  0.00  0.00    -0.224 N 
ATOM      7  O   UNL d   1     -48.275  15.091  23.037  0.00  0.00    -0.266 OA
ATOM      8  C   UNL d   1     -49.798  15.632  23.222  0.00  0.00     0.107 C 
ATOM      9  C   UNL d   1     -50.287  14.295  23.090  0.00  0.00     0.342 A 
ATOM     10  N   UNL d   1     -50.142  13.500  22.979  0.00  0.00    -0.255 N 
ATOM     11  O   UNL d   1     -51.064  14.554  23.182  0.00  0.00    -0.245 OA
ATOM     12  C   UNL d   1     -49.372  13.229  22.886  0.00  0.00     0.102 A 
ATOM     13  C   UNL d   1     -50.764  12.970  22.959  0.00  0.00     0.104 C 
ENDBRANCH   1   4
BRANCH   1  14
ATOM     14  N   UNL d   1     -47.194  13.235  22.732  0.00  0.00    -0.229 N 
ATOM     15  C   UNL d   1     -46.709  13.533  22.105  0.00  0.00     0.092 A 
ATOM     16  C   UNL d   1     -45.924  13.255  22.038  0.00  0.00     0.025 A 
ATOM     17  C   UNL d   1     -45.619  12.692  22.579  0.00  0.00     0.067 A 
ATOM     18  C   UNL d   1     -46.096  12.399  23.195  0.00  0.00     0.025 A 
ATOM     19  C   UNL d   1     -46.890  12.672  23.273  0.00  0.00     0.092 A 
BRANCH  17  20
ATOM     20  C   UNL d   1     -44.854  12.431  22.502  0.00  0.00     0.300 C 
ATOM     21  O   UNL d   1     -44.596  11.824  22.948  0.00  0.00    -0.259 OA
BRANCH  20  22
ATOM     22  O   UNL d   1     -44.365  12.794  21.969  0.00  0.00    -0.271 OA
BRANCH  22  23
ATOM     23  C   UNL d   1     -43.648  12.506  21.813  0.00  0.00     0.126 C 
ATOM     24  C   UNL d   1     -43.173  12.872  21.279  0.00  0.00     0.029 C 
ENDBRANCH  22  23
ENDBRANCH  20  22
ENDBRANCH  17  20
ENDBRANCH   1  14
TORSDOF 5
ENDMDL
MODEL 3
REMARK VINA RESULT:      -6.5      1.359      4.958
REMARK  5 active torsions:
REMARK  status: ('A' for Active; 'I' for Inactive)
REMARK    1  A    between atoms: S_2  and  C_1 
REMARK    2  A    between atoms: N_8  and  S_2 
REMARK    3  A    between atoms: C_11  and  C_16 
REMARK    4  A    between atoms: O_22  and  C_11 
REMARK    5  A    between atoms: C_23  and  O_22 
ROOT
ATOM      1  S   UNL d   1     -46.528  13.347  22.580  0.00  0.00     0.277 S 
ATOM      2  O   UNL d   1     -46.247  13.772  23.233  0.00  0.00    -0.199 OA
ATOM      3  O   UNL d   1     -46.818  12.933  21.932  0.00  0.00    -0.199 OA
ENDROOT
BRANCH   1   4
ATOM      4  C   UNL d   1     -45.845  12.888  22.574  0.00  0.00     0.178 A 
ATOM      5  C   UNL d   1     -45.810  12.210  23.044  0.00  0.00     0.282 A 
ATOM      6  N   UNL d   1     -45.128  11.754  23.037  0.00  0.00    -0.224 N 
ATOM      7  O   UNL d   1     -46.440  11.999  23.504  0.00  0.00    -0.266 OA
ATOM      8  C   UNL d   1     -45.099  11.078  23.508  0.00  0.00     0.107 C 
ATOM      9  C   UNL d   1     -44.488  11.968  22.570  0.00  0.00     0.342 A 
ATOM     10  N   UNL d   1     -44.526  12.638  22.108  0.00  0.00    -0.255 N 
ATOM     11  O   UNL d   1     -43.802  11.511  22.562  0.00  0.00    -0.245 OA
ATOM     12  C   UNL d   1     -45.204  13.102  22.107  0.00  0.00     0.102 A 
ATOM     13  C   UNL d   1     -43.889  12.851  21.643  0.00  0.00     0.104 C 
ENDBRANCH   1   4
BRANCH   1  14
ATOM     14  N   UNL d   1     -47.218  13.801  22.576  0.00  0.00    -0.229 N 
ATOM     15  C   UNL d   1     -47.963  13.437  22.407  0.00  0.00     0.092 A 
ATOM     16  C   UNL d   1     -48.652  13.911  22.407  0.00  0.00     0.025 A 
ATOM     17  C   UNL d   1     -48.608  14.732  22.571  0.00  0.00     0.067 A 
ATOM     18  C   UNL d   1     -47.875  15.090  22.738  0.00  0.00     0.025 A 
ATOM     19  C   UNL d   1     -47.174  14.622  22.740  0.00  0.00     0.092 A 
BRANCH  17  20
ATOM     20  C   UNL d   1     -49.285  15.181  22.568  0.00  0.00     0.300 C 
ATOM     21  O   UNL d   1     -49.310  15.856  22.147  0.00  0.00    -0.259 OA
BRANCH  20  22
ATOM     22  O   UNL d   1     -49.925  14.933  22.996  0.00  0.00    -0.271 OA
BRANCH  22  23
ATOM     23  C   UNL d   1     -50.581  15.367  23.036  0.00  0.00     0.126 C 
ATOM     24  C   UNL d   1     -51.053  15.328  23.685  0.00  0.00     0.029 C 
ENDBRANCH  22  23
ENDBRANCH  20  22
ENDBRANCH  17  20
ENDBRANCH   1  14
TORSDOF 5
ENDMDL
MODEL 4
REMARK VINA RESULT:      -5.2      8.398      9.114
REMARK  5 active torsions:
REMARK  status: ('A' for Active; 'I' for Inactive)
REMARK    1  A    between atoms: S_2  and  C_1 
REMARK    2  A    between atoms: N_8  and  S_2 
REMARK    3  A    between atoms: C_11  and  C_16 
REMARK    4  A    between atoms: O_22  and  C_11 
REMARK    5  A    between atoms: C_23  and  O_22 
ROOT
ATOM      1  S   UNL d   1     -39.690  14.935  19.222  0.00  0.00     0.277 S 
ATOM      2  O   UNL d   1     -39.131  15.541  19.153  0.00  0.00    -0.199 OA
ATOM      3  O   UNL d   1     -40.243  14.331  19.303  0.00  0.00    -0.199 OA
ENDROOT
BRANCH   1   4
ATOM      4  C   UNL d   1     -39.873  15.001  18.422  0.00  0.00     0.178 A 
ATOM      5  C   UNL d   1     -40.542  15.429  18.195  0.00  0.00     0.282 A 
ATOM      6  N   UNL d   1     -40.723  15.494  17.398  0.00  0.00    -0.224 N 
ATOM      7  O   UNL d   1     -41.012  15.777  18.753  0.00  0.00    -0.266 OA
ATOM      8  C   UNL d   1     -41.392  15.922  17.177  0.00  0.00     0.107 C 
ATOM      9  C   UNL d   1     -40.245  15.141  16.831  0.00  0.00     0.342 A 
ATOM     10  N   UNL d   1     -39.585  14.720  17.059  0.00  0.00    -0.255 N 
ATOM     11  O   UNL d   1     -40.425  15.206  16.029  0.00  0.00    -0.245 OA
ATOM     12  C   UNL d   1     -39.396  14.648  17.855  0.00  0.00     0.102 A 
ATOM     13  C   UNL d   1     -39.110  14.368  16.495  0.00  0.00     0.104 C 
ENDBRANCH   1   4
BRANCH   1  14
ATOM     14  N   UNL d   1     -39.515  14.859  20.025  0.00  0.00    -0.229 N 
ATOM     15  C   UNL d   1     -38.804  15.197  20.337  0.00  0.00     0.092 A 
ATOM     16  C   UNL d   1     -38.642  15.111  21.153  0.00  0.00     0.025 A 
ATOM     17  C   UNL d   1     -39.171  14.698  21.655  0.00  0.00     0.067 A 
ATOM     18  C   UNL d   1     -39.870  14.366  21.348  0.00  0.00     0.025 A 
ATOM     19  C   UNL d   1     -40.044  14.446  20.527  0.00  0.00     0.092 A 
BRANCH  17  20
ATOM     20  C   UNL d   1     -39.001  14.622  22.446  0.00  0.00     0.300 C 
ATOM     21  O   UNL d   1     -39.283  15.156  22.964  0.00  0.00    -0.259 OA
BRANCH  20  22
ATOM     22  O   UNL d   1     -38.546  14.001  22.693  0.00  0.00    -0.271 OA
BRANCH  22  23
ATOM     23  C   UNL d   1     -38.338  13.925  23.449  0.00  0.00     0.126 C 
ATOM     24  C   UNL d   1     -37.953  13.266  23.698  0.00  0.00     0.029 C 
ENDBRANCH  22  23
ENDBRANCH  20  22
ENDBRANCH  17  20
ENDBRANCH   1  14
TORSDOF 5
ENDMDL
MODEL 5
REMARK VINA RESULT:      -5.0      8.505      9.588
REMARK  5 active torsions:
REMARK  status: ('A' for Active; 'I' for Inactive)
REMARK    1  A    between atoms: S_2  and  C_1 
REMARK    2  A    between atoms: N_8  and  S_2 
REMARK    3  A    between atoms: C_11  and  C_16 
REMARK    4  A    between atoms: O_22  and  C_11 
REMARK    5  A    between atoms: C_23  and  O_22 
ROOT
ATOM      1  S   UNL d   1     -39.472  14.873  20.316  0.00  0.00     0.277 S 
ATOM      2  O   UNL d   1     -38.782  15.293  20.135  0.00  0.00    -0.199 OA
ATOM      3  O   UNL d   1     -40.161  14.457  20.483  0.00  0.00    -0.199 OA
ENDROOT
BRANCH   1   4
ATOM      4  C   UNL d   1     -39.220  14.779  21.094  0.00  0.00     0.178 A 
ATOM      5  C   UNL d   1     -38.918  14.049  21.335  0.00  0.00     0.282 A 
ATOM      6  N   UNL d   1     -38.668  13.957  22.110  0.00  0.00    -0.224 N 
ATOM      7  O   UNL d   1     -38.870  13.434  20.812  0.00  0.00    -0.266 OA
ATOM      8  C   UNL d   1     -38.366  13.226  22.346  0.00  0.00     0.107 C 
ATOM      9  C   UNL d   1     -38.716  14.581  22.642  0.00  0.00     0.342 A 
ATOM     10  N   UNL d   1     -39.015  15.300  22.400  0.00  0.00    -0.255 N 
ATOM     11  O   UNL d   1     -38.465  14.490  23.422  0.00  0.00    -0.245 OA
ATOM     12  C   UNL d   1     -39.269  15.403  21.625  0.00  0.00     0.102 A 
ATOM     13  C   UNL d   1     -39.064  15.921  22.929  0.00  0.00     0.104 C 
ENDBRANCH   1   4
BRANCH   1  14
ATOM     14  N   UNL d   1     -39.735  14.961  19.538  0.00  0.00    -0.229 N 
ATOM     15  C   UNL d   1     -40.420  15.431  19.374  0.00  0.00     0.092 A 
ATOM     16  C   UNL d   1     -40.672  15.510  18.580  0.00  0.00     0.025 A 
ATOM     17  C   UNL d   1     -40.257  15.133  17.958  0.00  0.00     0.067 A 
ATOM     18  C   UNL d   1     -39.584  14.671  18.120  0.00  0.00     0.025 A 
ATOM     19  C   UNL d   1     -39.320  14.584  18.916  0.00  0.00     0.092 A 
BRANCH  17  20
ATOM     20  C   UNL d   1     -40.513  15.218  17.191  0.00  0.00     0.300 C 
ATOM     21  O   UNL d   1     -40.075  14.928  16.593  0.00  0.00    -0.259 OA
BRANCH  20  22
ATOM     22  O   UNL d   1     -41.212  15.599  17.050  0.00  0.00    -0.271 OA
BRANCH  22  23
ATOM     23  C   UNL d   1     -41.482  15.694  16.316  0.00  0.00     0.126 C 
ATOM     24  C   UNL d   1     -42.242  15.922  16.190  0.00  0.00     0.029 C 
ENDBRANCH  22  23
ENDBRANCH  20  22
ENDBRANCH  17  20
ENDBRANCH   1  14
TORSDOF 5
ENDMDL
