MODEL 1
REMARK VINA RESULT:      49.9      0.000      0.000
REMARK  4 active torsions:
REMARK  status: ('A' for Active; 'I' for Inactive)
REMARK    1  A    between atoms: C_5  and  N_1 
REMARK    2  A    between atoms: C_7  and  C_5 
REMARK    3  A    between atoms: O_10  and  C_8 
REMARK    4  A    between atoms: C_14  and  O_10 
ROOT
ATOM      1  C   UNL d   1     -50.615  25.460  33.430  0.00  0.00     0.086 C 
ENDROOT
BRANCH   1   2
ATOM      2  N   UNL d   1     -50.926  24.699  33.399  0.00  0.00    -0.268 N 
ATOM      3  C   UNL d   1     -50.489  23.992  33.390  0.00  0.00     0.296 A 
ATOM      4  S   UNL d   1     -51.027  23.366  33.357  0.00  0.00    -0.025 SA
ATOM      5  O   UNL d   1     -49.668  23.928  33.411  0.00  0.00    -0.259 OA
ATOM      6  C   UNL d   1     -51.788  23.678  33.345  0.00  0.00     0.050 A 
ATOM      7  C   UNL d   1     -51.730  24.504  33.371  0.00  0.00     0.073 A 
ATOM      8  C   UNL d   1     -52.542  23.324  33.313  0.00  0.00     0.008 A 
ATOM      9  C   UNL d   1     -52.405  24.969  33.366  0.00  0.00     0.018 A 
ATOM     10  C   UNL d   1     -53.149  24.613  33.334  0.00  0.00     0.002 A 
ATOM     11  C   UNL d   1     -53.217  23.798  33.308  0.00  0.00     0.001 A 
ENDBRANCH   1   2
BRANCH   1  12
ATOM     12  C   UNL d   1     -50.759  25.934  34.094  0.00  0.00     0.040 A 
ATOM     13  C   UNL d   1     -50.501  26.712  34.090  0.00  0.00     0.101 A 
ATOM     14  C   UNL d   1     -50.642  27.182  34.745  0.00  0.00     0.025 A 
ATOM     15  C   UNL d   1     -51.042  26.876  35.408  0.00  0.00     0.002 A 
ATOM     16  C   UNL d   1     -51.296  26.091  35.399  0.00  0.00     0.000 A 
ATOM     17  C   UNL d   1     -51.153  25.618  34.736  0.00  0.00     0.004 A 
BRANCH  13  18
ATOM     18  O   UNL d   1     -50.108  26.987  33.421  0.00  0.00    -0.307 OA
BRANCH  18  19
ATOM     19  C   UNL d   1     -49.439  27.468  33.502  0.00  0.00     0.100 C 
ATOM     20  C   UNL d   1     -48.731  27.141  33.782  0.00  0.00     0.027 C 
ATOM     21  C   UNL d   1     -49.474  28.263  33.306  0.00  0.00     0.027 C 
ENDBRANCH  18  19
ENDBRANCH  13  18
ENDBRANCH   1  12
TORSDOF 4
ENDMDL
