MODEL 1
REMARK VINA RESULT:      51.4      0.000      0.000
REMARK  4 active torsions:
REMARK  status: ('A' for Active; 'I' for Inactive)
REMARK    1  A    between atoms: S_5  and  C_2 
REMARK    2  A    between atoms: C_16  and  S_5 
REMARK    3  A    between atoms: N_11  and  C_8 
REMARK    4  A    between atoms: C_12  and  N_11 
ROOT
ATOM      1  C   UNL d   1      13.905  14.022  -3.188  0.00  0.00     0.197 A 
ATOM      2  C   UNL d   1      14.032  14.822  -3.013  0.00  0.00     0.227 A 
ATOM      3  N   UNL d   1      13.535  13.980  -3.926  0.00  0.00    -0.192 N 
ATOM      4  N   UNL d   1      14.076  13.329  -2.774  0.00  0.00    -0.206 NA
ATOM      5  N   UNL d   1      13.741  15.273  -3.642  0.00  0.00    -0.115 NA
ATOM      6  N   UNL d   1      13.432  14.753  -4.210  0.00  0.00    -0.058 NA
ATOM      7  C   UNL d   1      13.878  12.591  -3.096  0.00  0.00     0.166 A 
ATOM      8  C   UNL d   1      13.509  12.556  -3.833  0.00  0.00     0.054 A 
ATOM      9  C   UNL d   1      13.335  13.245  -4.253  0.00  0.00     0.089 A 
ATOM     10  C   UNL d   1      13.309  11.819  -4.161  0.00  0.00     0.005 A 
ATOM     11  C   UNL d   1      12.966  13.205  -4.989  0.00  0.00     0.019 A 
ATOM     12  C   UNL d   1      12.941  11.781  -4.896  0.00  0.00     0.000 A 
ATOM     13  C   UNL d   1      12.770  12.473  -5.310  0.00  0.00     0.002 A 
ENDROOT
BRANCH   2  14
ATOM     14  S   UNL d   1      14.388  15.116  -2.328  0.00  0.00     0.231 S 
ATOM     15  O   UNL d   1      13.885  14.674  -1.850  0.00  0.00    -0.215 OA
ATOM     16  O   UNL d   1      14.890  15.557  -2.809  0.00  0.00    -0.215 OA
BRANCH  14  17
ATOM     17  C   UNL d   1      14.768  15.431  -1.673  0.00  0.00     0.090 A 
ATOM     18  C   UNL d   1      15.024  16.217  -1.689  0.00  0.00     0.011 A 
ATOM     19  C   UNL d   1      15.403  16.536  -1.039  0.00  0.00     0.001 A 
ATOM     20  C   UNL d   1      15.532  16.074  -0.365  0.00  0.00     0.000 A 
ATOM     21  C   UNL d   1      15.274  15.288  -0.352  0.00  0.00     0.001 A 
ATOM     22  C   UNL d   1      14.896  14.973  -1.003  0.00  0.00     0.011 A 
ENDBRANCH  14  17
ENDBRANCH   2  14
BRANCH   7  23
ATOM     23  N   UNL d   1      14.049  11.898  -2.682  0.00  0.00    -0.227 NA
BRANCH  23  24
ATOM     24  C   UNL d   1      13.918  11.860  -1.871  0.00  0.00     0.083 A 
ATOM     25  C   UNL d   1      14.557  11.839  -1.348  0.00  0.00     0.018 A 
ATOM     26  C   UNL d   1      14.425  11.801  -0.537  0.00  0.00     0.002 A 
ATOM     27  C   UNL d   1      15.330  11.858  -1.642  0.00  0.00     0.002 C 
ATOM     28  C   UNL d   1      15.063  11.780  -0.015  0.00  0.00     0.000 C 
ATOM     29  C   UNL d   1      13.650  11.782  -0.241  0.00  0.00     0.000 A 
ATOM     30  C   UNL d   1      13.012  11.803  -0.772  0.00  0.00     0.002 A 
ATOM     31  C   UNL d   1      13.147  11.842  -1.580  0.00  0.00     0.019 A 
ENDBRANCH  23  24
ENDBRANCH   7  23
TORSDOF 4
ENDMDL
