MODEL 1
REMARK VINA RESULT:     116.7      0.000      0.000
REMARK  6 active torsions:
REMARK  status: ('A' for Active; 'I' for Inactive)
REMARK    1  A    between atoms: C_7  and  C_1 
REMARK    2  A    between atoms: C_10  and  C_2 
REMARK    3  A    between atoms: C_8  and  C_7 
REMARK    4  A    between atoms: C_9  and  C_8 
REMARK    5  A    between atoms: C_13  and  C_9 
REMARK    6  A    between atoms: O_20  and  C_16 
ROOT
ATOM      1  C   UNL d   1      59.843  47.088  50.887  0.00  0.00     0.097 A 
ATOM      2  C   UNL d   1      60.590  47.300  50.610  0.00  0.00     0.009 A 
ATOM      3  C   UNL d   1      59.599  46.306  50.863  0.00  0.00     0.282 A 
ATOM      4  C   UNL d   1      61.091  46.718  50.308  0.00  0.00     0.019 A 
ATOM      5  N   UNL d   1      60.101  45.727  50.562  0.00  0.00    -0.208 NA
ATOM      6  C   UNL d   1      60.848  45.935  50.284  0.00  0.00     0.085 A 
ATOM      7  C   UNL d   1      61.838  46.930  50.030  0.00  0.00     0.013 A 
ATOM      8  O   UNL d   1      58.829  46.125  51.155  0.00  0.00    -0.265 OA
ATOM      9  C   UNL d   1      61.349  45.357  49.983  0.00  0.00     0.020 A 
ATOM     10  C   UNL d   1      62.339  46.347  49.729  0.00  0.00     0.058 A 
ATOM     11  C   UNL d   1      62.096  45.565  49.705  0.00  0.00     0.013 A 
ATOM     12 CL   UNL d   1      63.102  46.539  49.441  0.00  0.00    -0.082 Cl
ENDROOT
BRANCH   1  13
ATOM     13  C   UNL d   1      59.309  47.665  51.202  0.00  0.00     0.200 C 
ATOM     14  O   UNL d   1      59.331  47.843  51.999  0.00  0.00    -0.286 OA
BRANCH  13  15
ATOM     15  C   UNL d   1      58.772  48.039  50.698  0.00  0.00     0.042 C 
BRANCH  15  16
ATOM     16  C   UNL d   1      58.101  48.393  51.002  0.00  0.00     0.005 C 
BRANCH  16  17
ATOM     17  C   UNL d   1      57.613  48.828  50.507  0.00  0.00     0.022 A 
ATOM     18  C   UNL d   1      56.921  49.171  50.808  0.00  0.00     0.094 A 
ATOM     19  C   UNL d   1      56.423  49.614  50.310  0.00  0.00     0.024 A 
ATOM     20  C   UNL d   1      56.628  49.703  49.525  0.00  0.00     0.002 A 
ATOM     21  C   UNL d   1      57.330  49.359  49.202  0.00  0.00     0.000 A 
ATOM     22  C   UNL d   1      57.810  48.928  49.700  0.00  0.00     0.002 A 
BRANCH  18  23
ATOM     23  O   UNL d   1      56.712  49.080  51.612  0.00  0.00    -0.328 OA
ATOM     24  C   UNL d   1      56.219  49.612  51.970  0.00  0.00     0.181 C 
ENDBRANCH  18  23
ENDBRANCH  16  17
ENDBRANCH  15  16
ENDBRANCH  13  15
ENDBRANCH   1  13
BRANCH   2  25
ATOM     25  C   UNL d   1      60.837  48.093  50.634  0.00  0.00     0.000 A 
ATOM     26  C   UNL d   1      60.963  48.496  49.934  0.00  0.00     0.000 A 
ATOM     27  C   UNL d   1      61.215  49.304  49.959  0.00  0.00     0.000 A 
ATOM     28  C   UNL d   1      61.326  49.666  50.682  0.00  0.00     0.000 A 
ATOM     29  C   UNL d   1      61.201  49.269  51.364  0.00  0.00     0.000 A 
ATOM     30  C   UNL d   1      60.952  48.471  51.359  0.00  0.00     0.000 A 
ENDBRANCH   2  25
TORSDOF 6
ENDMDL
