MODEL 1
REMARK VINA RESULT:      31.4      0.000      0.000
REMARK  2 active torsions:
REMARK  status: ('A' for Active; 'I' for Inactive)
REMARK       I    between atoms: N_3  and  C_1 
REMARK    1  A    between atoms: C_4  and  C_1 
REMARK    2  A    between atoms: C_10  and  N_3 
ROOT
ATOM      1  C   UNL d   1      14.384  13.089  -2.151  0.00  0.00     0.279 C 
ATOM      2  N   UNL d   1      13.962  13.396  -2.793  0.00  0.00    -0.208 NA
ATOM      3  O   UNL d   1      14.493  12.273  -2.079  0.00  0.00    -0.265 OA
ENDROOT
BRANCH   1   4
ATOM      4  C   UNL d   1      14.692  13.606  -1.587  0.00  0.00     0.059 A 
ATOM      5  C   UNL d   1      14.698  14.414  -1.737  0.00  0.00     0.013 A 
ATOM      6  C   UNL d   1      15.001  14.937  -1.186  0.00  0.00     0.049 A 
ATOM      7  S   UNL d   1      15.078  15.765  -1.185  0.00  0.00    -0.064 SA
ATOM      8  C   UNL d   1      15.310  14.647  -0.460  0.00  0.00     0.088 A 
ATOM      9  C   UNL d   1      15.431  15.973  -0.462  0.00  0.00     0.135 A 
ATOM     10  N   UNL d   1      15.577  15.300  -0.014  0.00  0.00    -0.236 NA
ATOM     11  C   UNL d   1      15.310  13.833  -0.298  0.00  0.00     0.020 A 
ATOM     12  C   UNL d   1      15.001  13.316  -0.862  0.00  0.00     0.006 A 
ENDBRANCH   1   4
BRANCH   2  13
ATOM     13  C   UNL d   1      13.645  12.855  -3.373  0.00  0.00     0.087 A 
ATOM     14  C   UNL d   1      13.898  12.886  -4.156  0.00  0.00     0.049 A 
ATOM     15  C   UNL d   1      13.591  12.366  -4.706  0.00  0.00     0.142 A 
ATOM     16  F   UNL d   1      13.840  12.392  -5.498  0.00  0.00    -0.204 F 
ATOM     17  C   UNL d   1      13.033  11.814  -4.477  0.00  0.00     0.030 A 
ATOM     18  C   UNL d   1      12.778  11.779  -3.696  0.00  0.00     0.004 A 
ATOM     19  C   UNL d   1      13.087  12.306  -3.136  0.00  0.00     0.019 A 
ENDBRANCH   2  13
TORSDOF 2
ENDMDL
MODEL 2
REMARK VINA RESULT:      31.6      2.051      4.262
REMARK  2 active torsions:
REMARK  status: ('A' for Active; 'I' for Inactive)
REMARK       I    between atoms: N_3  and  C_1 
REMARK    1  A    between atoms: C_4  and  C_1 
REMARK    2  A    between atoms: C_10  and  N_3 
ROOT
ATOM      1  C   UNL d   1      14.298  13.219  -1.768  0.00  0.00     0.279 C 
ATOM      2  N   UNL d   1      14.505  14.014  -1.864  0.00  0.00    -0.208 NA
ATOM      3  O   UNL d   1      14.493  12.822  -1.069  0.00  0.00    -0.265 OA
ENDROOT
BRANCH   1   4
ATOM      4  C   UNL d   1      13.898  12.830  -2.375  0.00  0.00     0.059 A 
ATOM      5  C   UNL d   1      13.981  13.092  -3.149  0.00  0.00     0.013 A 
ATOM      6  C   UNL d   1      13.589  12.715  -3.761  0.00  0.00     0.049 A 
ATOM      7  S   UNL d   1      13.568  12.853  -4.580  0.00  0.00    -0.064 SA
ATOM      8  C   UNL d   1      13.098  12.054  -3.596  0.00  0.00     0.088 A 
ATOM      9  C   UNL d   1      13.066  12.278  -4.908  0.00  0.00     0.135 A 
ATOM     10  N   UNL d   1      12.775  11.787  -4.318  0.00  0.00    -0.236 NA
ATOM     11  C   UNL d   1      13.006  11.779  -2.818  0.00  0.00     0.020 A 
ATOM     12  C   UNL d   1      13.407  12.169  -2.211  0.00  0.00     0.006 A 
ENDBRANCH   1   4
BRANCH   2  13
ATOM     13  C   UNL d   1      14.920  14.411  -1.231  0.00  0.00     0.087 A 
ATOM     14  C   UNL d   1      14.852  15.226  -1.133  0.00  0.00     0.049 A 
ATOM     15  C   UNL d   1      15.251  15.598  -0.526  0.00  0.00     0.142 A 
ATOM     16  F   UNL d   1      15.187  16.421  -0.420  0.00  0.00    -0.204 F 
ATOM     17  C   UNL d   1      15.718  15.161  -0.016  0.00  0.00     0.030 A 
ATOM     18  C   UNL d   1      15.788  14.348  -0.112  0.00  0.00     0.004 A 
ATOM     19  C   UNL d   1      15.385  13.966  -0.726  0.00  0.00     0.019 A 
ENDBRANCH   2  13
TORSDOF 2
ENDMDL
