MODEL 1
REMARK VINA RESULT:      12.5      0.000      0.000
REMARK  3 active torsions:
REMARK  status: ('A' for Active; 'I' for Inactive)
REMARK    1  A    between atoms: C_2  and  C_1 
REMARK       I    between atoms: N_7  and  C_2 
REMARK    2  A    between atoms: C_9  and  N_7 
REMARK    3  A    between atoms: O_16  and  C_10 
ROOT
ATOM      1  C   UNL d   1      24.507  13.999  -0.764  0.00  0.00     0.280 C 
ATOM      2  N   UNL d   1      24.757  14.199  -1.523  0.00  0.00    -0.208 NA
ATOM      3  O   UNL d   1      24.509  14.577  -0.167  0.00  0.00    -0.265 OA
ENDROOT
BRANCH   1   4
ATOM      4  C   UNL d   1      24.257  13.231  -0.594  0.00  0.00     0.065 A 
ATOM      5  C   UNL d   1      23.490  13.000  -0.411  0.00  0.00     0.011 A 
ATOM      6  C   UNL d   1      23.501  12.188  -0.284  0.00  0.00     0.030 A 
ATOM      7  C   UNL d   1      22.781  13.421  -0.342  0.00  0.00     0.001 A 
ATOM      8  C   UNL d   1      22.800  11.789  -0.087  0.00  0.00     0.006 A 
ATOM      9  S   UNL d   1      24.269  11.919  -0.389  0.00  0.00    -0.086 SA
ATOM     10  C   UNL d   1      22.102  12.203  -0.019  0.00  0.00     0.001 A 
ATOM     11  C   UNL d   1      22.089  13.021  -0.146  0.00  0.00     0.000 A 
ATOM     12  C   UNL d   1      24.732  12.575  -0.581  0.00  0.00     0.040 A 
ENDBRANCH   1   4
BRANCH   2  13
ATOM     13  C   UNL d   1      24.755  13.622  -2.117  0.00  0.00     0.085 A 
ATOM     14  C   UNL d   1      24.756  12.827  -1.911  0.00  0.00     0.021 A 
ATOM     15  C   UNL d   1      24.754  12.244  -2.507  0.00  0.00     0.026 A 
ATOM     16  C   UNL d   1      24.752  12.463  -3.302  0.00  0.00     0.094 A 
ATOM     17  C   UNL d   1      24.751  13.266  -3.502  0.00  0.00     0.026 A 
ATOM     18  C   UNL d   1      24.753  13.842  -2.912  0.00  0.00     0.021 A 
BRANCH  16  19
ATOM     19  O   UNL d   1      24.750  11.869  -3.887  0.00  0.00    -0.328 OA
ATOM     20  C   UNL d   1      24.758  12.069  -4.688  0.00  0.00     0.181 C 
ENDBRANCH  16  19
ENDBRANCH   2  13
TORSDOF 3
ENDMDL
