MODEL 1
REMARK VINA RESULT:      10.2      0.000      0.000
REMARK  2 active torsions:
REMARK  status: ('A' for Active; 'I' for Inactive)
REMARK    1  A    between atoms: C_4  and  C_1 
REMARK    2  A    between atoms: C_2  and  C_7 
ROOT
ATOM      1  C   UNL d   1     -51.504  24.860  33.346  0.00  0.00     0.003 A 
ATOM      2  C   UNL d   1     -52.663  24.026  33.347  0.00  0.00     0.071 A 
ATOM      3  C   UNL d   1     -52.328  24.778  33.338  0.00  0.00     0.004 A 
ATOM      4  C   UNL d   1     -51.020  24.199  33.362  0.00  0.00     0.000 A 
ATOM      5  C   UNL d   1     -52.181  23.354  33.363  0.00  0.00     0.004 A 
ATOM      6  C   UNL d   1     -51.352  23.444  33.371  0.00  0.00    -0.000 A 
ENDROOT
BRANCH   1   7
ATOM      7  C   UNL d   1     -51.171  25.615  33.337  0.00  0.00     0.042 A 
ATOM      8  C   UNL d   1     -51.660  26.282  33.344  0.00  0.00     0.045 A 
ATOM      9  C   UNL d   1     -51.327  27.037  33.335  0.00  0.00     0.196 A 
ATOM     10  O   UNL d   1     -51.816  27.704  33.342  0.00  0.00    -0.287 OA
ATOM     11  C   UNL d   1     -50.507  27.125  33.320  0.00  0.00     0.045 A 
ATOM     12  C   UNL d   1     -50.019  26.458  33.313  0.00  0.00     0.045 A 
ATOM     13  C   UNL d   1     -50.351  25.703  33.322  0.00  0.00     0.196 A 
ATOM     14  O   UNL d   1     -49.863  25.036  33.315  0.00  0.00    -0.287 OA
ENDBRANCH   1   7
BRANCH   2  15
ATOM     15  C   UNL d   1     -53.484  23.938  33.339  0.00  0.00     0.419 C 
ATOM     16  F   UNL d   1     -54.230  23.856  33.332  0.00  0.00    -0.166 F 
ATOM     17  F   UNL d   1     -54.098  24.543  33.319  0.00  0.00    -0.166 F 
ATOM     18  F   UNL d   1     -53.960  23.212  33.350  0.00  0.00    -0.166 F 
ENDBRANCH   2  15
TORSDOF 2
ENDMDL
MODEL 2
REMARK VINA RESULT:      12.2      2.031      3.315
REMARK  2 active torsions:
REMARK  status: ('A' for Active; 'I' for Inactive)
REMARK    1  A    between atoms: C_4  and  C_1 
REMARK    2  A    between atoms: C_2  and  C_7 
ROOT
ATOM      1  C   UNL d   1     -50.956  25.343  33.346  0.00  0.00     0.003 A 
ATOM      2  C   UNL d   1     -50.958  26.771  33.347  0.00  0.00     0.071 A 
ATOM      3  C   UNL d   1     -51.372  26.060  33.343  0.00  0.00     0.004 A 
ATOM      4  C   UNL d   1     -50.137  25.337  33.352  0.00  0.00     0.000 A 
ATOM      5  C   UNL d   1     -50.131  26.773  33.353  0.00  0.00     0.004 A 
ATOM      6  C   UNL d   1     -49.719  26.048  33.356  0.00  0.00    -0.000 A 
ENDROOT
BRANCH   1   7
ATOM      7  C   UNL d   1     -51.374  24.632  33.342  0.00  0.00     0.042 A 
ATOM      8  C   UNL d   1     -52.201  24.638  33.352  0.00  0.00     0.045 A 
ATOM      9  C   UNL d   1     -52.619  23.926  33.349  0.00  0.00     0.196 A 
ATOM     10  O   UNL d   1     -53.446  23.932  33.359  0.00  0.00    -0.287 OA
ATOM     11  C   UNL d   1     -52.211  23.210  33.335  0.00  0.00     0.045 A 
ATOM     12  C   UNL d   1     -51.384  23.204  33.325  0.00  0.00     0.045 A 
ATOM     13  C   UNL d   1     -50.966  23.915  33.328  0.00  0.00     0.196 A 
ATOM     14  O   UNL d   1     -50.139  23.909  33.318  0.00  0.00    -0.287 OA
ENDBRANCH   1   7
BRANCH   2  15
ATOM     15  C   UNL d   1     -51.367  27.488  33.344  0.00  0.00     0.419 C 
ATOM     16  F   UNL d   1     -51.737  28.141  33.341  0.00  0.00    -0.166 F 
ATOM     17  F   UNL d   1     -52.217  27.632  33.334  0.00  0.00    -0.166 F 
ATOM     18  F   UNL d   1     -51.056  28.300  33.350  0.00  0.00    -0.166 F 
ENDBRANCH   2  15
TORSDOF 2
ENDMDL
